REMARK  Name = ZINC46865171
REMARK  5 active torsions:
REMARK  status: ('A' for Active; 'I' for Inactive)
REMARK    1  A    between atoms: C_4  and  C_7
REMARK    2  A    between atoms: N_16  and  C_17
REMARK    3  A    between atoms: C_17  and  C_18
REMARK    4  A    between atoms: N_20  and  C_21
REMARK    5  A    between atoms: C_22  and  C_30
REMARK                            x       y       z     vdW  Elec       q    Type
REMARK                         _______ _______ _______ _____ _____    ______ ____
ROOT
ATOM      1  C   UNL     1       3.337  -2.656   3.124  0.00  0.00    +0.201 C 
ATOM      2  O   UNL     1       3.271  -3.765   2.637  0.00  0.00    -0.278 OA
ATOM      3  N   UNL     1       3.226  -2.498   4.458  0.00  0.00    -0.281 N 
ATOM      4  H   UNL     1       3.279  -1.612   4.847  0.00  0.00    +0.155 HD
ENDROOT
BRANCH   3   5
ATOM      5  C   UNL     1       3.037  -3.604   5.274  0.00  0.00    +0.084 A 
ATOM      6  C   UNL     1       2.898  -3.632   6.652  0.00  0.00    +0.068 A 
ATOM      7  C   UNL     1       2.709  -4.930   7.275  0.00  0.00    -0.023 A 
ATOM      8  C   UNL     1       2.695  -5.963   6.404  0.00  0.00    -0.004 A 
ATOM      9  S   UNL     1       2.917  -5.215   4.817  0.00  0.00    -0.077 S 
ATOM     10  C   UNL     1       2.522  -7.414   6.733  0.00  0.00    +0.043 C 
ATOM     11  C   UNL     1       2.741  -7.596   8.242  0.00  0.00    +0.005 C 
ATOM     12  C   UNL     1       1.925  -6.538   8.992  0.00  0.00    +0.005 C 
ATOM     13  C   UNL     1       2.538  -5.154   8.770  0.00  0.00    +0.037 C 
BRANCH   6  14
ATOM     14  C   UNL     1       2.940  -2.401   7.449  0.00  0.00    +0.244 C 
ATOM     15  O   UNL     1       1.913  -1.789   7.677  0.00  0.00    -0.270 OA
ATOM     16  N   UNL     1       4.115  -1.950   7.929  0.00  0.00    -0.325 N 
ATOM     17  H   UNL     1       4.934  -2.438   7.748  0.00  0.00    +0.145 HD
ATOM     18  H   UNL     1       4.143  -1.136   8.457  0.00  0.00    +0.145 HD
ENDBRANCH   6  14
ENDBRANCH   3   5
BRANCH   1  19
ATOM     19  C   UNL     1       3.542  -1.455   2.237  0.00  0.00    +0.020 C 
BRANCH  19  28
ATOM     20  C   UNL     1       3.711  -0.707  -0.038  0.00  0.00    +0.011 C 
ATOM     21  C   UNL     1       4.013  -1.177  -1.439  0.00  0.00    +0.009 A 
ATOM     22  C   UNL     1       3.879  -0.502  -2.590  0.00  0.00    +0.021 A 
ATOM     23  C   UNL     1       4.283  -1.363  -3.632  0.00  0.00    +0.019 A 
ATOM     24  C   UNL     1       4.650  -2.535  -3.071  0.00  0.00    +0.086 A 
ATOM     25  N   UNL     1       4.491  -2.429  -1.728  0.00  0.00    -0.353 N 
ATOM     26  C   UNL     1       4.766  -3.438  -0.698  0.00  0.00    +0.103 C 
ATOM     27  C   UNL     1       4.825  -2.726   0.659  0.00  0.00    -0.055 C 
ATOM     28  N   UNL     1       3.631  -1.889   0.837  0.00  0.00    +0.395 N 
ATOM     29  H   UNL     1       2.809  -2.425   0.601  0.00  0.00    -0.080 HD
BRANCH  20  33
ATOM     30  C   UNL     1      -0.017   1.378   0.010  0.00  0.00    +0.000 A 
ATOM     31  C   UNL     1       1.171   2.086   0.002  0.00  0.00    +0.000 A 
ATOM     32  C   UNL     1       2.377   1.411  -0.013  0.00  0.00    +0.002 A 
ATOM     33  C   UNL     1       2.396   0.029  -0.020  0.00  0.00    -0.055 A 
ATOM     34  C   UNL     1       1.208  -0.679  -0.012  0.00  0.00    +0.002 A 
ATOM     35  C   UNL     1       0.002  -0.004   0.002  0.00  0.00    +0.000 A 
ENDBRANCH  20  33
ENDBRANCH  19  28
ENDBRANCH   1  19
TORSDOF 5
