REMARK  Name = ZINC09856333
REMARK  7 active torsions:
REMARK  status: ('A' for Active; 'I' for Inactive)
REMARK    1  A    between atoms: C_1  and  C_2
REMARK    2  A    between atoms: C_2  and  S_3
REMARK    3  A    between atoms: S_3  and  C_4
REMARK    4  A    between atoms: C_10  and  C_12
REMARK    5  A    between atoms: N_17  and  S_19
REMARK    6  A    between atoms: S_19  and  C_22
REMARK    7  A    between atoms: N_31  and  C_32
REMARK                            x       y       z     vdW  Elec       q    Type
REMARK                         _______ _______ _______ _____ _____    ______ ____
ROOT
ATOM      1  C   UNL     1       4.686   4.355  -0.019  0.00  0.00    +0.091 C 
ATOM      2  C   UNL     1       4.349   5.184  -1.261  0.00  0.00    +0.015 C 
ATOM      3  C   UNL     1       5.161   6.481  -1.246  0.00  0.00    +0.018 C 
ATOM      4  C   UNL     1       6.655   6.144  -1.280  0.00  0.00    +0.109 C 
ATOM      5  N   UNL     1       6.959   5.229  -0.172  0.00  0.00    -0.176 NA
ATOM      6  C   UNL     1       6.175   3.994  -0.040  0.00  0.00    +0.122 C 
ENDROOT
BRANCH   1  13
ATOM      7  C   UNL     1       0.002  -0.004   0.002  0.00  0.00    +0.160 A 
ATOM      8  N   UNL     1       1.310  -0.216  -0.012  0.00  0.00    -0.133 NA
ATOM      9  N   UNL     1       2.139   0.734  -0.014  0.00  0.00    -0.125 NA
ATOM     10  C   UNL     1       1.755   2.000  -0.004  0.00  0.00    +0.189 A 
ATOM     11  S   UNL     1      -0.022   1.786   0.012  0.00  0.00    -0.024 S 
ATOM     12  N   UNL     1       2.517   3.167  -0.005  0.00  0.00    -0.263 N 
ATOM     13  C   UNL     1       3.862   3.093  -0.018  0.00  0.00    +0.223 C 
ATOM     14  O   UNL     1       4.410   2.011  -0.029  0.00  0.00    -0.275 OA
ATOM     15  H   UNL     1       2.078   4.032   0.004  0.00  0.00    +0.157 HD
BRANCH   7  16
ATOM     16  S   UNL     1      -1.332  -1.155   0.008  0.00  0.00    -0.097 S 
BRANCH  16  18
ATOM     17  C   UNL     1      -1.572  -3.880  -0.005  0.00  0.00    +0.016 C 
ATOM     18  C   UNL     1      -0.514  -2.774  -0.008  0.00  0.00    +0.073 C 
ENDBRANCH  16  18
ENDBRANCH   7  16
ENDBRANCH   1  13
BRANCH   5  19
ATOM     19  S   UNL     1       8.163   5.584   0.909  0.00  0.00    +0.061 S 
ATOM     20  O   UNL     1       8.585   4.347   1.467  0.00  0.00    -0.153 OA
ATOM     21  O   UNL     1       9.059   6.464   0.244  0.00  0.00    -0.153 OA
BRANCH  19  22
ATOM     22  C   UNL     1       7.432   6.505   2.220  0.00  0.00    +0.109 A 
ATOM     23  C   UNL     1       6.918   5.844   3.323  0.00  0.00    +0.031 A 
ATOM     24  C   UNL     1       6.342   6.559   4.355  0.00  0.00    +0.031 A 
ATOM     25  C   UNL     1       6.281   7.942   4.285  0.00  0.00    +0.090 A 
ATOM     26  C   UNL     1       6.799   8.609   3.175  0.00  0.00    +0.159 A 
ATOM     27  C   UNL     1       7.379   7.883   2.147  0.00  0.00    +0.077 A 
ATOM     28  O   UNL     1       6.605   9.935   3.376  0.00  0.00    -0.407 OA
ATOM     29  C   UNL     1       5.992  10.118   4.556  0.00  0.00    +0.421 A 
ATOM     30  O   UNL     1       5.677  11.195   5.024  0.00  0.00    -0.223 OA
ATOM     31  N   UNL     1       5.778   8.922   5.140  0.00  0.00    -0.277 N 
ATOM     32  C   UNL     1       5.134   8.695   6.436  0.00  0.00    +0.156 C 
ENDBRANCH  19  22
ENDBRANCH   5  19
TORSDOF 5
