REMARK  Name = ZINC39381118
REMARK  6 active torsions:
REMARK  status: ('A' for Active; 'I' for Inactive)
REMARK    1  A    between atoms: C_1  and  C_2
REMARK    2  A    between atoms: C_2  and  C_4
REMARK    3  A    between atoms: C_2  and  S_18
REMARK    4  A    between atoms: N_6  and  N_7
REMARK    5  A    between atoms: C_8  and  C_9
REMARK    6  A    between atoms: S_18  and  C_19
REMARK                            x       y       z     vdW  Elec       q    Type
REMARK                         _______ _______ _______ _____ _____    ______ ____
ROOT
ATOM      1  C   UNL     1      -1.674  -0.284  -0.306  0.00  0.00    +0.245 C 
ATOM      2  O   UNL     1      -2.111  -0.474  -1.421  0.00  0.00    -0.273 OA
ATOM      3  N   UNL     1      -2.501  -0.320   0.758  0.00  0.00    -0.206 N 
ATOM      4  H   UNL     1      -2.151  -0.169   1.650  0.00  0.00    +0.177 HD
ENDROOT
BRANCH   1   6
ATOM      5  C   UNL     1       0.012   1.497   0.062  0.00  0.00    +0.029 C 
ATOM      6  C   UNL     1      -0.205  -0.008  -0.110  0.00  0.00    +0.133 C 
BRANCH   6   7
ATOM      7  S   UNL     1       0.718  -0.591  -1.558  0.00  0.00    -0.115 S 
BRANCH   7   8
ATOM      8  C   UNL     1       0.671  -2.398  -1.411  0.00  0.00    +0.193 C 
ATOM      9  N   UNL     1      -0.710  -2.881  -1.276  0.00  0.00    -0.323 N 
ATOM     10  C   UNL     1      -1.046  -3.552  -0.101  0.00  0.00    +0.042 A 
ATOM     11  C   UNL     1      -2.312  -4.083   0.205  0.00  0.00    +0.024 A 
ATOM     12  C   UNL     1      -2.544  -4.730   1.396  0.00  0.00    +0.002 A 
ATOM     13  C   UNL     1      -1.540  -4.880   2.335  0.00  0.00    +0.001 A 
ATOM     14  C   UNL     1      -0.283  -4.367   2.061  0.00  0.00    +0.016 A 
ATOM     15  C   UNL     1      -0.052  -3.721   0.868  0.00  0.00    +0.031 A 
ATOM     16  S   UNL     1       1.399  -2.950   0.183  0.00  0.00    -0.090 S 
ATOM     17  H   UNL     1      -1.363  -2.739  -1.978  0.00  0.00    +0.148 HD
ENDBRANCH   7   8
ENDBRANCH   6   7
ENDBRANCH   1   6
BRANCH   3  18
ATOM     18  N   UNL     1      -3.866  -0.577   0.576  0.00  0.00    -0.188 NA
ATOM     19  C   UNL     1      -4.669  -0.612   1.609  0.00  0.00    +0.136 C 
BRANCH  19  20
ATOM     20  C   UNL     1      -6.035  -0.869   1.427  0.00  0.00    +0.000 C 
ATOM     21  C   UNL     1      -7.019  -0.935   2.411  0.00  0.00    +0.004 A 
ATOM     22  C   UNL     1      -6.977  -0.779   3.814  0.00  0.00    +0.010 A 
ATOM     23  C   UNL     1      -8.117  -0.900   4.539  0.00  0.00    +0.001 A 
ATOM     24  C   UNL     1      -9.345  -1.178   3.932  0.00  0.00    +0.002 A 
ATOM     25  C   UNL     1      -9.460  -1.341   2.592  0.00  0.00    +0.026 A 
ATOM     26  C   UNL     1      -8.311  -1.229   1.766  0.00  0.00    +0.043 A 
ATOM     27  N   UNL     1      -8.160  -1.342   0.463  0.00  0.00    -0.380 N 
ATOM     28  C   UNL     1      -6.751  -1.127   0.119  0.00  0.00    +0.150 C 
ATOM     29  H   UNL     1      -8.870  -1.533  -0.170  0.00  0.00    +0.160 HD
ENDBRANCH  19  20
ENDBRANCH   3  18
TORSDOF 5
