REMARK  Name = ZINC09298273
REMARK  7 active torsions:
REMARK  status: ('A' for Active; 'I' for Inactive)
REMARK    1  A    between atoms: C_1  and  C_2
REMARK    2  A    between atoms: C_2  and  O_3
REMARK    3  A    between atoms: O_3  and  C_4
REMARK    4  A    between atoms: C_7  and  C_9
REMARK    5  A    between atoms: C_13  and  N_14
REMARK    6  A    between atoms: C_15  and  C_17
REMARK    7  A    between atoms: C_33  and  C_37
REMARK                            x       y       z     vdW  Elec       q    Type
REMARK                         _______ _______ _______ _____ _____    ______ ____
ROOT
ATOM      1  C   UNL     1      -0.579  -4.127   0.999  0.00  0.00    +0.069 A 
ATOM      2  C   UNL     1      -0.340  -2.706   0.809  0.00  0.00    -0.023 A 
ATOM      3  C   UNL     1      -1.390  -2.006   0.327  0.00  0.00    -0.004 A 
ATOM      4  S   UNL     1      -2.678  -3.203   0.124  0.00  0.00    -0.077 S 
ATOM      5  C   UNL     1      -1.837  -4.615   0.672  0.00  0.00    +0.085 A 
ATOM      6  C   UNL     1      -1.437  -0.538   0.031  0.00  0.00    +0.046 C 
ATOM      7  C   UNL     1       0.002  -0.004   0.002  0.00  0.00    -0.009 C 
ATOM      8  C   UNL     1       0.742  -0.514   1.242  0.00  0.00    +0.008 C 
ATOM      9  C   UNL     1       0.984  -2.020   1.120  0.00  0.00    +0.037 C 
ATOM     10  C   UNL     1      -0.019   1.526   0.010  0.00  0.00    +0.008 C 
ENDROOT
BRANCH   1  14
ATOM     11  C   UNL     1       2.278  -6.438   1.138  0.00  0.00    +0.407 C 
ATOM     12  O   UNL     1       2.385  -6.618   2.334  0.00  0.00    -0.226 OA
ATOM     13  N   UNL     1       1.314  -5.624   0.663  0.00  0.00    -0.217 N 
ATOM     14  C   UNL     1       0.469  -5.011   1.515  0.00  0.00    +0.255 C 
ATOM     15  O   UNL     1       0.577  -5.192   2.714  0.00  0.00    -0.270 OA
ATOM     16  H   UNL     1       1.228  -5.480  -0.293  0.00  0.00    +0.161 HD
BRANCH  11  17
ATOM     17  O   UNL     1       3.121  -7.050   0.286  0.00  0.00    -0.450 OA
BRANCH  17  19
ATOM     18  C   UNL     1       4.992  -8.515  -0.246  0.00  0.00    +0.048 C 
ATOM     19  C   UNL     1       4.135  -7.912   0.868  0.00  0.00    +0.230 C 
ENDBRANCH  17  19
ENDBRANCH  11  17
ENDBRANCH   1  14
BRANCH   5  20
ATOM     20  N   UNL     1      -2.306  -5.915   0.763  0.00  0.00    -0.275 N 
ATOM     21  C   UNL     1      -3.571  -6.202   0.397  0.00  0.00    +0.256 C 
ATOM     22  O   UNL     1      -4.301  -5.319  -0.013  0.00  0.00    -0.270 OA
ATOM     23  H   UNL     1      -1.724  -6.619   1.090  0.00  0.00    +0.156 HD
BRANCH  21  24
ATOM     24  C   UNL     1      -4.069  -7.583   0.493  0.00  0.00    +0.122 A 
ATOM     25  C   UNL     1      -3.249  -8.603   0.959  0.00  0.00    +0.032 A 
ATOM     26  C   UNL     1      -3.769  -9.909   1.034  0.00  0.00    +0.026 A 
ATOM     27  C   UNL     1      -2.939 -11.014   1.520  0.00  0.00    -0.007 A 
ATOM     28  C   UNL     1      -1.616 -10.815   1.922  0.00  0.00    +0.009 A 
ATOM     29  C   UNL     1      -0.879 -11.873   2.368  0.00  0.00    +0.001 A 
ATOM     30  C   UNL     1      -1.428 -13.150   2.429  0.00  0.00    +0.001 A 
ATOM     31  C   UNL     1      -2.714 -13.379   2.041  0.00  0.00    +0.008 A 
ATOM     32  C   UNL     1      -3.501 -12.312   1.579  0.00  0.00    -0.017 A 
ATOM     33  C   UNL     1      -4.836 -12.508   1.174  0.00  0.00    +0.012 A 
ATOM     34  C   UNL     1      -5.592 -11.475   0.727  0.00  0.00    +0.047 A 
ATOM     35  C   UNL     1      -5.090 -10.171   0.646  0.00  0.00    +0.140 A 
ATOM     36  O   UNL     1      -5.884  -9.178   0.194  0.00  0.00    -0.422 OA
ATOM     37  C   UNL     1      -5.444  -7.912   0.105  0.00  0.00    +0.350 A 
ATOM     38  O   UNL     1      -6.186  -7.037  -0.302  0.00  0.00    -0.244 OA
ENDBRANCH  21  24
ENDBRANCH   5  20
TORSDOF 5
