REMARK  Name = ZINC13816249
REMARK  10 active torsions:
REMARK  status: ('A' for Active; 'I' for Inactive)
REMARK    1  A    between atoms: C_5  and  C_7
REMARK    2  A    between atoms: C_7  and  C_9
REMARK    3  A    between atoms: C_7  and  C_25
REMARK    4  A    between atoms: C_9  and  C_10
REMARK    5  A    between atoms: C_10  and  C_11
REMARK    6  A    between atoms: C_11  and  N_12
REMARK    7  A    between atoms: N_14  and  C_15
REMARK    8  A    between atoms: C_15  and  C_16
REMARK    9  A    between atoms: C_16  and  C_17
REMARK   10  A    between atoms: C_17  and  C_18
REMARK                            x       y       z     vdW  Elec       q    Type
REMARK                         _______ _______ _______ _____ _____    ______ ____
ROOT
ATOM      1  C   UNL     1       1.880  -2.726  -3.780  0.00  0.00    +0.115 C 
ENDROOT
BRANCH   1   2
ATOM      2  N   UNL     1       2.981  -2.310  -4.652  0.00  0.00    -0.358 N 
ATOM      3  C   UNL     1       2.966  -2.644  -5.986  0.00  0.00    +0.169 C 
ATOM      4  N   UNL     1       3.946  -2.274  -6.761  0.00  0.00    -0.358 N 
ATOM      5  N   UNL     1       1.918  -3.369  -6.501  0.00  0.00    -0.371 N 
ATOM      6  H   UNL     1       3.721  -1.798  -4.288  0.00  0.00    +0.162 HD
ATOM      7  H   UNL     1       1.189  -3.645  -5.924  0.00  0.00    +0.159 HD
ATOM      8  H   UNL     1       1.908  -3.605  -7.442  0.00  0.00    +0.159 HD
ATOM      9  H   UNL     1       4.686  -1.762  -6.397  0.00  0.00    +0.162 HD
BRANCH   4  10
ATOM     10  C   UNL     1       3.931  -2.630  -8.182  0.00  0.00    +0.116 C 
BRANCH  10  11
ATOM     11  C   UNL     1       5.186  -2.078  -8.860  0.00  0.00    +0.027 C 
BRANCH  11  12
ATOM     12  C   UNL     1       5.170  -2.450 -10.344  0.00  0.00    +0.058 C 
BRANCH  12  13
ATOM     13  C   UNL     1       6.407  -1.907 -11.012  0.00  0.00    +0.059 A 
ATOM     14  C   UNL     1       7.298  -2.619 -11.727  0.00  0.00    +0.107 A 
ATOM     15  N   UNL     1       8.259  -1.741 -12.150  0.00  0.00    -0.351 N 
ATOM     16  C   UNL     1       7.921  -0.521 -11.679  0.00  0.00    +0.196 A 
ATOM     17  N   UNL     1       6.810  -0.627 -11.003  0.00  0.00    -0.241 NA
ATOM     18  H   UNL     1       9.037  -1.955 -12.688  0.00  0.00    +0.166 HD
ENDBRANCH  12  13
ENDBRANCH  11  12
ENDBRANCH  10  11
ENDBRANCH   4  10
ENDBRANCH   1   2
BRANCH   1  19
ATOM     19  C   UNL     1       2.140  -2.230  -2.357  0.00  0.00    +0.022 C 
BRANCH  19  20
ATOM     20  C   UNL     1       0.990  -2.664  -1.446  0.00  0.00    +0.016 C 
BRANCH  20  21
ATOM     21  C   UNL     1       1.250  -2.168  -0.023  0.00  0.00    +0.068 C 
BRANCH  21  22
ATOM     22  C   UNL     1       0.182  -2.699   0.898  0.00  0.00    -0.038 A 
ATOM     23  C   UNL     1      -1.151  -2.484   0.605  0.00  0.00    +0.007 A 
ATOM     24  C   UNL     1      -2.132  -2.971   1.448  0.00  0.00    +0.038 A 
ATOM     25  C   UNL     1      -1.778  -3.675   2.587  0.00  0.00    +0.123 A 
ATOM     26  C   UNL     1      -0.442  -3.889   2.879  0.00  0.00    +0.038 A 
ATOM     27  C   UNL     1       0.537  -3.406   2.032  0.00  0.00    +0.007 A 
ATOM     28  F   UNL     1      -2.736  -4.151   3.412  0.00  0.00    -0.205 F 
ENDBRANCH  21  22
BRANCH  21  33
ATOM     29  C   UNL     1       0.324   1.404  -0.793  0.00  0.00    +0.003 A 
ATOM     30  C   UNL     1       1.208   2.058   0.052  0.00  0.00    +0.020 A 
ATOM     31  C   UNL     1       2.067   1.312   0.836  0.00  0.00    +0.111 A 
ATOM     32  N   UNL     1       2.052  -0.006   0.787  0.00  0.00    -0.259 NA
ATOM     33  C   UNL     1       1.226  -0.661  -0.004  0.00  0.00    +0.049 A 
ATOM     34  C   UNL     1       0.338   0.018  -0.817  0.00  0.00    +0.024 A 
ENDBRANCH  21  33
ENDBRANCH  20  21
ENDBRANCH  19  20
ENDBRANCH   1  19
TORSDOF 10
