REMARK  Name = ZINC44163712
REMARK  15 active torsions:
REMARK  status: ('A' for Active; 'I' for Inactive)
REMARK    1  A    between atoms: C_1  and  C_2
REMARK    2  A    between atoms: C_2  and  C_4
REMARK    3  A    between atoms: C_2  and  C_31
REMARK    4  A    between atoms: C_4  and  N_5
REMARK    5  A    between atoms: C_6  and  C_8
REMARK    6  A    between atoms: C_13  and  C_16
REMARK    7  A    between atoms: C_18  and  C_27
REMARK    8  A    between atoms: C_19  and  O_26
REMARK    9  A    between atoms: C_20  and  C_22
REMARK   10  A    between atoms: C_22  and  C_23
REMARK   11  A    between atoms: C_22  and  C_24
REMARK   12  A    between atoms: C_22  and  C_25
REMARK   13  A    between atoms: C_27  and  C_28
REMARK   14  A    between atoms: C_27  and  C_29
REMARK   15  A    between atoms: C_27  and  C_30
REMARK                            x       y       z     vdW  Elec       q    Type
REMARK                         _______ _______ _______ _____ _____    ______ ____
ROOT
ATOM      1  C   UNL     1      -4.078  -0.112  -2.723  0.00  0.00    +0.027 C 
ATOM      2  C   UNL     1      -4.094   1.417  -2.841  0.00  0.00    +0.062 C 
ATOM      3  S   UNL     1      -4.874   1.859  -4.425  0.00  0.00    -0.163 S 
ATOM      4  C   UNL     1      -6.407   0.877  -4.401  0.00  0.00    +0.058 C 
ATOM      5  C   UNL     1      -6.045  -0.571  -4.050  0.00  0.00    -0.030 C 
ATOM      6  N   UNL     1      -5.450  -0.623  -2.712  0.00  0.00    +0.392 N 
ATOM      7  H   UNL     1      -5.445  -1.579  -2.391  0.00  0.00    -0.084 HD
ATOM      8  H   UNL     1      -6.006  -0.065  -2.080  0.00  0.00    -0.084 HD
ENDROOT
BRANCH   5   9
ATOM      9  C   UNL     1      -7.290  -1.418  -4.076  0.00  0.00    -0.060 A 
ATOM     10  C   UNL     1      -8.158  -1.403  -3.000  0.00  0.00    +0.009 A 
ATOM     11  C   UNL     1      -9.300  -2.180  -3.021  0.00  0.00    -0.000 A 
ATOM     12  C   UNL     1      -9.577  -2.975  -4.124  0.00  0.00    +0.124 A 
ATOM     13  C   UNL     1      -8.705  -2.988  -5.203  0.00  0.00    -0.000 A 
ATOM     14  C   UNL     1      -7.566  -2.206  -5.179  0.00  0.00    +0.009 A 
BRANCH  13  15
ATOM     15  C   UNL     1      -9.002  -3.851  -6.403  0.00  0.00    -0.009 C 
ATOM     16  C   UNL     1      -7.890  -3.681  -7.440  0.00  0.00    +0.015 C 
ATOM     17  C   UNL     1      -9.076  -5.316  -5.971  0.00  0.00    +0.015 C 
ATOM     18  C   UNL     1     -10.339  -3.430  -7.014  0.00  0.00    +0.015 C 
ENDBRANCH  13  15
BRANCH  11  19
ATOM     19  C   UNL     1     -10.245  -2.164  -1.848  0.00  0.00    -0.009 C 
ATOM     20  C   UNL     1      -9.710  -1.213  -0.775  0.00  0.00    +0.015 C 
ATOM     21  C   UNL     1     -11.624  -1.688  -2.309  0.00  0.00    +0.015 C 
ATOM     22  C   UNL     1     -10.361  -3.575  -1.267  0.00  0.00    +0.015 C 
ENDBRANCH  11  19
BRANCH  12  23
ATOM     23  O   UNL     1     -10.700  -3.740  -4.147  0.00  0.00    -0.506 OA
ATOM     24  H   UNL     1     -11.471  -3.295  -4.523  0.00  0.00    +0.292 HD
ENDBRANCH  12  23
ENDBRANCH   5   9
BRANCH   1  26
ATOM     25  N   UNL     1      -2.105  -0.148  -1.230  0.00  0.00    -0.316 N 
ATOM     26  C   UNL     1      -3.387  -0.508  -1.443  0.00  0.00    +0.200 C 
ATOM     27  O   UNL     1      -3.983  -1.151  -0.606  0.00  0.00    -0.278 OA
ATOM     28  H   UNL     1      -1.628   0.366  -1.901  0.00  0.00    +0.149 HD
BRANCH  25  29
ATOM     29  C   UNL     1      -1.433  -0.534   0.013  0.00  0.00    +0.112 C 
BRANCH  29  31
ATOM     30  C   UNL     1      -0.019   1.526   0.010  0.00  0.00    +0.014 C 
ATOM     31  C   UNL     1       0.002  -0.004   0.002  0.00  0.00    +0.033 C 
BRANCH  31  32
ATOM     32  C   UNL     1       0.731  -0.503   1.223  0.00  0.00    -0.043 A 
ATOM     33  C   UNL     1       0.263  -0.187   2.485  0.00  0.00    +0.004 A 
ATOM     34  C   UNL     1       0.931  -0.645   3.605  0.00  0.00    +0.000 A 
ATOM     35  C   UNL     1       2.068  -1.419   3.463  0.00  0.00    +0.000 A 
ATOM     36  C   UNL     1       2.535  -1.736   2.201  0.00  0.00    +0.000 A 
ATOM     37  C   UNL     1       1.864  -1.282   1.081  0.00  0.00    +0.004 A 
ENDBRANCH  31  32
ENDBRANCH  29  31
ENDBRANCH  25  29
ENDBRANCH   1  26
TORSDOF 8
