REMARK  Name = ZINC58545939
REMARK  10 active torsions:
REMARK  status: ('A' for Active; 'I' for Inactive)
REMARK    1  A    between atoms: C_1  and  C_2
REMARK    2  A    between atoms: C_3  and  C_23
REMARK    3  A    between atoms: C_7  and  N_8
REMARK    4  A    between atoms: N_11  and  C_12
REMARK    5  A    between atoms: C_12  and  C_13
REMARK    6  A    between atoms: C_13  and  C_14
REMARK    7  A    between atoms: C_14  and  C_15
REMARK    8  A    between atoms: C_15  and  N_16
REMARK    9  A    between atoms: C_21  and  C_22
REMARK   10  A    between atoms: N_25  and  C_26
REMARK                            x       y       z     vdW  Elec       q    Type
REMARK                         _______ _______ _______ _____ _____    ______ ____
ROOT
ATOM      1  N   UNL     1       0.105   0.113   2.422  0.00  0.00    -0.269 N 
ATOM      2  C   UNL     1       0.303  -0.538   3.585  0.00  0.00    +0.304 C 
ATOM      3  O   UNL     1       0.356  -1.752   3.601  0.00  0.00    -0.253 OA
ATOM      4  N   UNL     1       0.443   0.158   4.731  0.00  0.00    -0.299 N 
ATOM      5  H   UNL     1      -0.007   1.076   2.418  0.00  0.00    +0.156 HD
ATOM      6  H   UNL     1       0.401   1.127   4.719  0.00  0.00    +0.150 HD
ENDROOT
BRANCH   1  13
ATOM      7  C   UNL     1      -1.154   1.331   0.182  0.00  0.00    +0.046 C 
ATOM      8  C   UNL     1      -0.542  -0.044   0.103  0.00  0.00    -0.017 A 
ATOM      9  C   UNL     1      -0.576  -0.758  -1.095  0.00  0.00    +0.041 A 
ATOM     10  C   UNL     1      -0.007  -2.030  -1.161  0.00  0.00    +0.013 A 
ATOM     11  C   UNL     1       0.587  -2.579  -0.042  0.00  0.00    +0.003 A 
ATOM     12  C   UNL     1       0.622  -1.872   1.145  0.00  0.00    +0.023 A 
ATOM     13  C   UNL     1       0.063  -0.602   1.219  0.00  0.00    +0.038 A 
BRANCH   9  14
ATOM     14  C   UNL     1      -1.214  -0.168  -2.291  0.00  0.00    +0.244 C 
ATOM     15  O   UNL     1      -1.591   0.988  -2.272  0.00  0.00    -0.270 OA
ATOM     16  N   UNL     1      -1.379  -0.911  -3.403  0.00  0.00    -0.314 N 
ATOM     17  C   UNL     1      -2.010  -0.327  -4.589  0.00  0.00    +0.128 C 
ATOM     18  H   UNL     1      -1.078  -1.834  -3.419  0.00  0.00    +0.149 HD
ENDBRANCH   9  14
ENDBRANCH   1  13
BRANCH   4  19
ATOM     19  C   UNL     1       0.658  -0.550   5.996  0.00  0.00    +0.105 C 
BRANCH  19  20
ATOM     20  C   UNL     1       0.783   0.466   7.134  0.00  0.00    +0.017 C 
BRANCH  20  21
ATOM     21  C   UNL     1       1.008  -0.273   8.454  0.00  0.00    -0.017 C 
BRANCH  21  22
ATOM     22  C   UNL     1       1.133   0.743   9.592  0.00  0.00    -0.078 C 
BRANCH  22  23
ATOM     23  N   UNL     1       1.349   0.034  10.860  0.00  0.00    +0.381 N 
ATOM     24  C   UNL     1       2.636  -0.670  10.813  0.00  0.00    -0.078 C 
ATOM     25  C   UNL     1       2.829  -1.476  12.099  0.00  0.00    -0.019 C 
ATOM     26  C   UNL     1       2.809  -0.524  13.299  0.00  0.00    -0.003 C 
ATOM     27  C   UNL     1       1.492   0.258  13.296  0.00  0.00    -0.016 C 
ATOM     28  C   UNL     1       1.349   0.999  11.965  0.00  0.00    -0.072 C 
ATOM     29  C   UNL     1       0.035   1.783  11.958  0.00  0.00    -0.013 C 
ATOM     30  H   UNL     1       0.607  -0.636  11.000  0.00  0.00    -0.081 HD
ENDBRANCH  22  23
ENDBRANCH  21  22
ENDBRANCH  20  21
ENDBRANCH  19  20
ENDBRANCH   4  19
TORSDOF 7
