REMARK  Name = ZINC13626848
REMARK  10 active torsions:
REMARK  status: ('A' for Active; 'I' for Inactive)
REMARK    1  A    between atoms: C_1  and  C_2
REMARK    2  A    between atoms: C_5  and  C_38
REMARK    3  A    between atoms: N_8  and  S_10
REMARK    4  A    between atoms: S_10  and  C_13
REMARK    5  A    between atoms: C_16  and  C_19
REMARK    6  A    between atoms: C_19  and  N_21
REMARK    7  A    between atoms: N_23  and  C_35
REMARK    8  A    between atoms: C_27  and  N_31
REMARK    9  A    between atoms: C_32  and  C_34
REMARK   10  A    between atoms: C_35  and  C_36
REMARK                            x       y       z     vdW  Elec       q    Type
REMARK                         _______ _______ _______ _____ _____    ______ ____
ROOT
ATOM      1  C   UNL     1      -2.517   1.697  -6.528  0.00  0.00    +0.269 C 
ATOM      2  O   UNL     1      -1.882   2.040  -7.511  0.00  0.00    -0.268 OA
ENDROOT
BRANCH   1   3
ATOM      3  N   UNL     1      -3.806   2.032  -6.415  0.00  0.00    -0.152 NA
ATOM      4  C   UNL     1      -4.396   2.738  -7.373  0.00  0.00    +0.167 A 
ATOM      5  N   UNL     1      -5.685   3.167  -7.433  0.00  0.00    -0.317 N 
ATOM      6  C   UNL     1      -6.122   3.899  -8.523  0.00  0.00    +0.058 A 
ATOM      7  C   UNL     1      -7.403   4.424  -8.761  0.00  0.00    +0.029 A 
ATOM      8  C   UNL     1      -7.672   5.134  -9.905  0.00  0.00    +0.025 A 
ATOM      9  C   UNL     1      -6.687   5.356 -10.863  0.00  0.00    +0.035 A 
ATOM     10  C   UNL     1      -5.412   4.847 -10.650  0.00  0.00    +0.040 A 
ATOM     11  C   UNL     1      -5.148   4.137  -9.504  0.00  0.00    +0.041 A 
ATOM     12  S   UNL     1      -3.704   3.341  -8.845  0.00  0.00    -0.052 S 
BRANCH   9  13
ATOM     13  N   UNL     1      -6.978   6.082 -12.025  0.00  0.00    -0.286 N 
ATOM     14  C   UNL     1      -8.193   5.978 -12.598  0.00  0.00    +0.214 C 
ATOM     15  O   UNL     1      -9.062   5.324 -12.062  0.00  0.00    -0.276 OA
ATOM     16  C   UNL     1      -8.472   6.676 -13.904  0.00  0.00    +0.109 C 
ATOM     17  H   UNL     1      -6.214   6.736 -12.470  0.00  0.00    +0.155 HD
ENDBRANCH   9  13
BRANCH   5  18
ATOM     18  C   UNL     1      -6.611   2.854  -6.342  0.00  0.00    +0.151 C 
BRANCH  18  19
ATOM     19  C   UNL     1      -6.216   1.546  -5.707  0.00  0.00    -0.013 C 
ATOM     20  C   UNL     1      -5.992   1.485  -4.418  0.00  0.00    +0.005 C 
ENDBRANCH  18  19
ENDBRANCH   5  18
ENDBRANCH   1   3
BRANCH   1  24
ATOM     21  C   UNL     1      -0.631  -0.563  -3.463  0.00  0.00    +0.106 A 
ATOM     22  C   UNL     1      -1.967  -0.223  -3.345  0.00  0.00    +0.029 A 
ATOM     23  C   UNL     1      -2.583   0.515  -4.334  0.00  0.00    +0.015 A 
ATOM     24  C   UNL     1      -1.859   0.910  -5.460  0.00  0.00    +0.039 A 
ATOM     25  C   UNL     1      -0.514   0.559  -5.575  0.00  0.00    +0.015 A 
ATOM     26  C   UNL     1       0.092  -0.175  -4.577  0.00  0.00    +0.029 A 
BRANCH  21  27
ATOM     27  S   UNL     1       0.151  -1.501  -2.192  0.00  0.00    +0.061 S 
ATOM     28  O   UNL     1       1.255  -2.161  -2.796  0.00  0.00    -0.153 OA
ATOM     29  O   UNL     1      -0.880  -2.206  -1.515  0.00  0.00    -0.153 OA
BRANCH  27  35
ATOM     30  C   UNL     1       3.537   2.168  -1.278  0.00  0.00    +0.009 C 
ATOM     31  C   UNL     1       2.109   1.619  -1.249  0.00  0.00    +0.002 C 
ATOM     32  C   UNL     1       1.405   2.095   0.023  0.00  0.00    +0.009 C 
ATOM     33  C   UNL     1      -0.034   1.574   0.037  0.00  0.00    +0.002 C 
ATOM     34  C   UNL     1      -0.018   0.042   0.037  0.00  0.00    +0.112 C 
ATOM     35  N   UNL     1       0.781  -0.423  -1.105  0.00  0.00    -0.176 NA
ATOM     36  C   UNL     1       2.149   0.088  -1.264  0.00  0.00    +0.112 C 
ATOM     37  C   UNL     1      -0.748   2.077   1.293  0.00  0.00    +0.009 C 
ENDBRANCH  27  35
ENDBRANCH  21  27
ENDBRANCH   1  24
TORSDOF 7
