REMARK  Name = ZINC66954907
REMARK  12 active torsions:
REMARK  status: ('A' for Active; 'I' for Inactive)
REMARK    1  A    between atoms: C_1  and  C_2
REMARK    2  A    between atoms: N_7  and  C_9
REMARK    3  A    between atoms: C_9  and  C_10
REMARK    4  A    between atoms: C_9  and  C_11
REMARK    5  A    between atoms: C_9  and  C_12
REMARK    6  A    between atoms: C_12  and  N_13
REMARK    7  A    between atoms: N_16  and  C_17
REMARK    8  A    between atoms: C_22  and  S_23
REMARK    9  A    between atoms: S_23  and  C_24
REMARK   10  A    between atoms: C_24  and  C_26
REMARK   11  A    between atoms: C_24  and  C_27
REMARK   12  A    between atoms: C_27  and  C_28
REMARK                            x       y       z     vdW  Elec       q    Type
REMARK                         _______ _______ _______ _____ _____    ______ ____
ROOT
ATOM      1  N   UNL     1       2.156  -4.466   1.156  0.00  0.00    -0.300 N 
ATOM      2  C   UNL     1       2.406  -5.786   1.045  0.00  0.00    +0.304 C 
ATOM      3  O   UNL     1       2.120  -6.537   1.957  0.00  0.00    -0.253 OA
ATOM      4  N   UNL     1       2.974  -6.272  -0.076  0.00  0.00    -0.268 N 
ATOM      5  H   UNL     1       2.385  -3.866   0.429  0.00  0.00    +0.150 HD
ATOM      6  H   UNL     1       3.149  -5.683  -0.826  0.00  0.00    +0.156 HD
ENDROOT
BRANCH   4   7
ATOM      7  C   UNL     1       3.312  -7.630  -0.158  0.00  0.00    +0.048 A 
ATOM      8  C   UNL     1       2.544  -8.579   0.501  0.00  0.00    +0.024 A 
ATOM      9  C   UNL     1       2.879  -9.918   0.419  0.00  0.00    +0.002 A 
ATOM     10  C   UNL     1       3.978 -10.316  -0.319  0.00  0.00    +0.001 A 
ATOM     11  C   UNL     1       4.749  -9.378  -0.980  0.00  0.00    +0.016 A 
ATOM     12  C   UNL     1       4.417  -8.033  -0.908  0.00  0.00    +0.029 A 
BRANCH  12  13
ATOM     13  S   UNL     1       5.393  -6.835  -1.755  0.00  0.00    -0.119 S 
BRANCH  13  14
ATOM     14  C   UNL     1       6.590  -7.826  -2.690  0.00  0.00    +0.062 C 
ATOM     15  C   UNL     1       5.863  -8.592  -3.798  0.00  0.00    +0.020 C 
BRANCH  14  16
ATOM     16  C   UNL     1       7.640  -6.904  -3.313  0.00  0.00    +0.132 C 
BRANCH  16  17
ATOM     17  C   UNL     1       8.420  -6.258  -2.245  0.00  0.00    +0.064 C 
ATOM     18  N   UNL     1       9.023  -5.759  -1.421  0.00  0.00    -0.197 NA
ENDBRANCH  16  17
ENDBRANCH  14  16
ENDBRANCH  13  14
ENDBRANCH  12  13
ENDBRANCH   4   7
BRANCH   1  19
ATOM     19  C   UNL     1       1.539  -3.937   2.375  0.00  0.00    +0.093 C 
BRANCH  19  20
ATOM     20  C   UNL     1       1.366  -2.422   2.243  0.00  0.00    -0.055 C 
ATOM     21  C   UNL     1       2.734  -1.769   2.039  0.00  0.00    -0.008 C 
ATOM     22  C   UNL     1       0.722  -1.870   3.516  0.00  0.00    -0.008 C 
BRANCH  20  28
ATOM     23  C   UNL     1      -0.647   1.159  -0.419  0.00  0.00    +0.005 C 
ATOM     24  C   UNL     1      -0.482  -0.356  -0.287  0.00  0.00    -0.031 C 
ATOM     25  C   UNL     1      -1.860  -1.011  -0.157  0.00  0.00    -0.001 C 
ATOM     26  C   UNL     1      -1.680  -2.517   0.053  0.00  0.00    -0.018 C 
ATOM     27  C   UNL     1      -0.807  -2.754   1.287  0.00  0.00    -0.078 C 
ATOM     28  N   UNL     1       0.505  -2.127   1.090  0.00  0.00    +0.384 N 
ATOM     29  C   UNL     1       0.348  -0.673   0.959  0.00  0.00    -0.075 C 
ATOM     30  H   UNL     1       0.930  -2.494   0.252  0.00  0.00    -0.081 HD
ENDBRANCH  20  28
ENDBRANCH  19  20
ENDBRANCH   1  19
TORSDOF 8
