REMARK  Name = ZINC11592205
REMARK  8 active torsions:
REMARK  status: ('A' for Active; 'I' for Inactive)
REMARK    1  A    between atoms: C_1  and  C_2
REMARK    2  A    between atoms: C_9  and  C_11
REMARK    3  A    between atoms: C_14  and  N_17
REMARK    4  A    between atoms: C_18  and  C_20
REMARK    5  A    between atoms: C_20  and  S_21
REMARK    6  A    between atoms: S_21  and  C_22
REMARK    7  A    between atoms: C_25  and  C_28
REMARK    8  A    between atoms: N_26  and  N_27
REMARK                            x       y       z     vdW  Elec       q    Type
REMARK                         _______ _______ _______ _____ _____    ______ ____
ROOT
ATOM      1  N   UNL     1       3.356  11.976   0.035  0.00  0.00    -0.285 N 
ATOM      2  C   UNL     1       3.740  10.811  -0.525  0.00  0.00    +0.227 C 
ATOM      3  O   UNL     1       4.882  10.670  -0.909  0.00  0.00    -0.275 OA
ATOM      4  H   UNL     1       2.426  12.116   0.272  0.00  0.00    +0.155 HD
ENDROOT
BRANCH   1   8
ATOM      5  C   UNL     1       6.165  14.970   0.750  0.00  0.00    +0.007 A 
ATOM      6  C   UNL     1       4.853  15.308   0.411  0.00  0.00    +0.012 A 
ATOM      7  C   UNL     1       3.928  14.316   0.174  0.00  0.00    +0.024 A 
ATOM      8  C   UNL     1       4.298  12.979   0.274  0.00  0.00    +0.033 A 
ATOM      9  C   UNL     1       5.602  12.640   0.618  0.00  0.00    +0.024 A 
ATOM     10  C   UNL     1       6.534  13.627   0.850  0.00  0.00    +0.012 A 
BRANCH   5  19
ATOM     11  C   UNL     1      11.513  20.563   2.116  0.00  0.00    +0.044 C 
ATOM     12  C   UNL     1      10.297  19.728   1.805  0.00  0.00    -0.049 A 
ATOM     13  C   UNL     1       9.090  20.338   1.492  0.00  0.00    +0.005 A 
ATOM     14  C   UNL     1       7.976  19.612   1.207  0.00  0.00    +0.029 A 
ATOM     15  C   UNL     1       8.010  18.197   1.219  0.00  0.00    +0.079 A 
ATOM     16  C   UNL     1       9.254  17.605   1.542  0.00  0.00    +0.040 A 
ATOM     17  C   UNL     1      10.373  18.348   1.830  0.00  0.00    +0.020 A 
ATOM     18  S   UNL     1       8.884  15.870   1.451  0.00  0.00    -0.067 S 
ATOM     19  C   UNL     1       7.161  16.032   1.005  0.00  0.00    +0.109 A 
ATOM     20  N   UNL     1       7.006  17.338   0.956  0.00  0.00    -0.239 NA
ENDBRANCH   5  19
ENDBRANCH   1   8
BRANCH   2  21
ATOM     21  C   UNL     1       2.751   9.685  -0.675  0.00  0.00    +0.173 C 
BRANCH  21  22
ATOM     22  S   UNL     1       3.562   8.268  -1.456  0.00  0.00    -0.075 S 
BRANCH  22  23
ATOM     23  C   UNL     1       2.216   7.133  -1.506  0.00  0.00    +0.209 A 
ATOM     24  N   UNL     1       0.996   7.352  -1.070  0.00  0.00    -0.121 NA
ATOM     25  N   UNL     1       0.263   6.314  -1.266  0.00  0.00    -0.126 NA
ATOM     26  C   UNL     1       0.974   5.363  -1.831  0.00  0.00    +0.188 A 
ATOM     27  N   UNL     1       2.246   5.861  -2.006  0.00  0.00    -0.223 N 
BRANCH  26  28
ATOM     28  C   UNL     1       0.497   4.024  -2.212  0.00  0.00    +0.058 A 
ATOM     29  C   UNL     1      -0.647   3.371  -1.829  0.00  0.00    +0.019 A 
ATOM     30  C   UNL     1      -0.886   2.110  -2.325  0.00  0.00    +0.008 A 
ATOM     31  C   UNL     1       0.018   1.547  -3.167  0.00  0.00    +0.046 A 
ATOM     32  S   UNL     1       1.258   2.825  -3.294  0.00  0.00    -0.093 S 
ENDBRANCH  26  28
BRANCH  27  33
ATOM     33  N   UNL     1       3.315   5.217  -2.562  0.00  0.00    -0.295 N 
ATOM     34  H   UNL     1       3.354   5.375  -3.558  0.00  0.00    +0.163 HD
ATOM     35  H   UNL     1       4.177   5.497  -2.118  0.00  0.00    +0.163 HD
ENDBRANCH  27  33
ENDBRANCH  22  23
ENDBRANCH  21  22
ENDBRANCH   2  21
TORSDOF 7
