REMARK  Name = ZINC37769916
REMARK  6 active torsions:
REMARK  status: ('A' for Active; 'I' for Inactive)
REMARK    1  A    between atoms: C_1  and  O_2
REMARK    2  A    between atoms: O_2  and  C_3
REMARK    3  A    between atoms: C_3  and  C_5
REMARK    4  A    between atoms: C_10  and  N_11
REMARK    5  A    between atoms: C_12  and  C_14
REMARK    6  A    between atoms: C_17  and  O_21
REMARK                            x       y       z     vdW  Elec       q    Type
REMARK                         _______ _______ _______ _____ _____    ______ ____
ROOT
ATOM      1  N   UNL     1      -3.715  -2.119   0.211  0.00  0.00    -0.285 N 
ATOM      2  C   UNL     1      -4.883  -2.784   0.109  0.00  0.00    +0.203 C 
ATOM      3  O   UNL     1      -4.886  -3.993   0.015  0.00  0.00    -0.277 OA
ATOM      4  H   UNL     1      -3.713  -1.158   0.343  0.00  0.00    +0.155 HD
ENDROOT
BRANCH   1  10
ATOM      5  C   UNL     1      -1.643  -2.858   1.230  0.00  0.00    +0.082 A 
ATOM      6  C   UNL     1      -0.439  -3.561   1.134  0.00  0.00    +0.032 A 
ATOM      7  C   UNL     1      -0.107  -4.199  -0.042  0.00  0.00    +0.020 A 
ATOM      8  C   UNL     1      -0.962  -4.147  -1.132  0.00  0.00    +0.032 A 
ATOM      9  C   UNL     1      -2.155  -3.456  -1.052  0.00  0.00    +0.041 A 
ATOM     10  C   UNL     1      -2.509  -2.812   0.127  0.00  0.00    +0.062 A 
ATOM     11 BR   UNL     1      -3.311  -3.393  -2.547  0.00  0.00    -0.048 Br
ATOM     12 BR   UNL     1       1.523  -5.149  -0.168  0.00  0.00    -0.050 Br
BRANCH   5  13
ATOM     13  C   UNL     1      -2.005  -2.173   2.484  0.00  0.00    +0.341 C 
ATOM     14  O   UNL     1      -3.099  -1.657   2.601  0.00  0.00    -0.245 OA
BRANCH  13  16
ATOM     15  C   UNL     1      -1.539  -1.441   4.687  0.00  0.00    +0.280 C 
ATOM     16  O   UNL     1      -1.122  -2.120   3.501  0.00  0.00    -0.464 OA
ENDBRANCH  13  16
ENDBRANCH   5  13
ENDBRANCH   1  10
BRANCH   2  17
ATOM     17  C   UNL     1      -6.184  -2.025   0.112  0.00  0.00    +0.019 C 
ATOM     18  C   UNL     1      -6.482  -1.459  -1.299  0.00  0.00    +0.023 C 
ATOM     19  C   UNL     1      -8.025  -1.308  -1.257  0.00  0.00    +0.097 C 
ATOM     20  C   UNL     1      -8.470  -2.522  -0.413  0.00  0.00    -0.050 C 
ATOM     21  N   UNL     1      -7.311  -2.937   0.401  0.00  0.00    +0.388 N 
ATOM     22  H   UNL     1      -7.052  -3.883   0.164  0.00  0.00    -0.085 HD
ATOM     23  H   UNL     1      -7.547  -2.886   1.381  0.00  0.00    -0.085 HD
BRANCH  19  24
ATOM     24  O   UNL     1      -8.575  -1.376  -2.574  0.00  0.00    -0.394 OA
ATOM     25  H   UNL     1      -9.538  -1.287  -2.604  0.00  0.00    +0.210 HD
ENDBRANCH  19  24
ENDBRANCH   2  17
TORSDOF 5
