REMARK  Name = ZINC08855299
REMARK  8 active torsions:
REMARK  status: ('A' for Active; 'I' for Inactive)
REMARK    1  A    between atoms: C_3  and  N_9
REMARK    2  A    between atoms: N_9  and  C_10
REMARK    3  A    between atoms: C_11  and  C_12
REMARK    4  A    between atoms: C_12  and  C_14
REMARK    5  A    between atoms: C_17  and  C_20
REMARK    6  A    between atoms: C_20  and  N_21
REMARK    7  A    between atoms: N_21  and  C_22
REMARK    8  A    between atoms: C_25  and  C_27
REMARK                            x       y       z     vdW  Elec       q    Type
REMARK                         _______ _______ _______ _____ _____    ______ ____
ROOT
ATOM      1  C   UNL     1      -7.128   3.823  -0.843  0.00  0.00    +0.130 C 
ATOM      2  N   UNL     1      -6.385   4.666  -1.478  0.00  0.00    -0.085 NA
ATOM      3  O   UNL     1      -5.013   4.537  -1.161  0.00  0.00    -0.388 OA
ATOM      4  C   UNL     1      -4.918   3.790   0.069  0.00  0.00    +0.227 C 
ATOM      5  C   UNL     1      -6.235   2.978   0.047  0.00  0.00    +0.111 C 
ENDROOT
BRANCH   1   6
ATOM      6  C   UNL     1      -8.595   3.702  -0.961  0.00  0.00    +0.205 C 
ATOM      7  O   UNL     1      -9.192   2.864  -0.307  0.00  0.00    -0.286 OA
BRANCH   6   9
ATOM      8  C   UNL     1     -10.651   4.445  -1.940  0.00  0.00    +0.076 C 
ATOM      9  C   UNL     1      -9.306   4.556  -1.831  0.00  0.00    +0.068 C 
BRANCH   8  10
ATOM     10  N   UNL     1     -11.338   5.271  -2.781  0.00  0.00    -0.319 N 
ATOM     11  H   UNL     1     -10.863   5.938  -3.301  0.00  0.00    +0.152 HD
BRANCH  10  14
ATOM     12  C   UNL     1     -14.780   4.091  -2.262  0.00  0.00    +0.022 A 
ATOM     13  C   UNL     1     -13.408   4.199  -2.153  0.00  0.00    +0.026 A 
ATOM     14  C   UNL     1     -12.727   5.157  -2.893  0.00  0.00    +0.050 A 
ATOM     15  C   UNL     1     -13.428   5.998  -3.750  0.00  0.00    +0.063 A 
ATOM     16  C   UNL     1     -14.801   5.882  -3.858  0.00  0.00    +0.041 A 
ATOM     17  C   UNL     1     -15.476   4.929  -3.115  0.00  0.00    +0.042 A 
ATOM     18 CL   UNL     1     -17.201   4.786  -3.254  0.00  0.00    -0.083 Cl
ATOM     19 CL   UNL     1     -12.581   7.192  -4.682  0.00  0.00    -0.082 Cl
ENDBRANCH  10  14
ENDBRANCH   8  10
ENDBRANCH   6   9
ENDBRANCH   1   6
BRANCH   4  20
ATOM     20  C   UNL     1      -3.702   2.861   0.052  0.00  0.00    +0.150 C 
BRANCH  20  21
ATOM     21  N   UNL     1      -2.476   3.662   0.044  0.00  0.00    -0.326 N 
ATOM     22  H   UNL     1      -2.529   4.630   0.050  0.00  0.00    +0.148 HD
BRANCH  21  23
ATOM     23  C   UNL     1      -1.235   3.033   0.029  0.00  0.00    +0.115 A 
ATOM     24  C   UNL     1      -0.073   3.800   0.022  0.00  0.00    +0.079 A 
ATOM     25  C   UNL     1       1.154   3.162   0.008  0.00  0.00    +0.037 A 
ATOM     26  C   UNL     1       1.179   1.773   0.000  0.00  0.00    +0.072 A 
ATOM     27  C   UNL     1      -0.013   1.076   0.008  0.00  0.00    +0.096 A 
ATOM     28 CL   UNL     1      -0.163   5.534   0.031  0.00  0.00    -0.080 Cl
ATOM     29  N   UNL     1      -1.236   1.669   0.017  0.00  0.00    -0.348 N 
ATOM     30  H   UNL     1      -2.107   1.125   0.014  0.00  0.00    +0.167 HD
BRANCH  26  31
ATOM     31  C   UNL     1       2.492   1.035  -0.016  0.00  0.00    +0.419 C 
ATOM     32  F   UNL     1       2.253  -0.344  -0.021  0.00  0.00    -0.166 F 
ATOM     33  F   UNL     1       3.211   1.387  -1.163  0.00  0.00    -0.166 F 
ATOM     34  F   UNL     1       3.233   1.375   1.121  0.00  0.00    -0.166 F 
ENDBRANCH  26  31
ENDBRANCH  21  23
ENDBRANCH  20  21
ENDBRANCH   4  20
TORSDOF 8
