REMARK  Name = ZINC13065110
REMARK  12 active torsions:
REMARK  status: ('A' for Active; 'I' for Inactive)
REMARK    1  A    between atoms: C_1  and  C_2
REMARK    2  A    between atoms: C_2  and  C_3
REMARK    3  A    between atoms: C_3  and  C_5
REMARK    4  A    between atoms: C_3  and  N_66
REMARK    5  A    between atoms: N_9  and  C_10
REMARK    6  A    between atoms: C_10  and  C_11
REMARK    7  A    between atoms: C_18  and  C_19
REMARK    8  A    between atoms: C_18  and  N_66
REMARK    9  A    between atoms: C_24  and  C_25
REMARK   10  A    between atoms: C_24  and  N_66
REMARK   11  A    between atoms: C_30  and  C_38
REMARK   12  A    between atoms: C_31  and  C_37
REMARK                            x       y       z     vdW  Elec       q    Type
REMARK                         _______ _______ _______ _____ _____    ______ ____
ROOT
ATOM      1  N   UNL     1      -2.036  -0.305   1.609  0.00  0.00    +0.392 N 
ATOM      2  H   UNL     1      -1.535  -0.592   2.458  0.00  0.00    -0.080 HD
ENDROOT
BRANCH   1   3
ATOM      3  C   UNL     1      -1.943   1.163   1.469  0.00  0.00    +0.003 C 
BRANCH   3   4
ATOM      4  C   UNL     1      -2.646   1.812   2.634  0.00  0.00    +0.138 A 
ATOM      5  N   UNL     1      -2.558   1.464   3.894  0.00  0.00    -0.115 NA
ATOM      6  N   UNL     1      -3.304   2.259   4.580  0.00  0.00    -0.023 NA
ATOM      7  N   UNL     1      -3.866   3.106   3.790  0.00  0.00    -0.044 NA
ATOM      8  N   UNL     1      -3.481   2.867   2.582  0.00  0.00    -0.226 N 
BRANCH   8   9
ATOM      9  C   UNL     1      -3.881   3.602   1.380  0.00  0.00    +0.182 C 
BRANCH   9  10
ATOM     10  C   UNL     1      -5.119   2.973   0.795  0.00  0.00    -0.026 A 
ATOM     11  C   UNL     1      -5.004   1.967  -0.146  0.00  0.00    +0.008 A 
ATOM     12  C   UNL     1      -6.139   1.386  -0.679  0.00  0.00    +0.038 A 
ATOM     13  C   UNL     1      -7.392   1.819  -0.279  0.00  0.00    +0.123 A 
ATOM     14  C   UNL     1      -7.506   2.831   0.659  0.00  0.00    +0.038 A 
ATOM     15  C   UNL     1      -6.369   3.407   1.196  0.00  0.00    +0.008 A 
ATOM     16  F   UNL     1      -8.502   1.256  -0.803  0.00  0.00    -0.205 F 
ENDBRANCH   9  10
ENDBRANCH   8   9
ENDBRANCH   3   4
BRANCH   3  18
ATOM     17  C   UNL     1      -0.354   3.080   1.266  0.00  0.00    +0.002 C 
ATOM     18  C   UNL     1      -0.468   1.569   1.474  0.00  0.00    -0.011 C 
ENDBRANCH   3  18
ENDBRANCH   1   3
BRANCH   1  19
ATOM     19  C   UNL     1      -3.452  -0.713   1.727  0.00  0.00    -0.034 C 
BRANCH  19  20
ATOM     20  C   UNL     1      -3.507  -2.143   2.198  0.00  0.00    -0.027 A 
ATOM     21  C   UNL     1      -3.632  -2.622   3.460  0.00  0.00    +0.009 A 
ATOM     22  C   UNL     1      -3.661  -3.989   3.659  0.00  0.00    +0.008 A 
ATOM     23  C   UNL     1      -3.562  -4.812   2.586  0.00  0.00    +0.045 A 
ATOM     24  S   UNL     1      -3.431  -3.647   1.239  0.00  0.00    -0.103 S 
ENDBRANCH  19  20
ENDBRANCH   1  19
BRANCH   1  25
ATOM     25  C   UNL     1      -1.416  -0.964   0.440  0.00  0.00    -0.036 C 
BRANCH  25  26
ATOM     26  C   UNL     1      -2.001  -0.427  -0.841  0.00  0.00    +0.001 A 
ATOM     27  C   UNL     1      -1.389   0.597  -1.485  0.00  0.00    +0.017 A 
ATOM     28  C   UNL     1      -1.980   1.094  -2.729  0.00  0.00    -0.001 A 
ATOM     29  C   UNL     1      -1.392   2.143  -3.442  0.00  0.00    +0.010 A 
ATOM     30  C   UNL     1      -1.971   2.587  -4.597  0.00  0.00    +0.004 A 
ATOM     31  C   UNL     1      -3.139   2.004  -5.071  0.00  0.00    -0.046 A 
ATOM     32  C   UNL     1      -3.736   0.968  -4.385  0.00  0.00    -0.024 A 
ATOM     33  C   UNL     1      -3.164   0.500  -3.207  0.00  0.00    +0.052 A 
ATOM     34  N   UNL     1      -3.739  -0.535  -2.501  0.00  0.00    -0.322 N 
ATOM     35  H   UNL     1      -4.555  -0.944  -2.831  0.00  0.00    +0.169 HD
ATOM     36  C   UNL     1      -3.187  -0.987  -1.362  0.00  0.00    +0.251 A 
ATOM     37  O   UNL     1      -3.723  -1.905  -0.764  0.00  0.00    -0.268 OA
ATOM     38  C   UNL     1      -5.002   0.343  -4.912  0.00  0.00    +0.046 C 
ATOM     39  C   UNL     1      -3.760   2.509  -6.347  0.00  0.00    +0.044 C 
ENDBRANCH  25  26
ENDBRANCH   1  25
TORSDOF 9
