REMARK  Name = ZINC46950610
REMARK  11 active torsions:
REMARK  status: ('A' for Active; 'I' for Inactive)
REMARK    1  A    between atoms: C_1  and  C_2
REMARK    2  A    between atoms: C_2  and  C_3
REMARK    3  A    between atoms: C_3  and  C_4
REMARK    4  A    between atoms: C_3  and  C_6
REMARK    5  A    between atoms: C_3  and  N_21
REMARK    6  A    between atoms: C_4  and  C_5
REMARK    7  A    between atoms: C_6  and  N_7
REMARK    8  A    between atoms: N_10  and  N_11
REMARK    9  A    between atoms: C_12  and  C_14
REMARK   10  A    between atoms: N_21  and  C_22
REMARK   11  A    between atoms: N_21  and  C_23
REMARK                            x       y       z     vdW  Elec       q    Type
REMARK                         _______ _______ _______ _____ _____    ______ ____
ROOT
ATOM      1  N   UNL     1       2.986  -0.550   0.401  0.00  0.00    -0.300 N 
ATOM      2  C   UNL     1       4.305  -0.281   0.465  0.00  0.00    +0.316 C 
ATOM      3  O   UNL     1       4.752   0.348   1.404  0.00  0.00    -0.251 OA
ATOM      4  N   UNL     1       5.128  -0.710  -0.513  0.00  0.00    -0.218 N 
ATOM      5  H   UNL     1       2.629  -1.052  -0.349  0.00  0.00    +0.150 HD
ATOM      6  H   UNL     1       6.077  -0.517  -0.467  0.00  0.00    +0.174 HD
ENDROOT
BRANCH   4   7
ATOM      7  N   UNL     1       4.612  -1.435  -1.595  0.00  0.00    -0.228 N 
ATOM      8  C   UNL     1       5.436  -1.864  -2.572  0.00  0.00    +0.276 C 
ATOM      9  O   UNL     1       6.627  -1.621  -2.514  0.00  0.00    -0.267 OA
ATOM     10  H   UNL     1       3.663  -1.629  -1.641  0.00  0.00    +0.173 HD
BRANCH   8  11
ATOM     11  C   UNL     1       4.896  -2.623  -3.705  0.00  0.00    +0.104 A 
ATOM     12  C   UNL     1       5.618  -3.126  -4.767  0.00  0.00    +0.047 A 
ATOM     13  C   UNL     1       4.711  -3.777  -5.609  0.00  0.00    +0.036 A 
ATOM     14  C   UNL     1       3.477  -3.663  -5.059  0.00  0.00    +0.098 A 
ATOM     15  N   UNL     1       3.578  -2.968  -3.899  0.00  0.00    -0.356 N 
ATOM     16  H   UNL     1       2.842  -2.749  -3.306  0.00  0.00    +0.166 HD
ATOM     17 BR   UNL     1       5.130  -4.659  -7.228  0.00  0.00    -0.049 Br
ENDBRANCH   8  11
ENDBRANCH   4   7
BRANCH   1  18
ATOM     18  C   UNL     1       2.091  -0.084   1.463  0.00  0.00    +0.094 C 
BRANCH  18  19
ATOM     19  C   UNL     1       0.641  -0.383   1.076  0.00  0.00    -0.051 C 
BRANCH  19  20
ATOM     20  N   UNL     1      -0.245  -0.045   2.198  0.00  0.00    +0.381 N 
ATOM     21  C   UNL     1      -0.174   1.399   2.460  0.00  0.00    -0.096 C 
ATOM     22  C   UNL     1      -1.626  -0.414   1.860  0.00  0.00    -0.096 C 
ATOM     23  H   UNL     1       0.046  -0.551   3.021  0.00  0.00    -0.082 HD
ENDBRANCH  19  20
BRANCH  19  25
ATOM     24  C   UNL     1       1.093   0.011  -1.349  0.00  0.00    +0.002 C 
ATOM     25  C   UNL     1       0.257   0.453  -0.147  0.00  0.00    -0.014 C 
ENDBRANCH  19  25
BRANCH  19  26
ATOM     26  C   UNL     1       0.498  -1.869   0.743  0.00  0.00    -0.014 C 
ATOM     27  C   UNL     1       0.764  -2.701   2.000  0.00  0.00    +0.002 C 
ENDBRANCH  19  26
ENDBRANCH  18  19
ENDBRANCH   1  18
TORSDOF 7
