REMARK  Name = ZINC66991633
REMARK  7 active torsions:
REMARK  status: ('A' for Active; 'I' for Inactive)
REMARK    1  A    between atoms: C_1  and  C_2
REMARK    2  A    between atoms: C_7  and  N_8
REMARK    3  A    between atoms: C_9  and  C_11
REMARK    4  A    between atoms: C_11  and  N_12
REMARK    5  A    between atoms: N_12  and  C_13
REMARK    6  A    between atoms: C_13  and  C_14
REMARK    7  A    between atoms: N_22  and  C_23
REMARK                            x       y       z     vdW  Elec       q    Type
REMARK                         _______ _______ _______ _____ _____    ______ ____
ROOT
ATOM      1  N   UNL     1      -0.242  -0.906   5.992  0.00  0.00    +0.389 N 
ATOM      2  H   UNL     1      -1.051  -1.497   5.872  0.00  0.00    -0.085 HD
ATOM      3  H   UNL     1       0.592  -1.475   6.000  0.00  0.00    -0.085 HD
ENDROOT
BRANCH   1   4
ATOM      4  C   UNL     1      -0.168   0.053   4.882  0.00  0.00    +0.016 C 
BRANCH   4   6
ATOM      5  N   UNL     1       0.025  -0.014   2.417  0.00  0.00    -0.287 N 
ATOM      6  C   UNL     1      -0.056  -0.694   3.578  0.00  0.00    +0.200 C 
ATOM      7  O   UNL     1      -0.040  -1.906   3.574  0.00  0.00    -0.278 OA
ATOM      8  H   UNL     1       0.078   0.954   2.425  0.00  0.00    +0.155 HD
BRANCH   5  15
ATOM      9  C   UNL     1      -1.264   1.184   0.181  0.00  0.00    +0.045 C 
ATOM     10  C   UNL     1      -0.584  -0.158   0.084  0.00  0.00    -0.029 A 
ATOM     11  C   UNL     1      -0.569  -0.840  -1.117  0.00  0.00    +0.006 A 
ATOM     12  C   UNL     1       0.055  -2.070  -1.207  0.00  0.00    +0.015 A 
ATOM     13  C   UNL     1       0.667  -2.622  -0.095  0.00  0.00    +0.020 A 
ATOM     14  C   UNL     1       0.655  -1.944   1.109  0.00  0.00    +0.038 A 
ATOM     15  C   UNL     1       0.034  -0.706   1.201  0.00  0.00    +0.037 A 
ATOM     16 BR   UNL     1       1.518  -4.306  -0.223  0.00  0.00    -0.050 Br
ENDBRANCH   5  15
ENDBRANCH   4   6
ENDBRANCH   1   4
BRANCH   1  17
ATOM     17  C   UNL     1      -0.350  -0.178   7.263  0.00  0.00    -0.006 C 
BRANCH  17  18
ATOM     18  C   UNL     1      -0.426  -1.163   8.401  0.00  0.00    +0.093 A 
ATOM     19  N   UNL     1      -1.526  -1.668   8.878  0.00  0.00    -0.234 NA
ATOM     20  C   UNL     1      -1.235  -2.518   9.896  0.00  0.00    +0.089 A 
ATOM     21  C   UNL     1      -2.014  -3.312  10.742  0.00  0.00    +0.030 A 
ATOM     22  C   UNL     1      -1.413  -4.080  11.698  0.00  0.00    +0.002 A 
ATOM     23  C   UNL     1      -0.033  -4.082  11.841  0.00  0.00    +0.002 A 
ATOM     24  C   UNL     1       0.756  -3.307  11.018  0.00  0.00    +0.028 A 
ATOM     25  C   UNL     1       0.163  -2.520  10.040  0.00  0.00    +0.069 A 
ATOM     26  N   UNL     1       0.647  -1.657   9.076  0.00  0.00    -0.332 N 
ATOM     27  C   UNL     1       2.054  -1.333   8.829  0.00  0.00    +0.150 C 
ENDBRANCH  17  18
ENDBRANCH   1  17
TORSDOF 5
