REMARK  Name = ZINC05529927
REMARK  11 active torsions:
REMARK  status: ('A' for Active; 'I' for Inactive)
REMARK    1  A    between atoms: C_1  and  C_2
REMARK    2  A    between atoms: C_17  and  C_31
REMARK    3  A    between atoms: C_22  and  C_23
REMARK    4  A    between atoms: C_22  and  O_30
REMARK    5  A    between atoms: C_23  and  N_71
REMARK    6  A    between atoms: C_24  and  C_25
REMARK    7  A    between atoms: C_24  and  N_71
REMARK    8  A    between atoms: C_25  and  O_26
REMARK    9  A    between atoms: C_27  and  C_28
REMARK   10  A    between atoms: C_27  and  N_71
REMARK   11  A    between atoms: C_28  and  O_29
REMARK                            x       y       z     vdW  Elec       q    Type
REMARK                         _______ _______ _______ _____ _____    ______ ____
ROOT
ATOM      1  C   UNL     1      -6.284  -2.252   4.571  0.00  0.00    +0.012 C 
ATOM      2  C   UNL     1      -5.169  -2.899   3.746  0.00  0.00    -0.026 C 
ATOM      3  C   UNL     1      -5.640  -4.261   3.232  0.00  0.00    +0.007 C 
ATOM      4  C   UNL     1      -5.983  -5.164   4.419  0.00  0.00    +0.001 C 
ATOM      5  C   UNL     1      -4.741  -5.350   5.293  0.00  0.00    +0.000 C 
ATOM      6  C   UNL     1      -4.271  -3.988   5.808  0.00  0.00    +0.004 C 
ATOM      7  C   UNL     1      -3.929  -3.085   4.622  0.00  0.00    -0.005 C 
ATOM      8  C   UNL     1      -3.460  -1.722   5.136  0.00  0.00    +0.004 C 
ATOM      9  C   UNL     1      -3.123  -0.824   3.962  0.00  0.00    +0.004 C 
ATOM     10  C   UNL     1      -4.350  -0.638   3.067  0.00  0.00    -0.004 C 
ATOM     11  C   UNL     1      -4.825  -1.998   2.558  0.00  0.00    -0.001 C 
ATOM     12  C   UNL     1      -6.070  -1.783   1.691  0.00  0.00    +0.005 C 
ATOM     13  C   UNL     1      -5.688  -0.939   0.464  0.00  0.00    +0.010 C 
ATOM     14  C   UNL     1      -5.176   0.436   0.899  0.00  0.00    -0.002 C 
ATOM     15  C   UNL     1      -4.037   0.304   1.931  0.00  0.00    +0.001 C 
ATOM     16  C   UNL     1      -2.843  -0.170   1.081  0.00  0.00    +0.007 C 
ATOM     17  C   UNL     1      -2.983   0.642  -0.228  0.00  0.00    +0.034 C 
ATOM     18  C   UNL     1      -4.463   1.055  -0.333  0.00  0.00    +0.057 C 
ATOM     19  C   UNL     1      -6.309   1.327   1.412  0.00  0.00    +0.014 C 
ENDROOT
BRANCH  18  20
ATOM     20  O   UNL     1      -4.579   2.479  -0.305  0.00  0.00    -0.390 OA
ATOM     21  H   UNL     1      -3.905   2.939  -0.824  0.00  0.00    +0.210 HD
ENDBRANCH  18  20
BRANCH  18  22
ATOM     22  C   UNL     1      -5.072   0.504  -1.624  0.00  0.00    -0.043 C 
BRANCH  22  23
ATOM     23  N   UNL     1      -4.545   1.233  -2.797  0.00  0.00    +0.384 N 
ATOM     24  H   UNL     1      -4.979   0.854  -3.647  0.00  0.00    -0.082 HD
BRANCH  23  25
ATOM     25  C   UNL     1      -4.876   2.670  -2.689  0.00  0.00    -0.050 C 
BRANCH  25  26
ATOM     26  C   UNL     1      -5.268   3.183  -4.076  0.00  0.00    +0.137 C 
BRANCH  26  27
ATOM     27  O   UNL     1      -6.465   2.531  -4.505  0.00  0.00    -0.397 OA
ATOM     28  H   UNL     1      -6.773   2.809  -5.378  0.00  0.00    +0.209 HD
ENDBRANCH  26  27
ENDBRANCH  25  26
ENDBRANCH  23  25
BRANCH  23  29
ATOM     29  C   UNL     1      -3.080   1.058  -2.886  0.00  0.00    -0.050 C 
BRANCH  29  30
ATOM     30  C   UNL     1      -2.775  -0.418  -3.150  0.00  0.00    +0.137 C 
BRANCH  30  31
ATOM     31  O   UNL     1      -3.354  -0.809  -4.397  0.00  0.00    -0.397 OA
ATOM     32  H   UNL     1      -3.200  -1.734  -4.629  0.00  0.00    +0.209 HD
ENDBRANCH  30  31
ENDBRANCH  29  30
ENDBRANCH  23  29
ENDBRANCH  22  23
ENDBRANCH  18  22
TORSDOF 9
