REMARK  Name = ZINC19518310
REMARK  4 active torsions:
REMARK  status: ('A' for Active; 'I' for Inactive)
REMARK    1  A    between atoms: C_4  and  C_16
REMARK    2  A    between atoms: C_5  and  C_7
REMARK    3  A    between atoms: C_7  and  O_8
REMARK    4  A    between atoms: O_8  and  C_9
REMARK                            x       y       z     vdW  Elec       q    Type
REMARK                         _______ _______ _______ _____ _____    ______ ____
ROOT
ATOM      1  C   UNL     1       0.924  -6.104   0.049  0.00  0.00    +0.000 A 
ATOM      2  C   UNL     1       2.014  -6.923  -0.187  0.00  0.00    +0.001 A 
ATOM      3  C   UNL     1       3.278  -6.381  -0.297  0.00  0.00    +0.011 A 
ATOM      4  C   UNL     1       3.456  -5.003  -0.169  0.00  0.00    +0.018 A 
ATOM      5  C   UNL     1       2.354  -4.183   0.069  0.00  0.00    -0.000 A 
ATOM      6  C   UNL     1       1.095  -4.738   0.182  0.00  0.00    +0.007 A 
ENDROOT
BRANCH   4   7
ATOM      7  C   UNL     1       4.810  -4.415  -0.285  0.00  0.00    +0.095 C 
ATOM      8  N   UNL     1       5.772  -4.838   0.483  0.00  0.00    -0.387 N 
ATOM      9  N   UNL     1       5.051  -3.420  -1.207  0.00  0.00    -0.345 N 
ATOM     10  H   UNL     1       6.778  -4.401   0.397  0.00  0.00    +0.157 HD
ATOM     11  H   UNL     1       6.057  -2.982  -1.294  0.00  0.00    +0.144 HD
ATOM     12  H   UNL     1       4.239  -3.062  -1.857  0.00  0.00    +0.144 HD
ATOM     13  H   UNL     1       5.579  -5.633   1.219  0.00  0.00    +0.157 HD
ENDBRANCH   4   7
BRANCH   5  14
ATOM     14  C   UNL     1       2.538  -2.693   0.208  0.00  0.00    +0.265 C 
BRANCH  14  15
ATOM     15  O   UNL     1       1.294  -2.092   0.574  0.00  0.00    -0.487 OA
BRANCH  15  16
ATOM     16  C   UNL     1       1.286  -0.743   0.741  0.00  0.00    +0.121 A 
ATOM     17  C   UNL     1       0.113  -0.094   1.096  0.00  0.00    +0.047 A 
ATOM     18  C   UNL     1       0.107   1.277   1.265  0.00  0.00    +0.019 A 
ATOM     19  C   UNL     1       1.270   2.002   1.081  0.00  0.00    +0.018 A 
ATOM     20  C   UNL     1       2.442   1.357   0.727  0.00  0.00    +0.019 A 
ATOM     21  C   UNL     1       2.452  -0.014   0.557  0.00  0.00    +0.047 A 
ATOM     22 BR   UNL     1       1.259   3.879   1.312  0.00  0.00    -0.050 Br
ENDBRANCH  15  16
ENDBRANCH  14  15
ENDBRANCH   5  14
TORSDOF 4
