REMARK  Name = ZINC29936382
REMARK  6 active torsions:
REMARK  status: ('A' for Active; 'I' for Inactive)
REMARK    1  A    between atoms: C_3  and  C_6
REMARK    2  A    between atoms: C_6  and  C_8
REMARK    3  A    between atoms: C_6  and  N_15
REMARK    4  A    between atoms: N_15  and  C_16
REMARK    5  A    between atoms: C_16  and  C_17
REMARK    6  A    between atoms: N_19  and  C_20
REMARK                            x       y       z     vdW  Elec       q    Type
REMARK                         _______ _______ _______ _____ _____    ______ ____
ROOT
ATOM      1  N   UNL     1       1.361   2.009  -0.000  0.00  0.00    +0.392 N 
ATOM      2  H   UNL     1       1.377   3.017   0.439  0.00  0.00    -0.084 HD
ATOM      3  H   UNL     1       2.007   1.342   0.589  0.00  0.00    -0.084 HD
ENDROOT
BRANCH   1   4
ATOM      4  C   UNL     1      -0.015   1.492   0.011  0.00  0.00    -0.003 C 
BRANCH   4   5
ATOM      5  C   UNL     1      -0.725   1.980   1.247  0.00  0.00    -0.056 A 
ATOM      6  C   UNL     1      -0.056   2.021   2.457  0.00  0.00    +0.005 A 
ATOM      7  C   UNL     1      -0.705   2.474   3.590  0.00  0.00    +0.038 A 
ATOM      8  C   UNL     1      -2.028   2.876   3.516  0.00  0.00    +0.123 A 
ATOM      9  C   UNL     1      -2.698   2.829   2.306  0.00  0.00    +0.038 A 
ATOM     10  C   UNL     1      -2.046   2.381   1.172  0.00  0.00    +0.005 A 
ATOM     11  F   UNL     1      -2.664   3.312   4.625  0.00  0.00    -0.205 F 
ENDBRANCH   4   5
BRANCH   4  14
ATOM     12  C   UNL     1      -0.570  -2.240  -0.508  0.00  0.00    +0.008 A 
ATOM     13  C   UNL     1      -0.785  -0.883  -0.657  0.00  0.00    +0.010 A 
ATOM     14  C   UNL     1       0.014  -0.014   0.010  0.00  0.00    -0.020 A 
ATOM     15  S   UNL     1       1.105  -1.118   0.892  0.00  0.00    -0.103 S 
ATOM     16  C   UNL     1       0.427  -2.663   0.308  0.00  0.00    +0.045 A 
ENDBRANCH   4  14
ENDBRANCH   1   4
BRANCH   1  17
ATOM     17  C   UNL     1       1.884   2.082  -1.371  0.00  0.00    +0.016 C 
BRANCH  17  18
ATOM     18  C   UNL     1       3.294   2.615  -1.342  0.00  0.00    +0.200 C 
ATOM     19  O   UNL     1       3.811   2.905  -0.284  0.00  0.00    -0.278 OA
ATOM     20  N   UNL     1       3.979   2.769  -2.492  0.00  0.00    -0.287 N 
ATOM     21  H   UNL     1       3.540   2.436  -3.443  0.00  0.00    +0.155 HD
BRANCH  20  22
ATOM     22  C   UNL     1       5.251   3.353  -2.475  0.00  0.00    +0.039 A 
ATOM     23  C   UNL     1       5.661   4.155  -3.532  0.00  0.00    +0.061 A 
ATOM     24  C   UNL     1       6.916   4.737  -3.511  0.00  0.00    +0.128 A 
ATOM     25  C   UNL     1       7.768   4.510  -2.443  0.00  0.00    +0.076 A 
ATOM     26  C   UNL     1       7.362   3.705  -1.391  0.00  0.00    +0.128 A 
ATOM     27  C   UNL     1       6.106   3.127  -1.405  0.00  0.00    +0.061 A 
ATOM     28  F   UNL     1       8.195   3.486  -0.349  0.00  0.00    -0.205 F 
ATOM     29  F   UNL     1       7.314   5.521  -4.536  0.00  0.00    -0.205 F 
ENDBRANCH  20  22
ENDBRANCH  17  18
ENDBRANCH   1  17
TORSDOF 6
