REMARK  Name = ZINC48290717
REMARK  9 active torsions:
REMARK  status: ('A' for Active; 'I' for Inactive)
REMARK    1  A    between atoms: C_1  and  C_2
REMARK    2  A    between atoms: C_4  and  S_26
REMARK    3  A    between atoms: C_6  and  N_9
REMARK    4  A    between atoms: C_7  and  C_8
REMARK    5  A    between atoms: C_10  and  C_12
REMARK    6  A    between atoms: C_12  and  N_13
REMARK    7  A    between atoms: C_17  and  C_19
REMARK    8  A    between atoms: C_22  and  O_25
REMARK    9  A    between atoms: S_26  and  N_29
REMARK                            x       y       z     vdW  Elec       q    Type
REMARK                         _______ _______ _______ _____ _____    ______ ____
ROOT
ATOM      1  N   UNL     1      -1.084  -2.845   2.419  0.00  0.00    -0.287 N 
ATOM      2  C   UNL     1      -0.906  -4.181   2.407  0.00  0.00    +0.201 C 
ATOM      3  O   UNL     1      -0.843  -4.775   1.352  0.00  0.00    -0.278 OA
ATOM      4  H   UNL     1      -1.053  -2.358   3.257  0.00  0.00    +0.155 HD
ENDROOT
BRANCH   1  10
ATOM      5  C   UNL     1      -1.074   1.369  -0.115  0.00  0.00    +0.044 C 
ATOM      6  C   UNL     1      -1.317  -0.117  -0.036  0.00  0.00    -0.044 A 
ATOM      7  C   UNL     1      -1.766  -0.804  -1.149  0.00  0.00    +0.032 A 
ATOM      8  C   UNL     1      -1.990  -2.166  -1.080  0.00  0.00    +0.107 A 
ATOM      9  C   UNL     1      -1.764  -2.846   0.101  0.00  0.00    +0.052 A 
ATOM     10  C   UNL     1      -1.313  -2.159   1.220  0.00  0.00    +0.038 A 
ATOM     11  C   UNL     1      -1.084  -0.791   1.147  0.00  0.00    -0.026 A 
ATOM     12  C   UNL     1      -0.589  -0.043   2.357  0.00  0.00    +0.046 C 
BRANCH   8  13
ATOM     13  S   UNL     1      -2.564  -3.037  -2.500  0.00  0.00    +0.056 S 
ATOM     14  O   UNL     1      -3.215  -4.206  -2.024  0.00  0.00    -0.153 OA
ATOM     15  O   UNL     1      -3.218  -2.082  -3.325  0.00  0.00    -0.153 OA
BRANCH  13  16
ATOM     16  N   UNL     1      -1.227  -3.546  -3.335  0.00  0.00    -0.204 NA
ATOM     17  H   UNL     1      -0.340  -3.341  -3.002  0.00  0.00    +0.144 HD
ATOM     18  H   UNL     1      -1.332  -4.050  -4.158  0.00  0.00    +0.144 HD
ENDBRANCH  13  16
ENDBRANCH   8  13
ENDBRANCH   1  10
BRANCH   2  19
ATOM     19  C   UNL     1      -0.786  -4.936   3.706  0.00  0.00    +0.020 C 
BRANCH  19  20
ATOM     20  N   UNL     1      -0.600  -6.366   3.425  0.00  0.00    +0.390 N 
ATOM     21  C   UNL     1      -1.839  -6.925   2.845  0.00  0.00    -0.077 C 
ATOM     22  C   UNL     1      -1.936  -8.358   3.424  0.00  0.00    -0.020 C 
ATOM     23  C   UNL     1      -1.401  -8.150   4.866  0.00  0.00    -0.013 C 
ATOM     24  C   UNL     1      -0.303  -7.083   4.679  0.00  0.00    -0.037 C 
ATOM     25  H   UNL     1       0.162  -6.489   2.775  0.00  0.00    -0.080 HD
BRANCH  24  26
ATOM     26  C   UNL     1      -0.322  -6.119   5.838  0.00  0.00    -0.061 A 
ATOM     27  C   UNL     1      -1.516  -5.553   6.245  0.00  0.00    +0.005 A 
ATOM     28  C   UNL     1      -1.536  -4.669   7.306  0.00  0.00    +0.045 A 
ATOM     29  C   UNL     1      -0.357  -4.350   7.964  0.00  0.00    +0.117 A 
ATOM     30  C   UNL     1       0.840  -4.920   7.554  0.00  0.00    +0.045 A 
ATOM     31  C   UNL     1       0.854  -5.808   6.495  0.00  0.00    +0.005 A 
BRANCH  29  32
ATOM     32  O   UNL     1      -0.374  -3.481   9.008  0.00  0.00    -0.507 OA
ATOM     33  H   UNL     1      -0.509  -3.902   9.869  0.00  0.00    +0.292 HD
ENDBRANCH  29  32
ENDBRANCH  24  26
ENDBRANCH  19  20
ENDBRANCH   2  19
TORSDOF 7
