REMARK  Name = ZINC35992877
REMARK  12 active torsions:
REMARK  status: ('A' for Active; 'I' for Inactive)
REMARK    1  A    between atoms: C_1  and  C_2
REMARK    2  A    between atoms: C_2  and  O_3
REMARK    3  A    between atoms: O_3  and  C_4
REMARK    4  A    between atoms: C_4  and  C_6
REMARK    5  A    between atoms: C_7  and  C_22
REMARK    6  A    between atoms: N_8  and  C_21
REMARK    7  A    between atoms: C_12  and  C_14
REMARK    8  A    between atoms: C_22  and  N_23
REMARK    9  A    between atoms: N_32  and  C_33
REMARK   10  A    between atoms: C_33  and  C_34
REMARK   11  A    between atoms: C_33  and  C_35
REMARK   12  A    between atoms: C_33  and  C_36
REMARK                            x       y       z     vdW  Elec       q    Type
REMARK                         _______ _______ _______ _____ _____    ______ ____
ROOT
ATOM      1  C   UNL     1      -3.139  -3.573   0.599  0.00  0.00    +0.076 C 
ATOM      2  C   UNL     1      -3.252  -4.657  -0.199  0.00  0.00    +0.010 C 
ATOM      3  N   UNL     1      -4.334  -4.822  -1.016  0.00  0.00    -0.264 N 
ATOM      4  C   UNL     1      -5.345  -3.947  -1.094  0.00  0.00    +0.307 C 
ATOM      5  O   UNL     1      -6.267  -4.180  -1.851  0.00  0.00    -0.252 OA
ATOM      6  N   UNL     1      -5.375  -2.818  -0.359  0.00  0.00    -0.288 N 
ATOM      7  C   UNL     1      -4.256  -2.550   0.560  0.00  0.00    +0.145 C 
ATOM      8  C   UNL     1      -4.391  -6.021  -1.855  0.00  0.00    +0.139 C 
ATOM      9  H   UNL     1      -6.118  -2.198  -0.431  0.00  0.00    +0.151 HD
ENDROOT
BRANCH   7  10
ATOM     10  C   UNL     1      -4.814  -2.419   1.954  0.00  0.00    -0.004 A 
ATOM     11  C   UNL     1      -5.888  -3.197   2.345  0.00  0.00    +0.007 A 
ATOM     12  C   UNL     1      -6.400  -3.077   3.623  0.00  0.00    +0.000 A 
ATOM     13  C   UNL     1      -5.839  -2.179   4.511  0.00  0.00    +0.001 A 
ATOM     14  C   UNL     1      -4.765  -1.400   4.122  0.00  0.00    +0.020 A 
ATOM     15  C   UNL     1      -4.249  -1.524   2.844  0.00  0.00    +0.046 A 
ATOM     16 CL   UNL     1      -2.896  -0.551   2.357  0.00  0.00    -0.083 Cl
ENDBRANCH   7  10
BRANCH   1  17
ATOM     17  C   UNL     1      -2.019  -3.402   1.446  0.00  0.00    +0.339 C 
ATOM     18  O   UNL     1      -2.118  -3.625   2.638  0.00  0.00    -0.245 OA
BRANCH  17  19
ATOM     19  O   UNL     1      -0.841  -2.991   0.932  0.00  0.00    -0.462 OA
BRANCH  19  21
ATOM     20  C   UNL     1       1.490  -2.371   1.085  0.00  0.00    +0.048 C 
ATOM     21  C   UNL     1       0.247  -2.840   1.845  0.00  0.00    +0.229 C 
ENDBRANCH  19  21
ENDBRANCH  17  19
ENDBRANCH   1  17
BRANCH   2  22
ATOM     22  C   UNL     1      -2.166  -5.702  -0.188  0.00  0.00    -0.026 C 
BRANCH  22  23
ATOM     23  N   UNL     1      -2.389  -6.628   0.931  0.00  0.00    +0.384 N 
ATOM     24  C   UNL     1      -1.220  -7.496   1.051  0.00  0.00    -0.077 C 
ATOM     25  C   UNL     1      -1.055  -7.915   2.495  0.00  0.00    +0.000 C 
ATOM     26  C   UNL     1      -1.764  -9.263   2.721  0.00  0.00    +0.107 C 
ATOM     27  N   UNL     1      -3.047  -9.317   1.991  0.00  0.00    -0.287 N 
ATOM     28  C   UNL     1      -3.954  -8.190   1.934  0.00  0.00    +0.091 C 
ATOM     29  C   UNL     1      -3.611  -7.301   0.716  0.00  0.00    -0.059 C 
ATOM     30  C   UNL     1      -3.385 -10.457   1.355  0.00  0.00    +0.303 C 
ATOM     31  O   UNL     1      -2.683 -11.444   1.462  0.00  0.00    -0.253 OA
ATOM     32  N   UNL     1      -4.501 -10.502   0.602  0.00  0.00    -0.294 N 
ATOM     33  H   UNL     1      -5.022  -9.696   0.458  0.00  0.00    +0.151 HD
ATOM     34  H   UNL     1      -2.469  -6.086   1.779  0.00  0.00    -0.081 HD
BRANCH  32  35
ATOM     35  C   UNL     1      -4.928 -11.768   0.000  0.00  0.00    +0.028 C 
ATOM     36  C   UNL     1      -5.185 -12.796   1.104  0.00  0.00    +0.031 C 
ATOM     37  C   UNL     1      -6.214 -11.544  -0.799  0.00  0.00    +0.031 C 
ATOM     38  C   UNL     1      -3.831 -12.284  -0.933  0.00  0.00    +0.031 C 
ENDBRANCH  32  35
ENDBRANCH  22  23
ENDBRANCH   2  22
TORSDOF 7
