REMARK  Name = ZINC05956140
REMARK  15 active torsions:
REMARK  status: ('A' for Active; 'I' for Inactive)
REMARK    1  A    between atoms: C_1  and  C_2
REMARK    2  A    between atoms: C_2  and  O_3
REMARK    3  A    between atoms: O_3  and  C_4
REMARK    4  A    between atoms: C_4  and  C_6
REMARK    5  A    between atoms: C_7  and  C_39
REMARK    6  A    between atoms: N_8  and  C_23
REMARK    7  A    between atoms: C_11  and  C_21
REMARK    8  A    between atoms: C_12  and  C_13
REMARK    9  A    between atoms: C_16  and  O_19
REMARK   10  A    between atoms: O_19  and  C_20
REMARK   11  A    between atoms: C_25  and  O_38
REMARK   12  A    between atoms: C_27  and  O_37
REMARK   13  A    between atoms: C_29  and  O_36
REMARK   14  A    between atoms: C_31  and  C_34
REMARK   15  A    between atoms: C_34  and  O_35
REMARK                            x       y       z     vdW  Elec       q    Type
REMARK                         _______ _______ _______ _____ _____    ______ ____
ROOT
ATOM      1  C   UNL     1      -3.651   1.174  -4.575  0.00  0.00    +0.087 A 
ATOM      2  C   UNL     1      -3.286   0.767  -3.306  0.00  0.00    +0.034 A 
ATOM      3  N   UNL     1      -2.867   1.654  -2.388  0.00  0.00    -0.308 N 
ATOM      4  C   UNL     1      -2.785   2.969  -2.644  0.00  0.00    +0.107 A 
ATOM      5  S   UNL     1      -2.249   4.036  -1.417  0.00  0.00    -0.031 S 
ATOM      6  C   UNL     1      -3.131   3.487  -3.916  0.00  0.00    +0.091 A 
ATOM      7  C   UNL     1      -3.575   2.601  -4.910  0.00  0.00    +0.018 A 
ATOM      8  C   UNL     1      -3.359  -0.695  -2.947  0.00  0.00    +0.064 C 
ENDROOT
BRANCH   7   9
ATOM      9  C   UNL     1      -3.954   3.089  -6.250  0.00  0.00    -0.016 A 
ATOM     10  C   UNL     1      -3.208   2.712  -7.370  0.00  0.00    +0.012 A 
ATOM     11  C   UNL     1      -3.568   3.166  -8.620  0.00  0.00    +0.046 A 
ATOM     12  C   UNL     1      -4.665   4.006  -8.767  0.00  0.00    +0.120 A 
ATOM     13  C   UNL     1      -5.407   4.388  -7.655  0.00  0.00    +0.046 A 
ATOM     14  C   UNL     1      -5.057   3.935  -6.402  0.00  0.00    +0.012 A 
BRANCH  12  15
ATOM     15  O   UNL     1      -5.014   4.455  -9.999  0.00  0.00    -0.495 OA
ATOM     16  C   UNL     1      -4.208   4.024 -11.098  0.00  0.00    +0.277 C 
ENDBRANCH  12  15
ENDBRANCH   7   9
BRANCH   3  17
ATOM     17  C   UNL     1      -2.491   1.169  -1.057  0.00  0.00    +0.252 C 
ATOM     18  C   UNL     1      -3.578   1.551  -0.049  0.00  0.00    +0.195 C 
ATOM     19  C   UNL     1      -3.150   1.093   1.349  0.00  0.00    +0.178 C 
ATOM     20  C   UNL     1      -1.796   1.723   1.688  0.00  0.00    +0.177 C 
ATOM     21  C   UNL     1      -0.778   1.335   0.612  0.00  0.00    +0.177 C 
ATOM     22  O   UNL     1      -1.251   1.762  -0.666  0.00  0.00    -0.346 OA
BRANCH  20  23
ATOM     23  O   UNL     1      -1.927   3.146   1.729  0.00  0.00    -0.386 OA
ATOM     24  H   UNL     1      -2.558   3.463   2.390  0.00  0.00    +0.210 HD
ENDBRANCH  20  23
BRANCH  19  25
ATOM     25  O   UNL     1      -4.125   1.511   2.308  0.00  0.00    -0.386 OA
ATOM     26  H   UNL     1      -3.917   1.254   3.216  0.00  0.00    +0.210 HD
ENDBRANCH  19  25
BRANCH  18  27
ATOM     27  O   UNL     1      -4.806   0.913  -0.406  0.00  0.00    -0.385 OA
ATOM     28  H   UNL     1      -5.541   1.111   0.191  0.00  0.00    +0.210 HD
ENDBRANCH  18  27
BRANCH  21  29
ATOM     29  C   UNL     1       0.563   2.009   0.911  0.00  0.00    +0.190 C 
BRANCH  29  30
ATOM     30  O   UNL     1       1.543   1.556  -0.025  0.00  0.00    -0.392 OA
ATOM     31  H   UNL     1       2.419   1.943   0.105  0.00  0.00    +0.210 HD
ENDBRANCH  29  30
ENDBRANCH  21  29
ENDBRANCH   3  17
BRANCH   1  32
ATOM     32  C   UNL     1      -4.110   0.195  -5.573  0.00  0.00    +0.341 C 
ATOM     33  O   UNL     1      -5.291  -0.080  -5.657  0.00  0.00    -0.245 OA
BRANCH  32  34
ATOM     34  O   UNL     1      -3.219  -0.398  -6.393  0.00  0.00    -0.461 OA
BRANCH  34  36
ATOM     35  C   UNL     1      -2.592  -1.919  -8.189  0.00  0.00    +0.048 C 
ATOM     36  C   UNL     1      -3.742  -1.354  -7.352  0.00  0.00    +0.229 C 
ENDBRANCH  34  36
ENDBRANCH  32  34
ENDBRANCH   1  32
BRANCH   6  37
ATOM     37  C   UNL     1      -3.036   4.891  -4.181  0.00  0.00    +0.102 C 
ATOM     38  N   UNL     1      -2.960   6.005  -4.392  0.00  0.00    -0.191 NA
ENDBRANCH   6  37
TORSDOF 12
