REMARK  Name = ZINC12531531
REMARK  15 active torsions:
REMARK  status: ('A' for Active; 'I' for Inactive)
REMARK    1  A    between atoms: C_1  and  C_2
REMARK    2  A    between atoms: C_2  and  O_34
REMARK    3  A    between atoms: C_5  and  C_24
REMARK    4  A    between atoms: C_9  and  C_22
REMARK    5  A    between atoms: C_9  and  C_23
REMARK    6  A    between atoms: C_11  and  N_13
REMARK    7  A    between atoms: C_14  and  C_16
REMARK    8  A    between atoms: C_16  and  C_17
REMARK    9  A    between atoms: C_24  and  C_25
REMARK   10  A    between atoms: C_25  and  C_26
REMARK   11  A    between atoms: N_28  and  C_29
REMARK   12  A    between atoms: C_29  and  C_30
REMARK   13  A    between atoms: C_30  and  N_31
REMARK   14  A    between atoms: N_31  and  C_32
REMARK   15  A    between atoms: N_31  and  C_33
REMARK                            x       y       z     vdW  Elec       q    Type
REMARK                         _______ _______ _______ _____ _____    ______ ____
ROOT
ATOM      1  C   UNL     1       0.247   1.705  -0.138  0.00  0.00    +0.041 C 
ATOM      2  C   UNL     1       0.257   0.178  -0.227  0.00  0.00    +0.064 C 
ATOM      3  C   UNL     1      -1.182  -0.348  -0.198  0.00  0.00    +0.035 C 
ATOM      4  C   UNL     1      -1.143  -1.867  -0.365  0.00  0.00    +0.012 C 
ATOM      5  C   UNL     1      -0.338  -2.521   0.734  0.00  0.00    -0.007 C 
ATOM      6  C   UNL     1       1.075  -1.927   0.882  0.00  0.00    +0.005 C 
ATOM      7  C   UNL     1       1.012  -0.400   0.968  0.00  0.00    +0.039 C 
ATOM      8  C   UNL     1       1.482  -2.435   2.297  0.00  0.00    -0.030 C 
ATOM      9  C   UNL     1       0.184  -2.308   3.124  0.00  0.00    +0.029 C 
ATOM     10  C   UNL     1      -0.983  -2.357   2.116  0.00  0.00    +0.080 C 
ATOM     11  C   UNL     1       1.937  -3.895   2.233  0.00  0.00    +0.011 C 
ATOM     12  C   UNL     1       2.584  -1.553   2.888  0.00  0.00    +0.011 C 
ENDROOT
BRANCH  10  13
ATOM     13  N   UNL     1      -1.852  -3.499   2.406  0.00  0.00    -0.312 N 
ATOM     14  C   UNL     1      -2.954  -3.332   3.165  0.00  0.00    +0.218 C 
ATOM     15  O   UNL     1      -3.225  -2.236   3.607  0.00  0.00    -0.275 OA
ATOM     16  H   UNL     1      -1.636  -4.376   2.053  0.00  0.00    +0.149 HD
BRANCH  14  17
ATOM     17  C   UNL     1      -3.849  -4.508   3.463  0.00  0.00    +0.138 C 
BRANCH  17  18
ATOM     18  C   UNL     1      -5.001  -4.056   4.324  0.00  0.00    -0.001 A 
ATOM     19  C   UNL     1      -6.219  -3.596   3.946  0.00  0.00    +0.011 A 
ATOM     20  C   UNL     1      -7.130  -3.236   4.921  0.00  0.00    +0.008 A 
ATOM     21  C   UNL     1      -6.779  -3.353   6.225  0.00  0.00    +0.045 A 
ATOM     22  S   UNL     1      -5.118  -3.996   6.104  0.00  0.00    -0.101 S 
ENDBRANCH  17  18
ENDBRANCH  14  17
ENDBRANCH  10  13
BRANCH   2  23
ATOM     23  O   UNL     1       0.895  -0.228  -1.439  0.00  0.00    -0.389 OA
ATOM     24  H   UNL     1       0.464   0.100  -2.240  0.00  0.00    +0.210 HD
ENDBRANCH   2  23
BRANCH   5  25
ATOM     25  C   UNL     1      -0.196  -4.013   0.427  0.00  0.00    +0.018 C 
BRANCH  25  26
ATOM     26  C   UNL     1       0.653  -4.196  -0.834  0.00  0.00    +0.096 C 
BRANCH  26  27
ATOM     27  C   UNL     1       0.908  -5.664  -1.058  0.00  0.00    +0.213 C 
ATOM     28  O   UNL     1       0.457  -6.483  -0.287  0.00  0.00    -0.276 OA
ATOM     29  N   UNL     1       1.639  -6.066  -2.117  0.00  0.00    -0.317 N 
ATOM     30  H   UNL     1       2.000  -5.411  -2.734  0.00  0.00    +0.149 HD
BRANCH  29  31
ATOM     31  C   UNL     1       1.887  -7.493  -2.336  0.00  0.00    +0.085 C 
BRANCH  31  32
ATOM     32  C   UNL     1       2.736  -7.676  -3.596  0.00  0.00    -0.061 C 
BRANCH  32  33
ATOM     33  N   UNL     1       2.985  -9.107  -3.815  0.00  0.00    +0.377 N 
ATOM     34  C   UNL     1       3.696  -9.291  -5.087  0.00  0.00    -0.097 C 
ATOM     35  C   UNL     1       3.804  -9.635  -2.715  0.00  0.00    -0.097 C 
ATOM     36  H   UNL     1       2.106  -9.601  -3.847  0.00  0.00    -0.083 HD
ENDBRANCH  32  33
ENDBRANCH  31  32
ENDBRANCH  29  31
ENDBRANCH  26  27
ENDBRANCH  25  26
ENDBRANCH   5  25
TORSDOF 10
