REMARK  Name = ZINC20357738
REMARK  10 active torsions:
REMARK  status: ('A' for Active; 'I' for Inactive)
REMARK    1  A    between atoms: C_1  and  C_2
REMARK    2  A    between atoms: C_2  and  N_3
REMARK    3  A    between atoms: C_13  and  C_25
REMARK    4  A    between atoms: N_17  and  C_18
REMARK    5  A    between atoms: C_18  and  C_19
REMARK    6  A    between atoms: C_19  and  C_20
REMARK    7  A    between atoms: C_20  and  N_21
REMARK    8  A    between atoms: N_21  and  C_22
REMARK    9  A    between atoms: N_21  and  C_23
REMARK   10  A    between atoms: C_25  and  C_27
REMARK                            x       y       z     vdW  Elec       q    Type
REMARK                         _______ _______ _______ _____ _____    ______ ____
ROOT
ATOM      1  N   UNL     1      -3.401   3.751  -0.476  0.00  0.00    -0.269 N 
ATOM      2  C   UNL     1      -3.483   3.787   0.917  0.00  0.00    +0.042 A 
ATOM      3  C   UNL     1      -3.894   2.818   1.830  0.00  0.00    +0.024 A 
ATOM      4  C   UNL     1      -3.886   3.092   3.182  0.00  0.00    +0.002 A 
ATOM      5  C   UNL     1      -3.470   4.328   3.642  0.00  0.00    +0.000 A 
ATOM      6  C   UNL     1      -3.060   5.295   2.742  0.00  0.00    +0.008 A 
ATOM      7  C   UNL     1      -3.067   5.026   1.391  0.00  0.00    +0.011 A 
ATOM      8  C   UNL     1      -2.694   5.832   0.176  0.00  0.00    +0.174 C 
ATOM      9  C   UNL     1      -2.947   4.910  -0.989  0.00  0.00    +0.253 C 
ATOM     10  O   UNL     1      -2.775   5.164  -2.162  0.00  0.00    -0.272 OA
ATOM     11  C   UNL     1      -1.254   6.263   0.227  0.00  0.00    +0.089 C 
ATOM     12  C   UNL     1      -1.255   7.617   0.165  0.00  0.00    +0.250 C 
ATOM     13  C   UNL     1      -2.651   8.096   0.066  0.00  0.00    +0.288 C 
ATOM     14  O   UNL     1      -2.984   9.262  -0.008  0.00  0.00    -0.266 OA
ATOM     15  N   UNL     1      -3.498   7.048   0.076  0.00  0.00    -0.273 N 
ATOM     16  O   UNL     1      -0.155   8.405   0.189  0.00  0.00    -0.282 OA
ENDROOT
BRANCH   1  18
ATOM     17  C   UNL     1      -5.260   2.638  -1.610  0.00  0.00    +0.025 C 
ATOM     18  C   UNL     1      -3.766   2.587  -1.287  0.00  0.00    +0.110 C 
ENDBRANCH   1  18
BRANCH  11  19
ATOM     19  C   UNL     1      -0.080   5.390   0.328  0.00  0.00    +0.196 C 
ATOM     20  O   UNL     1       0.193   4.858   1.388  0.00  0.00    -0.287 OA
BRANCH  19  21
ATOM     21  C   UNL     1       0.771   5.157  -0.855  0.00  0.00    +0.026 A 
ATOM     22  C   UNL     1       0.525   5.851  -2.044  0.00  0.00    +0.015 A 
ATOM     23  C   UNL     1       1.316   5.627  -3.148  0.00  0.00    +0.050 A 
ATOM     24  C   UNL     1       2.368   4.719  -3.083  0.00  0.00    +0.162 A 
ATOM     25  C   UNL     1       2.620   4.026  -1.901  0.00  0.00    +0.163 A 
ATOM     26  C   UNL     1       1.826   4.242  -0.791  0.00  0.00    +0.061 A 
ATOM     27  O   UNL     1       3.646   3.134  -1.823  0.00  0.00    -0.485 OA
ATOM     28  C   UNL     1       4.189   2.667  -3.062  0.00  0.00    +0.270 C 
ATOM     29  C   UNL     1       4.404   3.879  -3.979  0.00  0.00    +0.270 C 
ATOM     30  O   UNL     1       3.138   4.515  -4.186  0.00  0.00    -0.485 OA
ENDBRANCH  19  21
ENDBRANCH  11  19
BRANCH  15  31
ATOM     31  C   UNL     1      -4.959   7.116  -0.002  0.00  0.00    +0.108 C 
BRANCH  31  32
ATOM     32  C   UNL     1      -5.541   7.210   1.411  0.00  0.00    +0.000 C 
BRANCH  32  33
ATOM     33  C   UNL     1      -7.067   7.281   1.330  0.00  0.00    -0.078 C 
BRANCH  33  34
ATOM     34  N   UNL     1      -7.625   7.372   2.686  0.00  0.00    +0.376 N 
ATOM     35  C   UNL     1      -9.061   7.679   2.644  0.00  0.00    -0.097 C 
ATOM     36  C   UNL     1      -7.372   6.139   3.443  0.00  0.00    -0.097 C 
ATOM     37  H   UNL     1      -7.118   8.198   3.205  0.00  0.00    -0.083 HD
ENDBRANCH  33  34
ENDBRANCH  32  33
ENDBRANCH  31  32
ENDBRANCH  15  31
TORSDOF 7
