REMARK  Name = ZINC40779977
REMARK  7 active torsions:
REMARK  status: ('A' for Active; 'I' for Inactive)
REMARK    1  A    between atoms: C_1  and  N_2
REMARK    2  A    between atoms: N_2  and  C_3
REMARK    3  A    between atoms: C_8  and  C_9
REMARK    4  A    between atoms: C_9  and  O_11
REMARK    5  A    between atoms: O_11  and  C_12
REMARK    6  A    between atoms: C_14  and  N_27
REMARK    7  A    between atoms: C_15  and  N_19
REMARK                            x       y       z     vdW  Elec       q    Type
REMARK                         _______ _______ _______ _____ _____    ______ ____
ROOT
ATOM      1  C   UNL     1       1.062   0.398   0.633  0.00  0.00    +0.137 C 
ATOM      2  N   UNL     1      -0.221  -0.069   0.101  0.00  0.00    -0.287 N 
ATOM      3  C   UNL     1      -0.272  -0.704  -1.135  0.00  0.00    +0.129 A 
ATOM      4  C   UNL     1      -0.317   0.042  -2.315  0.00  0.00    +0.104 A 
ATOM      5  C   UNL     1      -0.367  -0.646  -3.528  0.00  0.00    +0.150 A 
ATOM      6  N   UNL     1      -0.369  -1.977  -3.515  0.00  0.00    -0.221 NA
ATOM      7  C   UNL     1      -0.326  -2.643  -2.379  0.00  0.00    +0.200 A 
ATOM      8  N   UNL     1      -0.272  -2.032  -1.213  0.00  0.00    -0.333 N 
ATOM      9  H   UNL     1      -0.237  -2.559  -0.399  0.00  0.00    +0.168 HD
ENDROOT
BRANCH   5  10
ATOM     10  N   UNL     1      -0.413   0.049  -4.733  0.00  0.00    -0.283 N 
ATOM     11  C   UNL     1      -0.582  -0.643  -5.929  0.00  0.00    +0.124 A 
ATOM     12  C   UNL     1      -0.510   0.043  -7.137  0.00  0.00    +0.045 A 
ATOM     13  C   UNL     1      -0.679  -0.656  -8.318  0.00  0.00    +0.020 A 
ATOM     14  C   UNL     1      -0.914  -2.024  -8.251  0.00  0.00    +0.036 A 
ATOM     15  C   UNL     1      -0.972  -2.640  -7.017  0.00  0.00    +0.128 A 
ATOM     16  N   UNL     1      -0.803  -1.948  -5.906  0.00  0.00    -0.239 NA
ATOM     17 BR   UNL     1      -1.153  -3.031  -9.834  0.00  0.00    -0.049 Br
ATOM     18  H   UNL     1      -0.329   1.015  -4.739  0.00  0.00    +0.155 HD
ENDBRANCH   5  10
BRANCH   2  19
ATOM     19  C   UNL     1      -1.387   0.123   0.832  0.00  0.00    +0.049 A 
ATOM     20  C   UNL     1      -2.230   1.187   0.535  0.00  0.00    +0.024 A 
ATOM     21  C   UNL     1      -3.387   1.376   1.262  0.00  0.00    +0.002 A 
ATOM     22  C   UNL     1      -3.718   0.509   2.292  0.00  0.00    +0.001 A 
ATOM     23  C   UNL     1      -2.896  -0.551   2.602  0.00  0.00    +0.017 A 
ATOM     24  C   UNL     1      -1.723  -0.760   1.870  0.00  0.00    +0.080 A 
BRANCH  24  25
ATOM     25  C   UNL     1      -0.841  -1.895   2.192  0.00  0.00    +0.341 C 
ATOM     26  O   UNL     1       0.163  -2.090   1.535  0.00  0.00    -0.245 OA
BRANCH  25  27
ATOM     27  O   UNL     1      -1.147  -2.717   3.215  0.00  0.00    -0.464 OA
ATOM     28  C   UNL     1      -0.247  -3.798   3.471  0.00  0.00    +0.280 C 
ENDBRANCH  25  27
ENDBRANCH  24  25
ENDBRANCH   2  19
BRANCH   4  29
ATOM     29  N   UNL     1      -0.312   1.445  -2.281  0.00  0.00    -0.353 N 
ATOM     30  H   UNL     1      -0.200   1.910  -1.437  0.00  0.00    +0.143 HD
ATOM     31  H   UNL     1      -0.422   1.951  -3.102  0.00  0.00    +0.143 HD
ENDBRANCH   4  29
TORSDOF 5
