REMARK  Name = ZINC44714673
REMARK  9 active torsions:
REMARK  status: ('A' for Active; 'I' for Inactive)
REMARK    1  A    between atoms: C_1  and  C_2
REMARK    2  A    between atoms: C_6  and  C_8
REMARK    3  A    between atoms: C_8  and  C_9
REMARK    4  A    between atoms: C_13  and  C_22
REMARK    5  A    between atoms: N_24  and  C_25
REMARK    6  A    between atoms: C_25  and  C_26
REMARK    7  A    between atoms: C_26  and  C_27
REMARK    8  A    between atoms: C_28  and  C_39
REMARK    9  A    between atoms: C_34  and  C_37
REMARK                            x       y       z     vdW  Elec       q    Type
REMARK                         _______ _______ _______ _____ _____    ______ ____
ROOT
ATOM      1  C   UNL     1       1.640  -3.057   2.948  0.00  0.00    +0.220 C 
ATOM      2  O   UNL     1       2.572  -2.707   2.256  0.00  0.00    -0.275 OA
ATOM      3  N   UNL     1       1.865  -3.756   4.078  0.00  0.00    -0.300 N 
ATOM      4  C   UNL     1       0.864  -4.273   5.041  0.00  0.00    +0.121 C 
ATOM      5  C   UNL     1       1.397  -5.665   5.449  0.00  0.00    +0.100 C 
ATOM      6  C   UNL     1       2.911  -5.598   5.185  0.00  0.00    -0.004 C 
ATOM      7  C   UNL     1       3.169  -4.188   4.636  0.00  0.00    +0.115 C 
ATOM      8  C   UNL     1       3.313  -6.643   4.149  0.00  0.00    -0.010 C 
ATOM      9  C   UNL     1       4.830  -6.596   3.945  0.00  0.00    -0.082 C 
ATOM     10  N   UNL     1       5.505  -6.858   5.222  0.00  0.00    +0.379 N 
ATOM     11  C   UNL     1       5.186  -5.797   6.184  0.00  0.00    -0.082 C 
ATOM     12  C   UNL     1       3.684  -5.811   6.483  0.00  0.00    -0.010 C 
ATOM     13  H   UNL     1       5.196  -7.747   5.588  0.00  0.00    -0.086 HD
ATOM     14  H   UNL     1       6.503  -6.887   5.073  0.00  0.00    -0.086 HD
ENDROOT
BRANCH   5  15
ATOM     15  C   UNL     1       1.128  -5.922   6.910  0.00  0.00    +0.218 C 
ATOM     16  O   UNL     1       1.099  -4.996   7.693  0.00  0.00    -0.275 OA
ATOM     17  N   UNL     1       0.920  -7.180   7.345  0.00  0.00    -0.315 N 
ATOM     18  H   UNL     1       0.943  -7.920   6.719  0.00  0.00    +0.149 HD
BRANCH  17  19
ATOM     19  C   UNL     1       0.658  -7.430   8.765  0.00  0.00    +0.109 C 
BRANCH  19  20
ATOM     20  C   UNL     1       0.458  -8.930   8.990  0.00  0.00    +0.056 C 
BRANCH  20  21
ATOM     21  C   UNL     1       0.189  -9.187  10.450  0.00  0.00    -0.018 A 
ATOM     22  C   UNL     1       1.105  -9.433  11.400  0.00  0.00    +0.017 A 
ATOM     23  N   UNL     1       0.487  -9.616  12.608  0.00  0.00    -0.358 N 
ATOM     24  H   UNL     1       0.943  -9.806  13.443  0.00  0.00    +0.166 HD
ATOM     25  C   UNL     1      -0.874  -9.491  12.463  0.00  0.00    +0.047 A 
ATOM     26  C   UNL     1      -1.122  -9.211  11.105  0.00  0.00    +0.004 A 
ATOM     27  C   UNL     1      -2.429  -9.027  10.659  0.00  0.00    +0.029 A 
ATOM     28  C   UNL     1      -3.480  -9.119  11.568  0.00  0.00    +0.052 A 
ATOM     29  C   UNL     1      -3.219  -9.395  12.917  0.00  0.00    +0.021 A 
ATOM     30  C   UNL     1      -1.941  -9.582  13.354  0.00  0.00    +0.027 A 
ATOM     31  C   UNL     1       2.593  -9.497  11.171  0.00  0.00    +0.063 C 
BRANCH  28  32
ATOM     32  C   UNL     1      -4.828  -8.931  11.123  0.00  0.00    +0.099 C 
ATOM     33  N   UNL     1      -5.898  -8.783  10.770  0.00  0.00    -0.191 NA
ENDBRANCH  28  32
ENDBRANCH  20  21
ENDBRANCH  19  20
ENDBRANCH  17  19
ENDBRANCH   5  15
BRANCH   1  34
ATOM     34  C   UNL     1       0.230  -2.711   2.544  0.00  0.00    +0.131 C 
BRANCH  34  40
ATOM     35  C   UNL     1       0.450   1.664   0.125  0.00  0.00    +0.044 C 
ATOM     36  C   UNL     1       0.358   0.160   0.097  0.00  0.00    -0.050 A 
ATOM     37  C   UNL     1       0.296  -0.506  -1.113  0.00  0.00    +0.003 A 
ATOM     38  C   UNL     1       0.212  -1.885  -1.139  0.00  0.00    +0.001 A 
ATOM     39  C   UNL     1       0.191  -2.599   0.044  0.00  0.00    +0.004 A 
ATOM     40  C   UNL     1       0.254  -1.933   1.254  0.00  0.00    -0.038 A 
ATOM     41  C   UNL     1       0.342  -0.553   1.280  0.00  0.00    +0.007 A 
ENDBRANCH  34  40
ENDBRANCH   1  34
TORSDOF 7
