REMARK  Name = ZINC39674841
REMARK  10 active torsions:
REMARK  status: ('A' for Active; 'I' for Inactive)
REMARK    1  A    between atoms: C_1  and  C_2
REMARK    2  A    between atoms: C_2  and  O_3
REMARK    3  A    between atoms: O_3  and  C_4
REMARK    4  A    between atoms: C_8  and  C_10
REMARK    5  A    between atoms: C_14  and  C_23
REMARK    6  A    between atoms: N_25  and  C_26
REMARK    7  A    between atoms: C_26  and  C_27
REMARK    8  A    between atoms: C_27  and  C_28
REMARK    9  A    between atoms: C_31  and  C_39
REMARK   10  A    between atoms: C_36  and  C_38
REMARK                            x       y       z     vdW  Elec       q    Type
REMARK                         _______ _______ _______ _____ _____    ______ ____
ROOT
ATOM      1  C   UNL     1       2.264  -4.303   3.734  0.00  0.00    +0.247 C 
ATOM      2  O   UNL     1       2.836  -3.572   4.518  0.00  0.00    -0.270 OA
ATOM      3  N   UNL     1       2.278  -5.638   3.923  0.00  0.00    -0.296 N 
ATOM      4  C   UNL     1       1.755  -6.689   3.020  0.00  0.00    +0.121 C 
ATOM      5  C   UNL     1       2.792  -7.831   3.107  0.00  0.00    +0.100 C 
ATOM      6  C   UNL     1       3.487  -7.627   4.464  0.00  0.00    -0.004 C 
ATOM      7  C   UNL     1       2.826  -6.385   5.080  0.00  0.00    +0.115 C 
ATOM      8  C   UNL     1       4.979  -7.377   4.261  0.00  0.00    -0.010 C 
ATOM      9  C   UNL     1       5.657  -7.234   5.627  0.00  0.00    -0.082 C 
ATOM     10  N   UNL     1       5.447  -8.458   6.410  0.00  0.00    +0.379 N 
ATOM     11  C   UNL     1       4.016  -8.640   6.679  0.00  0.00    -0.082 C 
ATOM     12  C   UNL     1       3.268  -8.842   5.359  0.00  0.00    -0.010 C 
ATOM     13  H   UNL     1       5.794  -9.251   5.892  0.00  0.00    -0.086 HD
ATOM     14  H   UNL     1       5.946  -8.385   7.284  0.00  0.00    -0.086 HD
ENDROOT
BRANCH   1  19
ATOM     15  C   UNL     1      -0.156  -3.889   0.886  0.00  0.00    +0.121 A 
ATOM     16  C   UNL     1       0.223  -2.648   0.392  0.00  0.00    +0.046 A 
ATOM     17  C   UNL     1       1.259  -1.950   0.983  0.00  0.00    +0.004 A 
ATOM     18  C   UNL     1       1.925  -2.482   2.068  0.00  0.00    +0.013 A 
ATOM     19  C   UNL     1       1.552  -3.729   2.572  0.00  0.00    +0.040 A 
ATOM     20  C   UNL     1       0.502  -4.430   1.978  0.00  0.00    +0.058 A 
BRANCH  15  21
ATOM     21  O   UNL     1      -1.175  -4.571   0.301  0.00  0.00    -0.492 OA
BRANCH  21  23
ATOM     22  C   UNL     1      -2.924  -4.864  -1.341  0.00  0.00    +0.048 C 
ATOM     23  C   UNL     1      -1.809  -3.954  -0.821  0.00  0.00    +0.225 C 
ENDBRANCH  21  23
ENDBRANCH  15  21
ENDBRANCH   1  19
BRANCH   5  24
ATOM     24  C   UNL     1       3.790  -7.721   1.982  0.00  0.00    +0.218 C 
ATOM     25  O   UNL     1       4.136  -6.629   1.584  0.00  0.00    -0.275 OA
ATOM     26  N   UNL     1       4.297  -8.835   1.420  0.00  0.00    -0.315 N 
ATOM     27  H   UNL     1       4.020  -9.709   1.738  0.00  0.00    +0.149 HD
BRANCH  26  28
ATOM     28  C   UNL     1       5.266  -8.728   0.326  0.00  0.00    +0.108 C 
BRANCH  28  29
ATOM     29  C   UNL     1       5.679 -10.129  -0.128  0.00  0.00    +0.052 C 
BRANCH  29  30
ATOM     30  C   UNL     1       6.676 -10.019  -1.253  0.00  0.00    -0.037 C 
ATOM     31  C   UNL     1       7.164  -8.878  -1.802  0.00  0.00    +0.000 A 
ATOM     32  C   UNL     1       6.914  -7.509  -1.521  0.00  0.00    +0.028 A 
ATOM     33  C   UNL     1       7.553  -6.528  -2.243  0.00  0.00    +0.052 A 
ATOM     34  C   UNL     1       8.494  -6.862  -3.306  0.00  0.00    +0.021 A 
ATOM     35  C   UNL     1       8.771  -8.145  -3.617  0.00  0.00    +0.027 A 
ATOM     36  C   UNL     1       8.117  -9.230  -2.878  0.00  0.00    +0.043 A 
ATOM     37  N   UNL     1       8.216 -10.532  -2.990  0.00  0.00    -0.378 N 
ATOM     38  C   UNL     1       7.341 -11.157  -1.993  0.00  0.00    +0.103 C 
ATOM     39  C   UNL     1       6.287 -12.021  -2.689  0.00  0.00    +0.035 C 
ATOM     40  H   UNL     1       8.778 -11.004  -3.624  0.00  0.00    +0.160 HD
BRANCH  33  41
ATOM     41  C   UNL     1       7.288  -5.152  -1.946  0.00  0.00    +0.099 C 
ATOM     42  N   UNL     1       7.078  -4.061  -1.710  0.00  0.00    -0.191 NA
ENDBRANCH  33  41
ENDBRANCH  29  30
ENDBRANCH  28  29
ENDBRANCH  26  28
ENDBRANCH   5  24
TORSDOF 8
