REMARK  Name = ZINC64417492
REMARK  8 active torsions:
REMARK  status: ('A' for Active; 'I' for Inactive)
REMARK    1  A    between atoms: C_1  and  C_2
REMARK    2  A    between atoms: C_7  and  C_13
REMARK    3  A    between atoms: C_13  and  C_14
REMARK    4  A    between atoms: N_16  and  C_17
REMARK    5  A    between atoms: C_17  and  C_18
REMARK    6  A    between atoms: C_18  and  C_19
REMARK    7  A    between atoms: C_22  and  O_28
REMARK    8  A    between atoms: O_28  and  C_29
REMARK                            x       y       z     vdW  Elec       q    Type
REMARK                         _______ _______ _______ _____ _____    ______ ____
ROOT
ATOM      1  C   UNL     1      -4.501   5.183  -5.327  0.00  0.00    +0.220 C 
ATOM      2  O   UNL     1      -4.584   3.991  -5.535  0.00  0.00    -0.275 OA
ATOM      3  N   UNL     1      -5.346   6.034  -5.942  0.00  0.00    -0.315 N 
ATOM      4  H   UNL     1      -5.280   6.987  -5.776  0.00  0.00    +0.149 HD
ENDROOT
BRANCH   1   5
ATOM      5  C   UNL     1      -3.455   5.712  -4.381  0.00  0.00    +0.168 C 
BRANCH   5  11
ATOM      6  C   UNL     1      -0.013   1.086   0.008  0.00  0.00    +0.060 C 
ATOM      7  C   UNL     1      -0.742   1.585  -1.213  0.00  0.00    +0.008 C 
ATOM      8  N   UNL     1      -0.878   2.941  -1.417  0.00  0.00    -0.313 N 
ATOM      9  C   UNL     1      -0.980   3.392  -2.811  0.00  0.00    +0.276 C 
ATOM     10  N   UNL     1      -1.603   4.712  -2.932  0.00  0.00    -0.296 N 
ATOM     11  C   UNL     1      -2.647   4.565  -3.832  0.00  0.00    +0.125 C 
ATOM     12  N   UNL     1      -2.846   3.328  -4.143  0.00  0.00    -0.163 NA
ATOM     13  N   UNL     1      -1.954   2.484  -3.461  0.00  0.00    -0.150 N 
ATOM     14  C   UNL     1      -1.951   1.156  -3.248  0.00  0.00    +0.263 C 
ATOM     15  C   UNL     1      -1.248   0.699  -2.096  0.00  0.00    +0.087 C 
ATOM     16  O   UNL     1      -2.515   0.384  -4.002  0.00  0.00    -0.269 OA
ATOM     17  H   UNL     1      -1.339   5.525  -2.474  0.00  0.00    +0.151 HD
ATOM     18  H   UNL     1      -0.906   3.567  -0.677  0.00  0.00    +0.149 HD
ENDBRANCH   5  11
ENDBRANCH   1   5
BRANCH   3  19
ATOM     19  C   UNL     1      -6.364   5.519  -6.862  0.00  0.00    +0.108 C 
BRANCH  19  20
ATOM     20  C   UNL     1      -7.183   6.685  -7.420  0.00  0.00    +0.052 C 
BRANCH  20  21
ATOM     21  C   UNL     1      -8.230   6.155  -8.366  0.00  0.00    -0.040 C 
ATOM     22  C   UNL     1      -9.519   5.867  -8.074  0.00  0.00    +0.002 A 
ATOM     23  C   UNL     1     -10.303   5.956  -6.837  0.00  0.00    +0.055 A 
ATOM     24  C   UNL     1     -11.607   5.588  -6.846  0.00  0.00    +0.121 A 
ATOM     25  C   UNL     1     -12.246   5.119  -8.007  0.00  0.00    +0.047 A 
ATOM     26  C   UNL     1     -11.608   5.002  -9.191  0.00  0.00    +0.029 A 
ATOM     27  C   UNL     1     -10.194   5.373  -9.296  0.00  0.00    +0.043 A 
ATOM     28  N   UNL     1      -9.356   5.356 -10.303  0.00  0.00    -0.380 N 
ATOM     29  C   UNL     1      -8.053   5.844  -9.835  0.00  0.00    +0.144 C 
ATOM     30  H   UNL     1      -9.562   5.072 -11.207  0.00  0.00    +0.160 HD
BRANCH  24  31
ATOM     31  O   UNL     1     -12.321   5.675  -5.693  0.00  0.00    -0.495 OA
ATOM     32  C   UNL     1     -13.692   5.277  -5.748  0.00  0.00    +0.277 C 
ENDBRANCH  24  31
ENDBRANCH  20  21
ENDBRANCH  19  20
ENDBRANCH   3  19
TORSDOF 6
