REMARK  Name = ZINC63850304
REMARK  6 active torsions:
REMARK  status: ('A' for Active; 'I' for Inactive)
REMARK    1  A    between atoms: C_7  and  C_10
REMARK    2  A    between atoms: C_10  and  C_12
REMARK    3  A    between atoms: C_10  and  C_29
REMARK    4  A    between atoms: C_12  and  N_13
REMARK    5  A    between atoms: C_14  and  C_16
REMARK    6  A    between atoms: C_19  and  N_23
REMARK                            x       y       z     vdW  Elec       q    Type
REMARK                         _______ _______ _______ _____ _____    ______ ____
ROOT
ATOM      1  C   UNL     1       0.467  -2.955   0.229  0.00  0.00    +0.066 C 
ENDROOT
BRANCH   1   8
ATOM      2  C   UNL     1      -0.868   1.434   0.130  0.00  0.00    +0.001 A 
ATOM      3  C   UNL     1       0.184   2.346   0.295  0.00  0.00    +0.002 A 
ATOM      4  C   UNL     1       1.465   1.957   0.467  0.00  0.00    +0.026 A 
ATOM      5  C   UNL     1       1.801   0.575   0.486  0.00  0.00    +0.043 A 
ATOM      6  N   UNL     1       2.947  -0.043   0.634  0.00  0.00    -0.380 N 
ATOM      7  C   UNL     1       2.711  -1.490   0.572  0.00  0.00    +0.145 C 
ATOM      8  C   UNL     1       1.223  -1.658   0.361  0.00  0.00    -0.033 C 
ATOM      9  C   UNL     1       0.707  -0.408   0.314  0.00  0.00    -0.000 A 
ATOM     10  C   UNL     1      -0.659   0.098   0.133  0.00  0.00    +0.010 A 
ATOM     11  H   UNL     1       3.809   0.385   0.762  0.00  0.00    +0.160 HD
ENDBRANCH   1   8
BRANCH   1  12
ATOM     12  C   UNL     1       0.992  -3.724  -0.956  0.00  0.00    -0.020 A 
ATOM     13  C   UNL     1       2.319  -4.110  -0.997  0.00  0.00    +0.006 A 
ATOM     14  C   UNL     1       2.801  -4.815  -2.084  0.00  0.00    +0.000 A 
ATOM     15  C   UNL     1       1.956  -5.135  -3.131  0.00  0.00    +0.001 A 
ATOM     16  C   UNL     1       0.630  -4.749  -3.091  0.00  0.00    +0.020 A 
ATOM     17  C   UNL     1       0.145  -4.048  -2.001  0.00  0.00    +0.045 A 
ATOM     18 CL   UNL     1      -1.522  -3.569  -1.948  0.00  0.00    -0.083 Cl
ENDBRANCH   1  12
BRANCH   1  19
ATOM     19  C   UNL     1       0.654  -3.786   1.500  0.00  0.00    +0.117 C 
BRANCH  19  20
ATOM     20  N   UNL     1      -0.175  -4.991   1.421  0.00  0.00    -0.311 N 
ATOM     21  C   UNL     1      -0.171  -5.879   2.436  0.00  0.00    +0.238 C 
ATOM     22  O   UNL     1       0.522  -5.678   3.417  0.00  0.00    -0.271 OA
ATOM     23  H   UNL     1      -0.726  -5.151   0.639  0.00  0.00    +0.149 HD
BRANCH  21  24
ATOM     24  C   UNL     1      -0.971  -7.042   2.360  0.00  0.00    +0.086 C 
ATOM     25  C   UNL     1      -0.880  -7.987   3.319  0.00  0.00    +0.021 C 
ATOM     26  N   UNL     1       0.047  -7.914   4.297  0.00  0.00    -0.320 N 
ATOM     27  C   UNL     1      -0.247  -8.638   5.553  0.00  0.00    +0.222 C 
ATOM     28  S   UNL     1      -1.289 -10.017   4.906  0.00  0.00    -0.113 S 
ATOM     29  C   UNL     1      -1.822  -9.180   3.353  0.00  0.00    +0.123 C 
ATOM     30  H   UNL     1       0.868  -7.411   4.181  0.00  0.00    +0.148 HD
BRANCH  27  31
ATOM     31  N   UNL     1      -1.000  -7.797   6.487  0.00  0.00    -0.274 N 
ATOM     32  C   UNL     1      -1.168  -8.090   7.915  0.00  0.00    +0.111 C 
ATOM     33  C   UNL     1      -1.627  -6.762   8.557  0.00  0.00    +0.028 C 
ATOM     34  C   UNL     1      -2.291  -6.045   7.358  0.00  0.00    +0.097 C 
ATOM     35  C   UNL     1      -1.621  -6.654   6.146  0.00  0.00    +0.218 C 
ATOM     36  O   UNL     1      -1.642  -6.181   5.030  0.00  0.00    -0.276 OA
ENDBRANCH  27  31
ENDBRANCH  21  24
ENDBRANCH  19  20
ENDBRANCH   1  19
TORSDOF 6
