REMARK  Name = ZINC32674467
REMARK  4 active torsions:
REMARK  status: ('A' for Active; 'I' for Inactive)
REMARK    1  A    between atoms: N_5  and  C_9
REMARK    2  A    between atoms: C_9  and  C_10
REMARK    3  A    between atoms: C_10  and  C_11
REMARK    4  A    between atoms: N_13  and  C_14
REMARK                            x       y       z     vdW  Elec       q    Type
REMARK                         _______ _______ _______ _____ _____    ______ ____
ROOT
ATOM      1  C   UNL     1      -5.103   1.358   1.069  0.00  0.00    +0.215 C 
ATOM      2  O   UNL     1      -4.707   2.056   1.979  0.00  0.00    -0.276 OA
ATOM      3  N   UNL     1      -4.279   1.049   0.049  0.00  0.00    -0.310 N 
ATOM      4  H   UNL     1      -4.638   0.417  -0.776  0.00  0.00    +0.149 HD
ENDROOT
BRANCH   3   5
ATOM      5  C   UNL     1      -2.904   1.556   0.038  0.00  0.00    +0.035 C 
ATOM      6  C   UNL     1      -2.188   1.063  -1.221  0.00  0.00    +0.029 C 
ATOM      7  C   UNL     1      -0.753   1.593  -1.232  0.00  0.00    -0.008 C 
ATOM      8  C   UNL     1      -0.013   1.086   0.008  0.00  0.00    +0.007 C 
ATOM      9  C   UNL     1      -0.729   1.579   1.267  0.00  0.00    -0.008 C 
ATOM     10  C   UNL     1      -2.164   1.050   1.278  0.00  0.00    +0.029 C 
ATOM     11  C   UNL     1      -0.750   3.109   1.275  0.00  0.00    +0.007 C 
ATOM     12  C   UNL     1      -1.490   3.616   0.036  0.00  0.00    -0.008 C 
ATOM     13  C   UNL     1      -0.773   3.123  -1.223  0.00  0.00    +0.007 C 
ATOM     14  C   UNL     1      -2.925   3.086   0.047  0.00  0.00    +0.029 C 
ENDBRANCH   3   5
BRANCH   1  15
ATOM     15  C   UNL     1      -6.517   0.837   1.080  0.00  0.00    +0.119 C 
BRANCH  15  16
ATOM     16  C   UNL     1      -7.233   1.330   2.338  0.00  0.00    +0.157 C 
BRANCH  16  21
ATOM     17  C   UNL     1     -11.243  -0.138   2.362  0.00  0.00    +0.079 A 
ATOM     18  C   UNL     1     -10.959   0.995   1.694  0.00  0.00    +0.077 A 
ATOM     19  C   UNL     1      -9.570   1.500   1.694  0.00  0.00    +0.267 A 
ATOM     20  O   UNL     1      -9.295   2.524   1.100  0.00  0.00    -0.266 OA
ATOM     21  N   UNL     1      -8.607   0.823   2.349  0.00  0.00    -0.226 N 
ATOM     22  N   UNL     1      -8.903  -0.354   3.043  0.00  0.00    -0.126 NA
ATOM     23  C   UNL     1     -10.156  -0.845   3.071  0.00  0.00    +0.287 A 
ATOM     24  O   UNL     1     -10.394  -1.870   3.679  0.00  0.00    -0.264 OA
ENDBRANCH  16  21
ENDBRANCH  15  16
ENDBRANCH   1  15
TORSDOF 4
