REMARK  Name = ZINC19328651
REMARK  17 active torsions:
REMARK  status: ('A' for Active; 'I' for Inactive)
REMARK    1  A    between atoms: C_1  and  C_2
REMARK    2  A    between atoms: C_2  and  C_34
REMARK    3  A    between atoms: C_4  and  C_8
REMARK    4  A    between atoms: C_4  and  C_15
REMARK    5  A    between atoms: C_8  and  C_9
REMARK    6  A    between atoms: C_15  and  C_17
REMARK    7  A    between atoms: C_15  and  C_32
REMARK    8  A    between atoms: C_17  and  N_18
REMARK    9  A    between atoms: N_18  and  C_19
REMARK   10  A    between atoms: C_19  and  N_20
REMARK   11  A    between atoms: N_20  and  C_21
REMARK   12  A    between atoms: C_21  and  C_22
REMARK   13  A    between atoms: C_25  and  O_30
REMARK   14  A    between atoms: C_26  and  O_28
REMARK   15  A    between atoms: O_28  and  C_29
REMARK   16  A    between atoms: O_30  and  C_31
REMARK   17  A    between atoms: C_32  and  O_33
REMARK                            x       y       z     vdW  Elec       q    Type
REMARK                         _______ _______ _______ _____ _____    ______ ____
ROOT
ATOM      1  C   UNL     1       1.642  -4.252  -0.477  0.00  0.00    +0.004 C 
ENDROOT
BRANCH   1   5
ATOM      2  C   UNL     1       2.313   0.029  -1.003  0.00  0.00    +0.041 C 
ATOM      3  C   UNL     1       1.020  -0.454  -0.343  0.00  0.00    +0.064 C 
ATOM      4  C   UNL     1       1.218  -1.877   0.188  0.00  0.00    +0.042 C 
ATOM      5  C   UNL     1       1.519  -2.814  -0.986  0.00  0.00    -0.017 C 
ATOM      6  C   UNL     1       0.375  -2.726  -2.001  0.00  0.00    +0.035 C 
ATOM      7  C   UNL     1       0.209  -1.271  -2.447  0.00  0.00    +0.161 C 
ATOM      8  O   UNL     1      -0.037  -0.449  -1.304  0.00  0.00    -0.374 OA
ATOM      9  C   UNL     1       0.660   0.477   0.817  0.00  0.00    +0.041 C 
BRANCH   5  10
ATOM     10  C   UNL     1       2.829  -2.393  -1.654  0.00  0.00    +0.042 C 
BRANCH  10  11
ATOM     11  C   UNL     1       3.217  -3.418  -2.688  0.00  0.00    -0.047 A 
ATOM     12  C   UNL     1       2.707  -3.334  -3.970  0.00  0.00    +0.003 A 
ATOM     13  C   UNL     1       3.064  -4.273  -4.919  0.00  0.00    +0.000 A 
ATOM     14  C   UNL     1       3.931  -5.297  -4.586  0.00  0.00    +0.000 A 
ATOM     15  C   UNL     1       4.440  -5.383  -3.304  0.00  0.00    +0.000 A 
ATOM     16  C   UNL     1       4.084  -4.443  -2.355  0.00  0.00    +0.003 A 
ENDBRANCH  10  11
ENDBRANCH   5  10
ENDBRANCH   1   5
BRANCH   1  17
ATOM     17  C   UNL     1       2.704  -4.314   0.623  0.00  0.00    -0.075 C 
BRANCH  17  18
ATOM     18  N   UNL     1       2.907  -5.711   1.028  0.00  0.00    +0.387 N 
ATOM     19  H   UNL     1       1.961  -6.125   1.408  0.00  0.00    -0.084 HD
ATOM     20  H   UNL     1       3.243  -6.299   0.161  0.00  0.00    -0.084 HD
BRANCH  18  21
ATOM     21  C   UNL     1       3.923  -5.810   2.085  0.00  0.00    +0.001 C 
BRANCH  21  22
ATOM     22  N   UNL     1       3.263  -5.829   3.398  0.00  0.00    -0.329 NA
ATOM     23  H   UNL     1       3.888  -5.297   4.130  0.00  0.00    +0.120 HD
BRANCH  22  24
ATOM     24  C   UNL     1       3.059  -7.207   3.865  0.00  0.00    +0.114 C 
BRANCH  24  25
ATOM     25  C   UNL     1       2.382  -7.186   5.211  0.00  0.00    -0.030 A 
ATOM     26  C   UNL     1       3.142  -7.157   6.365  0.00  0.00    +0.009 A 
ATOM     27  C   UNL     1       2.525  -7.132   7.602  0.00  0.00    +0.050 A 
ATOM     28  C   UNL     1       1.142  -7.147   7.687  0.00  0.00    +0.162 A 
ATOM     29  C   UNL     1       0.377  -7.181   6.525  0.00  0.00    +0.162 A 
ATOM     30  C   UNL     1       1.001  -7.200   5.288  0.00  0.00    +0.054 A 
BRANCH  29  31
ATOM     31  O   UNL     1      -0.981  -7.195   6.603  0.00  0.00    -0.491 OA
ATOM     32  C   UNL     1      -1.701  -7.230   5.370  0.00  0.00    +0.277 C 
ENDBRANCH  29  31
BRANCH  28  33
ATOM     33  O   UNL     1       0.533  -7.128   8.903  0.00  0.00    -0.491 OA
ATOM     34  C   UNL     1       1.382  -7.093  10.053  0.00  0.00    +0.277 C 
ENDBRANCH  28  33
ENDBRANCH  24  25
ENDBRANCH  22  24
ENDBRANCH  21  22
ENDBRANCH  18  21
ENDBRANCH  17  18
ENDBRANCH   1  17
BRANCH   1  35
ATOM     35  C   UNL     1       0.295  -4.710   0.087  0.00  0.00    +0.158 C 
BRANCH  35  36
ATOM     36  O   UNL     1      -0.651  -4.829  -0.977  0.00  0.00    -0.395 OA
ATOM     37  H   UNL     1      -1.681  -5.149  -0.763  0.00  0.00    +0.209 HD
ENDBRANCH  35  36
ENDBRANCH   1  35
TORSDOF 13
