REMARK  Name = ZINC01956808
REMARK  12 active torsions:
REMARK  status: ('A' for Active; 'I' for Inactive)
REMARK    1  A    between atoms: C_1  and  C_2
REMARK    2  A    between atoms: C_2  and  O_3
REMARK    3  A    between atoms: O_3  and  C_4
REMARK    4  A    between atoms: C_4  and  C_6
REMARK    5  A    between atoms: C_10  and  N_11
REMARK    6  A    between atoms: C_12  and  C_14
REMARK    7  A    between atoms: C_14  and  C_16
REMARK    8  A    between atoms: C_14  and  O_17
REMARK    9  A    between atoms: O_17  and  C_18
REMARK   10  A    between atoms: C_20  and  C_26
REMARK   11  A    between atoms: C_22  and  C_24
REMARK   12  A    between atoms: C_28  and  C_32
REMARK                            x       y       z     vdW  Elec       q    Type
REMARK                         _______ _______ _______ _____ _____    ______ ____
ROOT
ATOM      1  N   UNL     1      -3.172  -2.272   2.511  0.00  0.00    -0.276 N 
ATOM      2  C   UNL     1      -3.916  -2.646   3.571  0.00  0.00    +0.258 C 
ATOM      3  O   UNL     1      -5.077  -2.960   3.416  0.00  0.00    -0.271 OA
ATOM      4  H   UNL     1      -2.243  -2.021   2.636  0.00  0.00    +0.155 HD
ENDROOT
BRANCH   1   9
ATOM      5  C   UNL     1      -3.124  -1.895   0.049  0.00  0.00    +0.091 A 
ATOM      6  C   UNL     1      -3.937  -1.960  -1.154  0.00  0.00    -0.021 A 
ATOM      7  C   UNL     1      -5.208  -2.361  -0.941  0.00  0.00    -0.004 A 
ATOM      8  S   UNL     1      -5.306  -2.638   0.804  0.00  0.00    -0.077 S 
ATOM      9  C   UNL     1      -3.733  -2.248   1.244  0.00  0.00    +0.086 A 
ATOM     10  C   UNL     1      -6.283  -2.529  -1.970  0.00  0.00    +0.046 C 
ATOM     11  C   UNL     1      -5.625  -2.540  -3.357  0.00  0.00    -0.009 C 
ATOM     12  C   UNL     1      -4.650  -1.363  -3.453  0.00  0.00    +0.008 C 
ATOM     13  C   UNL     1      -3.440  -1.615  -2.550  0.00  0.00    +0.037 C 
ATOM     14  C   UNL     1      -6.701  -2.406  -4.436  0.00  0.00    +0.008 C 
BRANCH   5  15
ATOM     15  C   UNL     1      -1.721  -1.480   0.000  0.00  0.00    +0.342 C 
ATOM     16  O   UNL     1      -0.847  -2.309  -0.167  0.00  0.00    -0.245 OA
BRANCH  15  17
ATOM     17  O   UNL     1      -1.397  -0.178   0.142  0.00  0.00    -0.461 OA
BRANCH  17  19
ATOM     18  C   UNL     1       0.161   1.666   0.263  0.00  0.00    +0.048 C 
ATOM     19  C   UNL     1      -0.009   0.156   0.084  0.00  0.00    +0.229 C 
ENDBRANCH  17  19
ENDBRANCH  15  17
ENDBRANCH   5  15
ENDBRANCH   1   9
BRANCH   2  20
ATOM     20  C   UNL     1      -3.307  -2.672   4.949  0.00  0.00    +0.256 C 
ATOM     21  C   UNL     1      -2.930  -1.249   5.367  0.00  0.00    +0.062 C 
BRANCH  20  22
ATOM     22  O   UNL     1      -4.251  -3.208   5.878  0.00  0.00    -0.480 OA
BRANCH  22  23
ATOM     23  C   UNL     1      -3.752  -3.781   7.004  0.00  0.00    +0.122 A 
ATOM     24  C   UNL     1      -4.602  -4.424   7.892  0.00  0.00    +0.050 A 
ATOM     25  C   UNL     1      -4.093  -5.006   9.036  0.00  0.00    -0.028 A 
ATOM     26  C   UNL     1      -2.735  -4.949   9.298  0.00  0.00    +0.047 A 
ATOM     27  C   UNL     1      -1.885  -4.307   8.414  0.00  0.00    -0.028 A 
ATOM     28  C   UNL     1      -2.390  -3.729   7.265  0.00  0.00    +0.050 A 
ATOM     29  C   UNL     1      -0.407  -4.245   8.701  0.00  0.00    +0.045 C 
ATOM     30 CL   UNL     1      -2.098  -5.681  10.737  0.00  0.00    -0.083 Cl
ATOM     31  C   UNL     1      -5.016  -5.705  10.001  0.00  0.00    +0.045 C 
ENDBRANCH  22  23
ENDBRANCH  20  22
ENDBRANCH   2  20
TORSDOF 7
