REMARK  Name = ZINC39683800
REMARK  8 active torsions:
REMARK  status: ('A' for Active; 'I' for Inactive)
REMARK    1  A    between atoms: C_1  and  C_2
REMARK    2  A    between atoms: C_2  and  C_4
REMARK    3  A    between atoms: C_2  and  N_8
REMARK    4  A    between atoms: N_6  and  C_7
REMARK    5  A    between atoms: C_9  and  C_11
REMARK    6  A    between atoms: C_22  and  C_24
REMARK    7  A    between atoms: C_24  and  C_25
REMARK    8  A    between atoms: C_24  and  C_26
REMARK                            x       y       z     vdW  Elec       q    Type
REMARK                         _______ _______ _______ _____ _____    ______ ____
ROOT
ATOM      1  C   UNL     1       0.780  -1.133   3.576  0.00  0.00    +0.100 C 
ATOM      2  C   UNL     1       1.973  -0.207   3.907  0.00  0.00    +0.121 C 
ATOM      3  N   UNL     1       1.444   0.739   4.916  0.00  0.00    -0.300 N 
ATOM      4  C   UNL     1       0.577  -0.093   5.784  0.00  0.00    +0.115 C 
ATOM      5  C   UNL     1      -0.132  -1.058   4.812  0.00  0.00    -0.004 C 
ATOM      6  C   UNL     1      -0.275  -2.438   5.448  0.00  0.00    -0.010 C 
ATOM      7  C   UNL     1      -1.232  -2.349   6.640  0.00  0.00    -0.082 C 
ATOM      8  N   UNL     1      -2.539  -1.860   6.184  0.00  0.00    +0.379 N 
ATOM      9  C   UNL     1      -2.409  -0.496   5.660  0.00  0.00    -0.082 C 
ATOM     10  C   UNL     1      -1.501  -0.506   4.426  0.00  0.00    -0.010 C 
ATOM     11  C   UNL     1       1.694   2.059   5.022  0.00  0.00    +0.218 C 
ATOM     12  O   UNL     1       1.181   2.705   5.912  0.00  0.00    -0.275 OA
ATOM     13  H   UNL     1      -2.889  -2.466   5.458  0.00  0.00    -0.086 HD
ATOM     14  H   UNL     1      -3.186  -1.861   6.959  0.00  0.00    -0.086 HD
ENDROOT
BRANCH   1  16
ATOM     15  N   UNL     1      -0.609  -1.501   1.563  0.00  0.00    -0.304 N 
ATOM     16  C   UNL     1       0.051  -0.633   2.355  0.00  0.00    +0.219 C 
ATOM     17  O   UNL     1       0.059   0.549   2.086  0.00  0.00    -0.275 OA
ATOM     18  H   UNL     1      -0.615  -2.447   1.779  0.00  0.00    +0.149 HD
BRANCH  15  20
ATOM     19  C   UNL     1      -0.340  -0.916  -0.796  0.00  0.00    +0.038 C 
ATOM     20  C   UNL     1      -1.318  -1.016   0.376  0.00  0.00    +0.156 C 
BRANCH  20  21
ATOM     21  C   UNL     1      -2.426  -1.975   0.026  0.00  0.00    +0.233 C 
ATOM     22  O   UNL     1      -2.607  -2.966   0.701  0.00  0.00    -0.274 OA
ATOM     23  N   UNL     1      -3.217  -1.731  -1.038  0.00  0.00    -0.317 N 
ATOM     24  C   UNL     1      -4.295  -2.663  -1.379  0.00  0.00    +0.128 C 
ATOM     25  H   UNL     1      -3.073  -0.938  -1.578  0.00  0.00    +0.148 HD
ENDBRANCH  20  21
ENDBRANCH  15  20
ENDBRANCH   1  16
BRANCH  11  26
ATOM     26  C   UNL     1       2.612   2.734   4.035  0.00  0.00    +0.069 C 
ATOM     27  C   UNL     1       2.725   4.221   4.377  0.00  0.00    +0.017 C 
ATOM     28  C   UNL     1       3.997   2.088   4.103  0.00  0.00    +0.017 C 
ENDBRANCH  11  26
TORSDOF 4
