REMARK  Name = ZINC00898871
REMARK  6 active torsions:
REMARK  status: ('A' for Active; 'I' for Inactive)
REMARK    1  A    between atoms: C_1  and  C_2
REMARK    2  A    between atoms: C_4  and  C_28
REMARK    3  A    between atoms: C_9  and  C_13
REMARK    4  A    between atoms: C_16  and  C_27
REMARK    5  A    between atoms: C_22  and  N_26
REMARK    6  A    between atoms: C_23  and  C_24
REMARK                            x       y       z     vdW  Elec       q    Type
REMARK                         _______ _______ _______ _____ _____    ______ ____
ROOT
ATOM      1  C   UNL     1      -0.028  -0.422  -2.581  0.00  0.00    +0.104 C 
ATOM      2  C   UNL     1      -0.003  -0.813  -1.126  0.00  0.00    +0.049 A 
ATOM      3  C   UNL     1       0.002  -0.004   0.002  0.00  0.00    +0.068 A 
ATOM      4  N   UNL     1       0.022  -0.780   1.060  0.00  0.00    -0.176 NA
ATOM      5  N   UNL     1       0.037  -2.116   0.629  0.00  0.00    -0.246 N 
ATOM      6  H   UNL     1       0.054  -2.924   1.218  0.00  0.00    +0.192 HD
ATOM      7  C   UNL     1       0.024  -2.116  -0.713  0.00  0.00    +0.222 A 
ATOM      8  O   UNL     1       0.027  -3.159  -1.580  0.00  0.00    -0.423 OA
ATOM      9  C   UNL     1      -0.282  -2.900  -2.869  0.00  0.00    +0.200 C 
ATOM     10  C   UNL     1      -0.323  -1.656  -3.396  0.00  0.00    +0.098 C 
ATOM     11  C   UNL     1      -0.018   1.503   0.010  0.00  0.00    +0.068 C 
ENDROOT
BRANCH   1  20
ATOM     12  C   UNL     1       7.320  -0.989  -3.445  0.00  0.00    +0.044 C 
ATOM     13  C   UNL     1       6.036  -0.206  -3.540  0.00  0.00    -0.050 A 
ATOM     14  C   UNL     1       6.062   1.103  -4.015  0.00  0.00    +0.008 A 
ATOM     15  C   UNL     1       4.921   1.838  -4.114  0.00  0.00    -0.024 A 
ATOM     16  C   UNL     1       3.692   1.272  -3.732  0.00  0.00    +0.076 A 
ATOM     17  C   UNL     1       3.668  -0.060  -3.250  0.00  0.00    +0.001 A 
ATOM     18  C   UNL     1       4.865  -0.788  -3.161  0.00  0.00    +0.013 A 
ATOM     19  C   UNL     1       2.437  -0.624  -2.862  0.00  0.00    +0.017 A 
ATOM     20  C   UNL     1       1.312   0.141  -2.979  0.00  0.00    +0.003 A 
ATOM     21  C   UNL     1       1.406   1.446  -3.462  0.00  0.00    +0.134 A 
ATOM     22  N   UNL     1       2.555   1.970  -3.818  0.00  0.00    -0.235 NA
ATOM     23 CL   UNL     1      -0.036   2.404  -3.595  0.00  0.00    -0.062 Cl
ATOM     24  C   UNL     1       4.974   3.252  -4.631  0.00  0.00    +0.046 C 
ENDBRANCH   1  20
BRANCH   9  25
ATOM     25  N   UNL     1      -0.563  -3.961  -3.693  0.00  0.00    -0.328 N 
ATOM     26  H   UNL     1      -0.783  -3.806  -4.625  0.00  0.00    +0.145 HD
ATOM     27  H   UNL     1      -0.542  -4.865  -3.343  0.00  0.00    +0.145 HD
ENDBRANCH   9  25
BRANCH  10  28
ATOM     28  C   UNL     1      -0.660  -1.505  -4.779  0.00  0.00    +0.101 C 
ATOM     29  N   UNL     1      -0.927  -1.385  -5.877  0.00  0.00    -0.191 NA
ENDBRANCH  10  28
TORSDOF 3
