REMARK  Name = ZINC08473897
REMARK  8 active torsions:
REMARK  status: ('A' for Active; 'I' for Inactive)
REMARK    1  A    between atoms: C_1  and  C_2
REMARK    2  A    between atoms: C_2  and  C_4
REMARK    3  A    between atoms: C_2  and  N_15
REMARK    4  A    between atoms: N_6  and  C_7
REMARK    5  A    between atoms: C_8  and  C_12
REMARK    6  A    between atoms: N_15  and  C_16
REMARK    7  A    between atoms: N_15  and  C_17
REMARK    8  A    between atoms: C_17  and  C_18
REMARK                            x       y       z     vdW  Elec       q    Type
REMARK                         _______ _______ _______ _____ _____    ______ ____
ROOT
ATOM      1  C   UNL     1       0.428  -0.540   1.518  0.00  0.00    +0.204 C 
ATOM      2  O   UNL     1      -0.333  -1.134   2.253  0.00  0.00    -0.277 OA
ATOM      3  N   UNL     1       1.698  -0.313   1.905  0.00  0.00    -0.281 N 
ATOM      4  H   UNL     1       2.307   0.162   1.317  0.00  0.00    +0.155 HD
ENDROOT
BRANCH   3   5
ATOM      5  C   UNL     1       2.136  -0.758   3.143  0.00  0.00    +0.084 A 
ATOM      6  C   UNL     1       3.396  -0.611   3.706  0.00  0.00    +0.065 A 
ATOM      7  C   UNL     1       3.586  -1.175   5.022  0.00  0.00    +0.022 A 
ATOM      8  C   UNL     1       2.512  -1.784   5.560  0.00  0.00    +0.048 A 
ATOM      9  S   UNL     1       1.262  -1.591   4.308  0.00  0.00    -0.081 S 
BRANCH   6  10
ATOM     10  C   UNL     1       4.479   0.081   3.000  0.00  0.00    +0.244 C 
ATOM     11  O   UNL     1       4.285   0.544   1.891  0.00  0.00    -0.270 OA
ATOM     12  N   UNL     1       5.690   0.204   3.579  0.00  0.00    -0.325 N 
ATOM     13  H   UNL     1       5.845  -0.165   4.463  0.00  0.00    +0.145 HD
ATOM     14  H   UNL     1       6.407   0.661   3.113  0.00  0.00    +0.145 HD
ENDBRANCH   6  10
ENDBRANCH   3   5
BRANCH   1  16
ATOM     15  C   UNL     1      -0.551   1.383   0.297  0.00  0.00    -0.004 C 
ATOM     16  C   UNL     1      -0.048  -0.057   0.173  0.00  0.00    +0.016 C 
BRANCH  16  17
ATOM     17  N   UNL     1      -1.141  -0.918  -0.299  0.00  0.00    +0.388 N 
ATOM     18  C   UNL     1      -0.653  -2.296  -0.440  0.00  0.00    -0.095 C 
ATOM     19  H   UNL     1      -1.898  -0.896   0.368  0.00  0.00    -0.081 HD
BRANCH  17  20
ATOM     20  C   UNL     1      -1.621  -0.433  -1.600  0.00  0.00    -0.035 C 
BRANCH  20  21
ATOM     21  C   UNL     1      -2.820  -1.239  -2.026  0.00  0.00    -0.025 A 
ATOM     22  C   UNL     1      -4.133  -1.008  -1.783  0.00  0.00    +0.011 A 
ATOM     23  C   UNL     1      -5.073  -1.894  -2.278  0.00  0.00    +0.028 A 
ATOM     24  C   UNL     1      -4.651  -2.967  -2.992  0.00  0.00    +0.078 A 
ATOM     25  S   UNL     1      -2.880  -2.742  -2.987  0.00  0.00    -0.084 S 
ATOM     26 CL   UNL     1      -5.591  -4.229  -3.727  0.00  0.00    -0.076 Cl
ENDBRANCH  20  21
ENDBRANCH  17  20
ENDBRANCH  16  17
ENDBRANCH   1  16
TORSDOF 6
