REMARK  Name = ZINC20849343
REMARK  6 active torsions:
REMARK  status: ('A' for Active; 'I' for Inactive)
REMARK    1  A    between atoms: C_1  and  C_2
REMARK    2  A    between atoms: C_6  and  C_10
REMARK    3  A    between atoms: N_12  and  C_13
REMARK    4  A    between atoms: C_15  and  C_20
REMARK    5  A    between atoms: C_24  and  C_27
REMARK    6  A    between atoms: C_27  and  O_28
REMARK                            x       y       z     vdW  Elec       q    Type
REMARK                         _______ _______ _______ _____ _____    ______ ____
ROOT
ATOM      1  C   UNL     1       0.579   7.272  -0.014  0.00  0.00    +0.069 C 
ATOM      2  C   UNL     1       0.803   5.782  -0.022  0.00  0.00    +0.081 A 
ATOM      3  C   UNL     1       2.100   5.280  -0.027  0.00  0.00    +0.159 A 
ATOM      4  C   UNL     1       2.280   3.885  -0.028  0.00  0.00    +0.027 A 
ATOM      5  C   UNL     1       3.631   3.323  -0.039  0.00  0.00    +0.030 A 
ATOM      6  C   UNL     1       4.692   4.191  -0.038  0.00  0.00    +0.097 A 
ATOM      7  C   UNL     1       4.427   5.640  -0.030  0.00  0.00    +0.205 A 
ATOM      8  N   UNL     1       5.427   6.478  -0.028  0.00  0.00    -0.369 N 
ATOM      9  O   UNL     1       3.163   6.110  -0.025  0.00  0.00    -0.437 OA
ATOM     10  C   UNL     1       1.147   3.061  -0.035  0.00  0.00    +0.007 A 
ATOM     11  C   UNL     1      -0.099   3.653  -0.031  0.00  0.00    +0.117 A 
ATOM     12  N   UNL     1      -0.230   4.967  -0.024  0.00  0.00    -0.256 NA
ATOM     13  H   UNL     1       5.236   7.562  -0.022  0.00  0.00    +0.159 HD
ATOM     14  H   UNL     1       6.460   6.102  -0.032  0.00  0.00    +0.159 HD
ENDROOT
BRANCH   6  15
ATOM     15  C   UNL     1       6.074   3.682  -0.043  0.00  0.00    +0.253 C 
ATOM     16  O   UNL     1       7.009   4.461  -0.042  0.00  0.00    -0.270 OA
ATOM     17  N   UNL     1       6.304   2.354  -0.050  0.00  0.00    -0.280 N 
ATOM     18  H   UNL     1       5.464   1.650   0.040  0.00  0.00    +0.155 HD
BRANCH  17  19
ATOM     19  C   UNL     1       7.611   1.871  -0.173  0.00  0.00    +0.053 A 
ATOM     20  C   UNL     1       8.586   2.648  -0.785  0.00  0.00    +0.037 A 
ATOM     21  C   UNL     1       9.876   2.169  -0.904  0.00  0.00    +0.057 A 
ATOM     22  C   UNL     1      10.198   0.916  -0.414  0.00  0.00    +0.014 A 
ATOM     23  C   UNL     1       9.230   0.139   0.196  0.00  0.00    +0.022 A 
ATOM     24  C   UNL     1       7.939   0.615   0.323  0.00  0.00    +0.062 A 
ATOM     25 CL   UNL     1       6.726  -0.358   1.095  0.00  0.00    -0.082 Cl
BRANCH  21  26
ATOM     26  C   UNL     1      10.934   3.012  -1.567  0.00  0.00    +0.417 C 
ATOM     27  F   UNL     1      11.567   3.807  -0.606  0.00  0.00    -0.166 F 
ATOM     28  F   UNL     1      11.877   2.180  -2.180  0.00  0.00    -0.166 F 
ATOM     29  F   UNL     1      10.339   3.832  -2.532  0.00  0.00    -0.166 F 
ENDBRANCH  21  26
ENDBRANCH  17  19
ENDBRANCH   6  15
BRANCH  10  30
ATOM     30  C   UNL     1       1.286   1.561  -0.042  0.00  0.00    +0.193 C 
BRANCH  30  31
ATOM     31  O   UNL     1      -0.011   0.962  -0.043  0.00  0.00    -0.390 OA
ATOM     32  H   UNL     1      -0.111  -0.134  -0.047  0.00  0.00    +0.210 HD
ENDBRANCH  30  31
ENDBRANCH  10  30
TORSDOF 5
