REMARK  Name = ZINC00383425
REMARK  3 active torsions:
REMARK  status: ('A' for Active; 'I' for Inactive)
REMARK    1  A    between atoms: C_1  and  C_2
REMARK    2  A    between atoms: C_4  and  C_19
REMARK    3  A    between atoms: N_5  and  C_12
REMARK                            x       y       z     vdW  Elec       q    Type
REMARK                         _______ _______ _______ _____ _____    ______ ____
ROOT
ATOM      1  C   UNL     1       2.735   4.866  -0.544  0.00  0.00    +0.068 C 
ATOM      2  C   UNL     1       1.238   4.739  -0.427  0.00  0.00    +0.072 A 
ATOM      3  C   UNL     1       0.626   3.469  -0.401  0.00  0.00    +0.049 A 
ATOM      4  C   UNL     1       1.041   2.156  -0.458  0.00  0.00    +0.051 A 
ATOM      5  N   UNL     1      -0.049   1.375  -0.385  0.00  0.00    -0.236 N 
ATOM      6  N   UNL     1      -1.199   2.169  -0.284  0.00  0.00    -0.163 NA
ATOM      7  C   UNL     1      -0.847   3.436  -0.284  0.00  0.00    +0.134 A 
ATOM      8  C   UNL     1      -1.507   4.683  -0.208  0.00  0.00    +0.179 A 
ATOM      9  N   UNL     1      -0.791   5.782  -0.245  0.00  0.00    -0.135 NA
ATOM     10  N   UNL     1       0.483   5.808  -0.347  0.00  0.00    -0.152 NA
ATOM     11 CL   UNL     1      -3.236   4.759  -0.068  0.00  0.00    -0.058 Cl
ATOM     12  C   UNL     1       2.466   1.681  -0.580  0.00  0.00    +0.066 C 
ENDROOT
BRANCH   5  13
ATOM     13  C   UNL     1      -0.038  -0.025  -0.413  0.00  0.00    +0.066 A 
ATOM     14  C   UNL     1       0.889  -0.698  -1.196  0.00  0.00    +0.029 A 
ATOM     15  C   UNL     1       0.901  -2.079  -1.217  0.00  0.00    +0.022 A 
ATOM     16  C   UNL     1      -0.017  -2.792  -0.466  0.00  0.00    +0.041 A 
ATOM     17  C   UNL     1      -0.947  -2.123   0.311  0.00  0.00    +0.022 A 
ATOM     18  C   UNL     1      -0.959  -0.742   0.340  0.00  0.00    +0.029 A 
ATOM     19 CL   UNL     1      -0.004  -4.527  -0.500  0.00  0.00    -0.084 Cl
ENDBRANCH   5  13
TORSDOF 1
