REMARK  Name = ZINC63162442
REMARK  8 active torsions:
REMARK  status: ('A' for Active; 'I' for Inactive)
REMARK    1  A    between atoms: C_1  and  N_2
REMARK    2  A    between atoms: N_2  and  C_3
REMARK    3  A    between atoms: N_2  and  C_4
REMARK    4  A    between atoms: C_4  and  C_5
REMARK    5  A    between atoms: C_4  and  C_22
REMARK    6  A    between atoms: C_5  and  N_6
REMARK    7  A    between atoms: N_9  and  C_10
REMARK    8  A    between atoms: C_12  and  C_18
REMARK                            x       y       z     vdW  Elec       q    Type
REMARK                         _______ _______ _______ _____ _____    ______ ____
ROOT
ATOM      1  N   UNL     1       0.053  -1.715   1.077  0.00  0.00    -0.300 N 
ATOM      2  C   UNL     1       0.489  -2.960   1.354  0.00  0.00    +0.304 C 
ATOM      3  O   UNL     1       0.367  -3.844   0.529  0.00  0.00    -0.253 OA
ATOM      4  N   UNL     1       1.061  -3.224   2.545  0.00  0.00    -0.265 N 
ATOM      5  H   UNL     1       0.151  -1.009   1.735  0.00  0.00    +0.150 HD
ATOM      6  H   UNL     1       1.096  -2.538   3.230  0.00  0.00    +0.157 HD
ENDROOT
BRANCH   4   7
ATOM      7  C   UNL     1       1.606  -4.492   2.796  0.00  0.00    +0.100 A 
ATOM      8  C   UNL     1       2.928  -4.625   3.118  0.00  0.00    +0.042 A 
ATOM      9  C   UNL     1       3.447  -5.904   3.364  0.00  0.00    +0.073 A 
ATOM     10  C   UNL     1       2.643  -6.989   3.282  0.00  0.00    +0.098 A 
ATOM     11  N   UNL     1       1.328  -6.858   2.961  0.00  0.00    -0.327 N 
ATOM     12  H   UNL     1       0.767  -7.648   2.907  0.00  0.00    +0.168 HD
ATOM     13  C   UNL     1       0.794  -5.645   2.724  0.00  0.00    +0.270 A 
ATOM     14  O   UNL     1      -0.389  -5.543   2.443  0.00  0.00    -0.266 OA
BRANCH   9  15
ATOM     15  C   UNL     1       4.902  -6.071   3.720  0.00  0.00    +0.419 C 
ATOM     16  F   UNL     1       5.181  -7.428   3.917  0.00  0.00    -0.166 F 
ATOM     17  F   UNL     1       5.696  -5.579   2.678  0.00  0.00    -0.166 F 
ATOM     18  F   UNL     1       5.180  -5.362   4.893  0.00  0.00    -0.166 F 
ENDBRANCH   9  15
ENDBRANCH   4   7
BRANCH   1  19
ATOM     19  C   UNL     1      -0.568  -1.427  -0.218  0.00  0.00    +0.095 C 
BRANCH  19  20
ATOM     20  C   UNL     1      -1.085   0.013  -0.228  0.00  0.00    -0.014 C 
BRANCH  20  21
ATOM     21  C   UNL     1      -2.180   0.160   0.797  0.00  0.00    -0.022 A 
ATOM     22  C   UNL     1      -2.115   0.682   2.047  0.00  0.00    +0.009 A 
ATOM     23  C   UNL     1      -3.260   0.716   2.819  0.00  0.00    +0.008 A 
ATOM     24  C   UNL     1      -4.415   0.225   2.305  0.00  0.00    +0.045 A 
ATOM     25  S   UNL     1      -3.901  -0.301   0.679  0.00  0.00    -0.103 S 
ENDBRANCH  20  21
BRANCH  20  27
ATOM     26  C   UNL     1      -2.171   1.694  -1.550  0.00  0.00    -0.096 C 
ATOM     27  N   UNL     1      -1.615   0.334  -1.560  0.00  0.00    +0.382 N 
ATOM     28  C   UNL     1      -0.532   0.255  -2.549  0.00  0.00    -0.096 C 
ATOM     29  H   UNL     1      -2.340  -0.324  -1.801  0.00  0.00    -0.082 HD
ENDBRANCH  20  27
ENDBRANCH  19  20
ENDBRANCH   1  19
TORSDOF 6
