REMARK  Name = ZINC39674878
REMARK  9 active torsions:
REMARK  status: ('A' for Active; 'I' for Inactive)
REMARK    1  A    between atoms: C_1  and  C_2
REMARK    2  A    between atoms: C_4  and  C_14
REMARK    3  A    between atoms: C_7  and  C_12
REMARK    4  A    between atoms: C_14  and  C_15
REMARK    5  A    between atoms: C_15  and  N_16
REMARK    6  A    between atoms: C_17  and  C_19
REMARK    7  A    between atoms: C_30  and  C_32
REMARK    8  A    between atoms: C_35  and  C_39
REMARK    9  A    between atoms: N_36  and  C_38
REMARK                            x       y       z     vdW  Elec       q    Type
REMARK                         _______ _______ _______ _____ _____    ______ ____
ROOT
ATOM      1  C   UNL     1      -7.120  -1.150  -2.393  0.00  0.00    +0.100 C 
ATOM      2  C   UNL     1      -6.658  -1.635  -3.785  0.00  0.00    +0.121 C 
ATOM      3  N   UNL     1      -7.190  -3.014  -3.897  0.00  0.00    -0.299 N 
ATOM      4  C   UNL     1      -8.535  -2.941  -3.278  0.00  0.00    +0.115 C 
ATOM      5  C   UNL     1      -8.354  -2.007  -2.065  0.00  0.00    -0.004 C 
ATOM      6  C   UNL     1      -8.108  -2.827  -0.802  0.00  0.00    -0.010 C 
ATOM      7  C   UNL     1      -9.369  -3.627  -0.465  0.00  0.00    -0.082 C 
ATOM      8  N   UNL     1     -10.495  -2.707  -0.264  0.00  0.00    +0.379 N 
ATOM      9  C   UNL     1     -10.784  -1.990  -1.511  0.00  0.00    -0.082 C 
ATOM     10  C   UNL     1      -9.583  -1.120  -1.893  0.00  0.00    -0.010 C 
ATOM     11  C   UNL     1      -6.587  -4.091  -4.438  0.00  0.00    +0.238 C 
ATOM     12  O   UNL     1      -7.157  -5.161  -4.455  0.00  0.00    -0.273 OA
ATOM     13  H   UNL     1     -11.310  -3.232   0.018  0.00  0.00    -0.086 HD
ATOM     14  H   UNL     1     -10.261  -2.043   0.458  0.00  0.00    -0.086 HD
ENDROOT
BRANCH  11  15
ATOM     15  C   UNL     1      -5.203  -3.965  -5.023  0.00  0.00    +0.183 C 
ATOM     16  C   UNL     1      -5.211  -3.015  -6.201  0.00  0.00    +0.022 C 
ATOM     17  C   UNL     1      -4.829  -3.711  -7.253  0.00  0.00    +0.017 C 
ATOM     18  N   UNL     1      -4.562  -5.026  -6.928  0.00  0.00    -0.274 N 
ATOM     19  N   UNL     1      -4.765  -5.254  -5.594  0.00  0.00    -0.225 NA
ATOM     20  C   UNL     1      -4.119  -6.043  -7.884  0.00  0.00    +0.149 C 
ATOM     21  C   UNL     1      -4.700  -3.140  -8.642  0.00  0.00    +0.061 C 
ATOM     22  H   UNL     1      -3.920  -5.578  -5.148  0.00  0.00    +0.146 HD
ENDBRANCH  11  15
BRANCH   1  24
ATOM     23  N   UNL     1      -5.948  -0.578  -0.290  0.00  0.00    -0.315 N 
ATOM     24  C   UNL     1      -6.035  -1.379  -1.371  0.00  0.00    +0.218 C 
ATOM     25  O   UNL     1      -5.242  -2.284  -1.521  0.00  0.00    -0.275 OA
ATOM     26  H   UNL     1      -6.582   0.145  -0.170  0.00  0.00    +0.149 HD
BRANCH  23  27
ATOM     27  C   UNL     1      -4.894  -0.801   0.703  0.00  0.00    +0.108 C 
BRANCH  27  28
ATOM     28  C   UNL     1      -5.018   0.238   1.819  0.00  0.00    +0.052 C 
BRANCH  28  31
ATOM     29  C   UNL     1      -4.911   0.722   5.022  0.00  0.00    +0.035 C 
ATOM     30  C   UNL     1      -3.691   0.805   4.102  0.00  0.00    +0.103 C 
ATOM     31  C   UNL     1      -3.934   0.009   2.841  0.00  0.00    -0.037 C 
ATOM     32  C   UNL     1      -2.978  -0.955   2.814  0.00  0.00    +0.000 A 
ATOM     33  C   UNL     1      -2.703  -1.991   1.884  0.00  0.00    +0.028 A 
ATOM     34  C   UNL     1      -1.651  -2.851   2.099  0.00  0.00    +0.052 A 
ATOM     35  C   UNL     1      -0.798  -2.724   3.276  0.00  0.00    +0.021 A 
ATOM     36  C   UNL     1      -1.012  -1.759   4.194  0.00  0.00    +0.027 A 
ATOM     37  C   UNL     1      -2.121  -0.816   4.013  0.00  0.00    +0.043 A 
ATOM     38  N   UNL     1      -2.527   0.191   4.750  0.00  0.00    -0.378 N 
ATOM     39  H   UNL     1      -2.125   0.481   5.584  0.00  0.00    +0.160 HD
BRANCH  34  40
ATOM     40  C   UNL     1      -1.388  -3.890   1.150  0.00  0.00    +0.099 C 
ATOM     41  N   UNL     1      -1.179  -4.715   0.397  0.00  0.00    -0.191 NA
ENDBRANCH  34  40
ENDBRANCH  28  31
ENDBRANCH  27  28
ENDBRANCH  23  27
ENDBRANCH   1  24
TORSDOF 6
