REMARK  Name = ZINC20421254
REMARK  15 active torsions:
REMARK  status: ('A' for Active; 'I' for Inactive)
REMARK    1  A    between atoms: C_1  and  C_2
REMARK    2  A    between atoms: C_3  and  C_31
REMARK    3  A    between atoms: C_4  and  C_30
REMARK    4  A    between atoms: C_5  and  C_10
REMARK    5  A    between atoms: C_6  and  C_9
REMARK    6  A    between atoms: C_7  and  C_8
REMARK    7  A    between atoms: C_10  and  S_11
REMARK    8  A    between atoms: S_11  and  C_12
REMARK    9  A    between atoms: N_15  and  C_18
REMARK   10  A    between atoms: C_18  and  C_19
REMARK   11  A    between atoms: C_19  and  C_20
REMARK   12  A    between atoms: C_23  and  O_28
REMARK   13  A    between atoms: C_24  and  O_26
REMARK   14  A    between atoms: O_26  and  C_27
REMARK   15  A    between atoms: O_28  and  C_29
REMARK                            x       y       z     vdW  Elec       q    Type
REMARK                         _______ _______ _______ _____ _____    ______ ____
ROOT
ATOM      1  C   UNL     1       1.574   6.140   0.707  0.00  0.00    +0.130 C 
ATOM      2  N   UNL     1       0.547   5.463   1.119  0.00  0.00    -0.355 N 
ATOM      3  C   UNL     1       0.465   4.009   1.022  0.00  0.00    +0.204 C 
ATOM      4  N   UNL     1       1.397   3.501   0.007  0.00  0.00    -0.269 NA
ATOM      5  C   UNL     1       2.748   4.047   0.237  0.00  0.00    +0.192 C 
ATOM      6  N   UNL     1       2.656   5.511   0.129  0.00  0.00    -0.313 N 
ATOM      7  H   UNL     1       3.438   6.074  -0.402  0.00  0.00    +0.149 HD
ATOM      8  H   UNL     1      -0.312   5.984   1.565  0.00  0.00    +0.163 HD
ENDROOT
BRANCH   1   9
ATOM      9  S   UNL     1       1.585   7.893   0.888  0.00  0.00    -0.088 S 
BRANCH   9  10
ATOM     10  C   UNL     1      -0.026   8.138   1.675  0.00  0.00    +0.112 C 
BRANCH  10  15
ATOM     11  C   UNL     1      -0.851  13.771   2.666  0.00  0.00    +0.044 C 
ATOM     12  C   UNL     1      -0.636  12.302   2.408  0.00  0.00    -0.044 A 
ATOM     13  C   UNL     1      -1.045  11.743   1.211  0.00  0.00    -0.044 A 
ATOM     14  C   UNL     1      -0.848  10.396   0.975  0.00  0.00    -0.043 A 
ATOM     15  C   UNL     1      -0.241   9.607   1.934  0.00  0.00    -0.031 A 
ATOM     16  C   UNL     1       0.164  10.165   3.132  0.00  0.00    -0.043 A 
ATOM     17  C   UNL     1      -0.029  11.513   3.367  0.00  0.00    -0.044 A 
ATOM     18  C   UNL     1       0.418  12.122   4.671  0.00  0.00    +0.044 C 
ATOM     19  C   UNL     1       0.821   9.303   4.180  0.00  0.00    +0.044 C 
ATOM     20  C   UNL     1      -1.295   9.787  -0.329  0.00  0.00    +0.044 C 
ATOM     21  C   UNL     1      -1.707  12.603   0.166  0.00  0.00    +0.044 C 
ENDBRANCH  10  15
ENDBRANCH   9  10
ENDBRANCH   1   9
BRANCH   4  22
ATOM     22  C   UNL     1       1.417   2.032  -0.001  0.00  0.00    +0.092 C 
BRANCH  22  23
ATOM     23  C   UNL     1      -0.018   1.503   0.010  0.00  0.00    +0.050 C 
BRANCH  23  24
ATOM     24  C   UNL     1       0.002  -0.004   0.002  0.00  0.00    -0.042 A 
ATOM     25  C   UNL     1      -0.006  -0.687  -1.200  0.00  0.00    +0.007 A 
ATOM     26  C   UNL     1       0.019  -2.070  -1.213  0.00  0.00    +0.049 A 
ATOM     27  C   UNL     1       0.040  -2.773  -0.019  0.00  0.00    +0.161 A 
ATOM     28  C   UNL     1       0.042  -2.086   1.190  0.00  0.00    +0.162 A 
ATOM     29  C   UNL     1       0.023  -0.700   1.196  0.00  0.00    +0.053 A 
BRANCH  28  30
ATOM     30  O   UNL     1       0.063  -2.772   2.364  0.00  0.00    -0.491 OA
ATOM     31  C   UNL     1       0.064  -2.000   3.567  0.00  0.00    +0.277 C 
ENDBRANCH  28  30
BRANCH  27  32
ATOM     32  O   UNL     1       0.058  -4.133  -0.030  0.00  0.00    -0.491 OA
ATOM     33  C   UNL     1       0.054  -4.772  -1.309  0.00  0.00    +0.277 C 
ENDBRANCH  27  32
ENDBRANCH  23  24
ENDBRANCH  22  23
ENDBRANCH   4  22
TORSDOF 8
