REMARK  Name = ZINC08319821
REMARK  5 active torsions:
REMARK  status: ('A' for Active; 'I' for Inactive)
REMARK    1  A    between atoms: C_1  and  C_2
REMARK    2  A    between atoms: C_2  and  C_4
REMARK    3  A    between atoms: C_2  and  N_52
REMARK    4  A    between atoms: N_6  and  C_7
REMARK    5  A    between atoms: C_8  and  C_15
REMARK                            x       y       z     vdW  Elec       q    Type
REMARK                         _______ _______ _______ _____ _____    ______ ____
ROOT
ATOM      1  C   UNL     1      -2.227   2.560  -3.498  0.00  0.00    +0.204 C 
ATOM      2  O   UNL     1      -3.143   3.328  -3.293  0.00  0.00    -0.277 OA
ATOM      3  N   UNL     1      -1.589   1.979  -2.463  0.00  0.00    -0.281 N 
ATOM      4  H   UNL     1      -0.857   1.365  -2.627  0.00  0.00    +0.155 HD
ENDROOT
BRANCH   3   5
ATOM      5  C   UNL     1      -1.980   2.260  -1.163  0.00  0.00    +0.084 A 
ATOM      6  C   UNL     1      -1.453   1.768   0.019  0.00  0.00    +0.068 A 
ATOM      7  C   UNL     1      -2.049   2.232   1.272  0.00  0.00    -0.023 A 
ATOM      8  C   UNL     1      -3.067   3.101   1.132  0.00  0.00    -0.004 A 
ATOM      9  S   UNL     1      -3.247   3.309  -0.623  0.00  0.00    -0.077 S 
ATOM     10  C   UNL     1      -3.623   3.535   2.461  0.00  0.00    +0.043 C 
ATOM     11  C   UNL     1      -2.534   3.149   3.485  0.00  0.00    +0.010 C 
ATOM     12  C   UNL     1      -1.823   1.986   2.764  0.00  0.00    +0.037 C 
BRANCH   6  13
ATOM     13  C   UNL     1      -0.335   0.820   0.016  0.00  0.00    +0.244 C 
ATOM     14  O   UNL     1      -0.551  -0.377  -0.012  0.00  0.00    -0.270 OA
ATOM     15  N   UNL     1       0.934   1.275   0.037  0.00  0.00    -0.325 N 
ATOM     16  H   UNL     1       1.674   0.648   0.031  0.00  0.00    +0.145 HD
ATOM     17  H   UNL     1       1.107   2.229   0.059  0.00  0.00    +0.145 HD
ENDBRANCH   6  13
ENDBRANCH   3   5
BRANCH   1  19
ATOM     18  C   UNL     1      -0.492   2.983  -5.219  0.00  0.00    -0.004 C 
ATOM     19  C   UNL     1      -1.803   2.255  -4.912  0.00  0.00    +0.017 C 
BRANCH  19  31
ATOM     20  C   UNL     1      -2.660   2.104  -7.172  0.00  0.00    -0.058 C 
ATOM     21  C   UNL     1      -3.806   2.536  -8.089  0.00  0.00    +0.089 C 
ATOM     22  N   UNL     1      -3.832   4.003  -8.179  0.00  0.00    -0.303 N 
ATOM     23  C   UNL     1      -4.017   4.606  -6.851  0.00  0.00    +0.089 C 
ATOM     24  C   UNL     1      -2.870   4.173  -5.934  0.00  0.00    -0.058 C 
ATOM     25  C   UNL     1      -4.813   4.428  -9.057  0.00  0.00    +0.218 A 
ATOM     26  N   UNL     1      -5.745   5.268  -8.629  0.00  0.00    -0.223 NA
ATOM     27  C   UNL     1      -6.693   5.698  -9.445  0.00  0.00    +0.116 A 
ATOM     28  C   UNL     1      -6.711   5.252 -10.757  0.00  0.00    +0.039 A 
ATOM     29  C   UNL     1      -5.725   4.370 -11.170  0.00  0.00    +0.116 A 
ATOM     30  N   UNL     1      -4.802   3.983 -10.305  0.00  0.00    -0.223 NA
ATOM     31  N   UNL     1      -2.869   2.699  -5.835  0.00  0.00    +0.389 N 
ATOM     32  H   UNL     1      -3.777   2.388  -5.470  0.00  0.00    -0.081 HD
ENDBRANCH  19  31
ENDBRANCH   1  19
TORSDOF 4
