REMARK  Name = ZINC14041458
REMARK  11 active torsions:
REMARK  status: ('A' for Active; 'I' for Inactive)
REMARK    1  A    between atoms: C_1  and  C_2
REMARK    2  A    between atoms: C_2  and  C_3
REMARK    3  A    between atoms: C_3  and  C_4
REMARK    4  A    between atoms: C_4  and  O_5
REMARK    5  A    between atoms: O_5  and  C_6
REMARK    6  A    between atoms: C_9  and  C_13
REMARK    7  A    between atoms: N_15  and  C_16
REMARK    8  A    between atoms: C_16  and  N_18
REMARK    9  A    between atoms: N_18  and  N_19
REMARK   10  A    between atoms: C_20  and  C_22
REMARK   11  A    between atoms: C_22  and  C_23
REMARK                            x       y       z     vdW  Elec       q    Type
REMARK                         _______ _______ _______ _____ _____    ______ ____
ROOT
ATOM      1  C   UNL     1      -2.519   3.867   0.045  0.00  0.00    +0.250 C 
ATOM      2  O   UNL     1      -2.533   5.083   0.051  0.00  0.00    -0.270 OA
ATOM      3  N   UNL     1      -3.678   3.180   0.053  0.00  0.00    -0.263 N 
ATOM      4  H   UNL     1      -3.667   2.210   0.048  0.00  0.00    +0.157 HD
ENDROOT
BRANCH   1   8
ATOM      5  C   UNL     1       1.182   1.786   0.000  0.00  0.00    +0.134 A 
ATOM      6  C   UNL     1      -0.013   1.076   0.008  0.00  0.00    +0.047 A 
ATOM      7  C   UNL     1      -1.215   1.747   0.017  0.00  0.00    +0.017 A 
ATOM      8  C   UNL     1      -1.233   3.145   0.030  0.00  0.00    +0.038 A 
ATOM      9  C   UNL     1      -0.030   3.856   0.023  0.00  0.00    +0.032 A 
ATOM     10  C   UNL     1       1.169   3.177   0.008  0.00  0.00    +0.060 A 
ATOM     11 BR   UNL     1       2.798   4.137  -0.002  0.00  0.00    -0.046 Br
BRANCH   5  12
ATOM     12  O   UNL     1       2.365   1.121  -0.015  0.00  0.00    -0.491 OA
BRANCH  12  13
ATOM     13  C   UNL     1       2.306  -0.307  -0.022  0.00  0.00    +0.229 C 
BRANCH  13  14
ATOM     14  C   UNL     1       3.726  -0.876  -0.040  0.00  0.00    +0.041 C 
BRANCH  14  16
ATOM     15  C   UNL     1       5.083  -2.974  -0.065  0.00  0.00    +0.004 C 
ATOM     16  C   UNL     1       3.663  -2.405  -0.048  0.00  0.00    -0.000 C 
ENDBRANCH  14  16
ENDBRANCH  13  14
ENDBRANCH  12  13
ENDBRANCH   5  12
ENDBRANCH   1   8
BRANCH   3  17
ATOM     17  C   UNL     1      -4.853   3.840   0.067  0.00  0.00    +0.153 C 
ATOM     18  S   UNL     1      -4.873   5.552   0.075  0.00  0.00    -0.017 S 
BRANCH  17  19
ATOM     19  N   UNL     1      -6.013   3.153   0.074  0.00  0.00    -0.246 N 
ATOM     20  H   UNL     1      -6.858   3.628   0.084  0.00  0.00    +0.172 HD
BRANCH  19  21
ATOM     21  N   UNL     1      -5.996   1.752   0.067  0.00  0.00    -0.235 N 
ATOM     22  C   UNL     1      -7.155   1.064   0.075  0.00  0.00    +0.233 C 
ATOM     23  O   UNL     1      -8.213   1.658   0.087  0.00  0.00    -0.274 OA
ATOM     24  H   UNL     1      -5.151   1.277   0.057  0.00  0.00    +0.173 HD
BRANCH  22  25
ATOM     25  C   UNL     1      -7.138  -0.443   0.068  0.00  0.00    +0.132 C 
BRANCH  25  26
ATOM     26  C   UNL     1      -8.553  -0.961   0.078  0.00  0.00    -0.038 A 
ATOM     27  C   UNL     1      -9.189  -1.210   1.280  0.00  0.00    +0.005 A 
ATOM     28  C   UNL     1     -10.488  -1.681   1.290  0.00  0.00    +0.020 A 
ATOM     29  C   UNL     1     -11.149  -1.913   0.097  0.00  0.00    +0.041 A 
ATOM     30  C   UNL     1     -10.510  -1.669  -1.105  0.00  0.00    +0.020 A 
ATOM     31  C   UNL     1      -9.213  -1.194  -1.115  0.00  0.00    +0.005 A 
ATOM     32 CL   UNL     1     -12.779  -2.510   0.109  0.00  0.00    -0.084 Cl
ENDBRANCH  25  26
ENDBRANCH  22  25
ENDBRANCH  19  21
ENDBRANCH  17  19
ENDBRANCH   3  17
TORSDOF 10
