REMARK  Name = ZINC39631171
REMARK  12 active torsions:
REMARK  status: ('A' for Active; 'I' for Inactive)
REMARK    1  A    between atoms: C_1  and  C_2
REMARK    2  A    between atoms: C_7  and  C_8
REMARK    3  A    between atoms: C_12  and  C_21
REMARK    4  A    between atoms: N_23  and  C_24
REMARK    5  A    between atoms: C_24  and  C_26
REMARK    6  A    between atoms: C_24  and  C_27
REMARK    7  A    between atoms: C_27  and  C_28
REMARK    8  A    between atoms: C_28  and  C_29
REMARK    9  A    between atoms: C_29  and  C_30
REMARK   10  A    between atoms: C_30  and  C_31
REMARK   11  A    between atoms: C_30  and  C_32
REMARK   12  A    between atoms: C_30  and  O_33
REMARK                            x       y       z     vdW  Elec       q    Type
REMARK                         _______ _______ _______ _____ _____    ______ ____
ROOT
ATOM      1  C   UNL     1       0.095  -0.290   2.468  0.00  0.00    +0.247 C 
ATOM      2  O   UNL     1      -0.052   0.916   2.509  0.00  0.00    -0.270 OA
ATOM      3  N   UNL     1       0.308  -0.982   3.605  0.00  0.00    -0.296 N 
ATOM      4  C   UNL     1       0.620  -2.424   3.746  0.00  0.00    +0.121 C 
ATOM      5  C   UNL     1       1.669  -2.487   4.878  0.00  0.00    +0.100 C 
ATOM      6  C   UNL     1       1.443  -1.205   5.696  0.00  0.00    -0.004 C 
ATOM      7  C   UNL     1       0.290  -0.471   4.996  0.00  0.00    +0.115 C 
ATOM      8  C   UNL     1       2.699  -0.339   5.680  0.00  0.00    -0.010 C 
ATOM      9  C   UNL     1       2.468   0.902   6.547  0.00  0.00    -0.082 C 
ATOM     10  N   UNL     1       2.151   0.490   7.920  0.00  0.00    +0.379 N 
ATOM     11  C   UNL     1       0.891  -0.264   7.938  0.00  0.00    -0.082 C 
ATOM     12  C   UNL     1       1.055  -1.554   7.130  0.00  0.00    -0.010 C 
ATOM     13  H   UNL     1       2.894  -0.091   8.275  0.00  0.00    -0.086 HD
ATOM     14  H   UNL     1       2.059   1.309   8.502  0.00  0.00    -0.086 HD
ENDROOT
BRANCH   1  21
ATOM     15  C   UNL     1       1.378   0.871   0.149  0.00  0.00    +0.044 C 
ATOM     16  C   UNL     1       0.656  -0.448   0.046  0.00  0.00    -0.038 A 
ATOM     17  C   UNL     1       0.607  -1.116  -1.160  0.00  0.00    +0.004 A 
ATOM     18  C   UNL     1      -0.056  -2.327  -1.257  0.00  0.00    +0.000 A 
ATOM     19  C   UNL     1      -0.673  -2.875  -0.146  0.00  0.00    +0.001 A 
ATOM     20  C   UNL     1      -0.630  -2.217   1.065  0.00  0.00    +0.013 A 
ATOM     21  C   UNL     1       0.041  -0.998   1.171  0.00  0.00    +0.040 A 
ENDBRANCH   1  21
BRANCH   5  22
ATOM     22  C   UNL     1       3.062  -2.506   4.301  0.00  0.00    +0.218 C 
ATOM     23  O   UNL     1       3.281  -1.984   3.229  0.00  0.00    -0.275 OA
ATOM     24  N   UNL     1       4.064  -3.102   4.978  0.00  0.00    -0.312 N 
ATOM     25  H   UNL     1       3.888  -3.519   5.836  0.00  0.00    +0.149 HD
BRANCH  24  26
ATOM     26  C   UNL     1       5.417  -3.119   4.418  0.00  0.00    +0.070 C 
ATOM     27  C   UNL     1       5.557  -4.303   3.459  0.00  0.00    +0.028 C 
BRANCH  26  28
ATOM     28  C   UNL     1       6.436  -3.257   5.551  0.00  0.00    +0.022 C 
BRANCH  28  29
ATOM     29  C   UNL     1       6.382  -2.013   6.440  0.00  0.00    +0.005 C 
BRANCH  29  30
ATOM     30  C   UNL     1       7.401  -2.151   7.572  0.00  0.00    +0.034 C 
BRANCH  30  31
ATOM     31  C   UNL     1       7.347  -0.907   8.461  0.00  0.00    +0.061 C 
ATOM     32  C   UNL     1       5.943  -0.763   9.053  0.00  0.00    +0.041 C 
ATOM     33  C   UNL     1       8.366  -1.045   9.594  0.00  0.00    +0.041 C 
BRANCH  31  34
ATOM     34  O   UNL     1       7.656   0.250   7.681  0.00  0.00    -0.389 OA
ATOM     35  H   UNL     1       8.533   0.227   7.275  0.00  0.00    +0.210 HD
ENDBRANCH  31  34
ENDBRANCH  30  31
ENDBRANCH  29  30
ENDBRANCH  28  29
ENDBRANCH  26  28
ENDBRANCH  24  26
ENDBRANCH   5  22
TORSDOF 8
