REMARK  Name = ZINC33457008
REMARK  6 active torsions:
REMARK  status: ('A' for Active; 'I' for Inactive)
REMARK    1  A    between atoms: C_1  and  C_2
REMARK    2  A    between atoms: N_11  and  C_12
REMARK    3  A    between atoms: C_12  and  C_14
REMARK    4  A    between atoms: C_12  and  C_16
REMARK    5  A    between atoms: C_14  and  N_15
REMARK    6  A    between atoms: C_25  and  O_26
REMARK                            x       y       z     vdW  Elec       q    Type
REMARK                         _______ _______ _______ _____ _____    ______ ____
ROOT
ATOM      1  C   UNL     1      -1.768   1.221  -1.196  0.00  0.00    +0.091 C 
ENDROOT
BRANCH   1  11
ATOM      2  C   UNL     1      -4.286   0.257   0.628  0.00  0.00    +0.028 C 
ATOM      3  C   UNL     1      -3.516  -0.338  -0.552  0.00  0.00    +0.075 C 
ATOM      4  C   UNL     1      -3.517  -1.883  -0.485  0.00  0.00    +0.059 C 
ATOM      5  C   UNL     1      -2.140  -2.243  -1.005  0.00  0.00    -0.025 A 
ATOM      6  C   UNL     1      -1.619  -3.434  -1.467  0.00  0.00    +0.005 A 
ATOM      7  C   UNL     1      -0.309  -3.493  -1.907  0.00  0.00    +0.000 A 
ATOM      8  C   UNL     1       0.478  -2.356  -1.883  0.00  0.00    +0.002 A 
ATOM      9  C   UNL     1      -0.037  -1.164  -1.419  0.00  0.00    +0.023 A 
ATOM     10  C   UNL     1      -1.355  -1.097  -0.971  0.00  0.00    +0.034 A 
ATOM     11  N   UNL     1      -2.077  -0.011  -0.459  0.00  0.00    -0.321 N 
ENDBRANCH   1  11
BRANCH   1  12
ATOM     12  C   UNL     1      -2.572   1.259  -2.470  0.00  0.00    +0.020 A 
ATOM     13  C   UNL     1      -3.561   2.240  -2.652  0.00  0.00    -0.010 A 
ATOM     14  C   UNL     1      -3.816   3.210  -1.667  0.00  0.00    +0.009 A 
ATOM     15  C   UNL     1      -4.777   4.149  -1.879  0.00  0.00    +0.001 A 
ATOM     16  C   UNL     1      -5.512   4.169  -3.064  0.00  0.00    +0.001 A 
ATOM     17  C   UNL     1      -5.289   3.249  -4.042  0.00  0.00    +0.008 A 
ATOM     18  C   UNL     1      -4.305   2.263  -3.859  0.00  0.00    -0.017 A 
ATOM     19  C   UNL     1      -4.047   1.298  -4.848  0.00  0.00    +0.012 A 
ATOM     20  C   UNL     1      -3.087   0.358  -4.639  0.00  0.00    +0.046 A 
ATOM     21  C   UNL     1      -2.348   0.336  -3.452  0.00  0.00    +0.122 A 
BRANCH  21  22
ATOM     22  O   UNL     1      -1.395  -0.615  -3.272  0.00  0.00    -0.506 OA
ATOM     23  H   UNL     1      -1.209  -1.362  -4.059  0.00  0.00    +0.292 HD
ENDBRANCH  21  22
ENDBRANCH   1  12
BRANCH   1  24
ATOM     24  C   UNL     1      -0.276   1.253  -1.534  0.00  0.00    -0.059 C 
BRANCH  24  25
ATOM     25  N   UNL     1       0.507   0.999  -0.318  0.00  0.00    +0.380 N 
ATOM     26  H   UNL     1       1.580   1.022  -0.560  0.00  0.00    -0.090 HD
ATOM     27  H   UNL     1       0.244   0.011   0.088  0.00  0.00    -0.090 HD
ATOM     28  H   UNL     1       0.284   1.775   0.430  0.00  0.00    -0.090 HD
ENDBRANCH  24  25
ENDBRANCH   1  24
TORSDOF 5
