REMARK  Name = ZINC42910180
REMARK  12 active torsions:
REMARK  status: ('A' for Active; 'I' for Inactive)
REMARK    1  A    between atoms: C_1  and  C_2
REMARK    2  A    between atoms: C_6  and  O_9
REMARK    3  A    between atoms: C_7  and  C_8
REMARK    4  A    between atoms: O_9  and  C_10
REMARK    5  A    between atoms: C_10  and  C_12
REMARK    6  A    between atoms: C_10  and  C_13
REMARK    7  A    between atoms: N_15  and  N_16
REMARK    8  A    between atoms: N_19  and  C_20
REMARK    9  A    between atoms: C_22  and  C_28
REMARK   10  A    between atoms: C_22  and  C_29
REMARK   11  A    between atoms: C_24  and  C_26
REMARK   12  A    between atoms: C_24  and  C_27
REMARK                            x       y       z     vdW  Elec       q    Type
REMARK                         _______ _______ _______ _____ _____    ______ ____
ROOT
ATOM      1  N   UNL     1      -1.873  -6.912   5.005  0.00  0.00    -0.218 N 
ATOM      2  C   UNL     1      -1.926  -8.236   5.255  0.00  0.00    +0.316 C 
ATOM      3  O   UNL     1      -2.389  -8.639   6.304  0.00  0.00    -0.251 OA
ATOM      4  N   UNL     1      -1.466  -9.113   4.340  0.00  0.00    -0.295 N 
ATOM      5  H   UNL     1      -2.204  -6.281   5.664  0.00  0.00    +0.174 HD
ATOM      6  H   UNL     1      -1.097  -8.791   3.503  0.00  0.00    +0.151 HD
ENDROOT
BRANCH   4   7
ATOM      7  C   UNL     1      -1.524 -10.555   4.611  0.00  0.00    +0.072 C 
ATOM      8  C   UNL     1      -0.267 -10.972   5.378  0.00  0.00    +0.009 C 
ATOM      9  C   UNL     1      -0.306 -12.474   5.658  0.00  0.00    -0.072 C 
ATOM     10  N   UNL     1      -0.504 -13.253   4.444  0.00  0.00    +0.386 N 
ATOM     11  C   UNL     1      -1.548 -12.822   3.527  0.00  0.00    -0.072 C 
ATOM     12  C   UNL     1      -1.552 -11.316   3.287  0.00  0.00    +0.009 C 
ATOM     13  C   UNL     1      -2.933 -13.281   3.990  0.00  0.00    -0.010 C 
ATOM     14  C   UNL     1      -1.279 -13.503   2.164  0.00  0.00    -0.010 C 
ATOM     15  C   UNL     1      -1.359 -12.787   6.720  0.00  0.00    -0.010 C 
ATOM     16  C   UNL     1       1.069 -12.867   6.245  0.00  0.00    -0.010 C 
ATOM     17  H   UNL     1       0.382 -13.280   3.933  0.00  0.00    -0.084 HD
ATOM     18  H   UNL     1      -0.690 -14.222   4.711  0.00  0.00    -0.084 HD
ENDBRANCH   4   7
BRANCH   1  21
ATOM     19  C   UNL     1      -1.287  -5.124   3.547  0.00  0.00    +0.270 C 
ATOM     20  O   UNL     1      -1.701  -4.335   4.370  0.00  0.00    -0.270 OA
ATOM     21  N   UNL     1      -1.340  -6.448   3.796  0.00  0.00    -0.230 N 
ATOM     22  H   UNL     1      -1.009  -7.079   3.138  0.00  0.00    +0.173 HD
BRANCH  19  23
ATOM     23  C   UNL     1      -0.714  -4.625   2.246  0.00  0.00    +0.257 C 
ATOM     24  C   UNL     1       0.741  -5.083   2.120  0.00  0.00    +0.062 C 
BRANCH  23  25
ATOM     25  O   UNL     1      -0.768  -3.197   2.219  0.00  0.00    -0.480 OA
BRANCH  25  31
ATOM     26  C   UNL     1      -1.168   0.863  -0.460  0.00  0.00    +0.044 C 
ATOM     27  C   UNL     1      -0.992  -0.629  -0.349  0.00  0.00    -0.044 A 
ATOM     28  C   UNL     1      -0.863  -1.397  -1.492  0.00  0.00    +0.004 A 
ATOM     29  C   UNL     1      -0.702  -2.766  -1.393  0.00  0.00    +0.004 A 
ATOM     30  C   UNL     1      -0.670  -3.372  -0.152  0.00  0.00    +0.046 A 
ATOM     31  C   UNL     1      -0.799  -2.604   0.996  0.00  0.00    +0.125 A 
ATOM     32  C   UNL     1      -0.955  -1.229   0.895  0.00  0.00    -0.006 A 
ATOM     33  C   UNL     1      -1.089  -0.391   2.140  0.00  0.00    +0.048 C 
ENDBRANCH  25  31
ENDBRANCH  23  25
ENDBRANCH  19  23
ENDBRANCH   1  21
TORSDOF 5
