REMARK  Name = ZINC14539575
REMARK  13 active torsions:
REMARK  status: ('A' for Active; 'I' for Inactive)
REMARK    1  A    between atoms: C_1  and  C_2
REMARK    2  A    between atoms: C_2  and  C_3
REMARK    3  A    between atoms: C_2  and  C_4
REMARK    4  A    between atoms: C_2  and  N_5
REMARK    5  A    between atoms: N_5  and  S_6
REMARK    6  A    between atoms: S_6  and  C_9
REMARK    7  A    between atoms: C_11  and  C_24
REMARK    8  A    between atoms: C_13  and  N_15
REMARK    9  A    between atoms: N_15  and  C_16
REMARK   10  A    between atoms: C_16  and  C_17
REMARK   11  A    between atoms: N_26  and  C_27
REMARK   12  A    between atoms: C_27  and  C_28
REMARK   13  A    between atoms: C_34  and  N_73
REMARK                            x       y       z     vdW  Elec       q    Type
REMARK                         _______ _______ _______ _____ _____    ______ ____
ROOT
ATOM      1  C   UNL     1      -0.588   0.867  -5.894  0.00  0.00    +0.108 A 
ATOM      2  C   UNL     1      -1.883   1.132  -5.497  0.00  0.00    +0.041 A 
ATOM      3  C   UNL     1      -2.149   1.478  -4.171  0.00  0.00    +0.040 A 
ATOM      4  C   UNL     1      -1.104   1.548  -3.250  0.00  0.00    +0.036 A 
ATOM      5  C   UNL     1       0.194   1.285  -3.660  0.00  0.00    +0.030 A 
ATOM      6  C   UNL     1       0.449   0.942  -4.983  0.00  0.00    +0.051 A 
ENDROOT
BRANCH   3   7
ATOM      7  C   UNL     1      -3.535   1.763  -3.743  0.00  0.00    +0.244 C 
ATOM      8  O   UNL     1      -4.445   1.697  -4.546  0.00  0.00    -0.270 OA
ATOM      9  N   UNL     1      -3.790   2.096  -2.462  0.00  0.00    -0.311 N 
ATOM     10  H   UNL     1      -3.063   2.149  -1.821  0.00  0.00    +0.149 HD
BRANCH   9  11
ATOM     11  C   UNL     1      -5.163   2.379  -2.038  0.00  0.00    +0.106 C 
BRANCH  11  12
ATOM     12  C   UNL     1      -5.175   2.729  -0.548  0.00  0.00    -0.011 C 
ATOM     13  C   UNL     1      -6.590   3.140  -0.131  0.00  0.00    +0.001 C 
ATOM     14  C   UNL     1      -6.606   3.431   1.372  0.00  0.00    -0.018 C 
ATOM     15  C   UNL     1      -6.133   2.189   2.132  0.00  0.00    -0.079 C 
ATOM     16  C   UNL     1      -4.743   1.508   0.267  0.00  0.00    -0.074 C 
ATOM     17  C   UNL     1      -4.234   0.734   2.504  0.00  0.00    -0.096 C 
ATOM     18  N   UNL     1      -4.757   1.860   1.703  0.00  0.00    +0.378 N 
ATOM     19  H   UNL     1      -4.157   2.680   1.850  0.00  0.00    -0.082 HD
ENDBRANCH  11  12
ENDBRANCH   9  11
ENDBRANCH   3   7
BRANCH   1  20
ATOM     20  S   UNL     1      -0.255   0.431  -7.569  0.00  0.00    +0.059 S 
ATOM     21  O   UNL     1      -1.118   1.223  -8.373  0.00  0.00    -0.153 OA
ATOM     22  O   UNL     1       1.157   0.449  -7.720  0.00  0.00    -0.153 OA
BRANCH  20  23
ATOM     23  N   UNL     1      -0.733  -1.142  -7.769  0.00  0.00    -0.185 NA
ATOM     24  H   UNL     1      -1.482  -1.352  -8.348  0.00  0.00    +0.149 HD
BRANCH  23  26
ATOM     25  C   UNL     1      -0.066  -1.963  -5.564  0.00  0.00    +0.029 C 
ATOM     26  C   UNL     1      -0.023  -2.217  -7.072  0.00  0.00    +0.032 C 
ATOM     27  C   UNL     1      -0.695  -3.557  -7.382  0.00  0.00    +0.029 C 
ATOM     28  C   UNL     1       1.433  -2.256  -7.542  0.00  0.00    +0.029 C 
ENDBRANCH  23  26
ENDBRANCH  20  23
ENDBRANCH   1  20
BRANCH   5  29
ATOM     29  N   UNL     1       1.246   1.359  -2.743  0.00  0.00    -0.343 N 
ATOM     30  H   UNL     1       2.153   1.171  -3.029  0.00  0.00    +0.146 HD
BRANCH  29  31
ATOM     31  C   UNL     1       0.977   1.720  -1.349  0.00  0.00    +0.105 C 
BRANCH  31  32
ATOM     32  C   UNL     1       2.290   1.729  -0.563  0.00  0.00    +0.010 C 
ATOM     33  C   UNL     1       2.006   1.997   0.921  0.00  0.00    +0.009 C 
ATOM     34  C   UNL     1       3.309   1.820   1.703  0.00  0.00    +0.027 C 
ATOM     35  C   UNL     1       4.415   2.592   1.046  0.00  0.00    -0.031 C 
ATOM     36  C   UNL     1       4.369   3.033  -0.171  0.00  0.00    -0.031 C 
ATOM     37  C   UNL     1       3.198   2.842  -1.090  0.00  0.00    +0.032 C 
ENDBRANCH  31  32
ENDBRANCH  29  31
ENDBRANCH   5  29
TORSDOF 9
