REMARK  Name = ZINC60361345
REMARK  6 active torsions:
REMARK  status: ('A' for Active; 'I' for Inactive)
REMARK    1  A    between atoms: C_1  and  C_2
REMARK    2  A    between atoms: C_2  and  C_4
REMARK    3  A    between atoms: C_2  and  N_17
REMARK    4  A    between atoms: N_6  and  C_7
REMARK    5  A    between atoms: C_11  and  S_13
REMARK    6  A    between atoms: S_13  and  N_16
REMARK                            x       y       z     vdW  Elec       q    Type
REMARK                         _______ _______ _______ _____ _____    ______ ____
ROOT
ATOM      1  C   UNL     1      -0.133   1.514   0.279  0.00  0.00    -0.004 C 
ATOM      2  C   UNL     1      -0.056   0.006   0.036  0.00  0.00    +0.017 C 
ENDROOT
BRANCH   2   3
ATOM      3  N   UNL     1       0.547  -0.648   1.205  0.00  0.00    +0.392 N 
ATOM      4  C   UNL     1      -0.176  -0.238   2.410  0.00  0.00    -0.041 C 
ATOM      5  C   UNL     1       0.147  -1.125   3.579  0.00  0.00    -0.056 A 
ATOM      6  C   UNL     1       1.020  -0.716   4.564  0.00  0.00    +0.002 A 
ATOM      7  C   UNL     1       1.285  -1.546   5.639  0.00  0.00    +0.000 A 
ATOM      8  C   UNL     1       0.678  -2.786   5.736  0.00  0.00    +0.001 A 
ATOM      9  C   UNL     1      -0.194  -3.209   4.751  0.00  0.00    +0.009 A 
ATOM     10  C   UNL     1      -0.454  -2.382   3.666  0.00  0.00    -0.016 A 
ATOM     11  C   UNL     1      -1.343  -2.808   2.558  0.00  0.00    -0.016 A 
ATOM     12  C   UNL     1      -2.596  -3.355   2.797  0.00  0.00    +0.009 A 
ATOM     13  C   UNL     1      -3.396  -3.718   1.730  0.00  0.00    +0.001 A 
ATOM     14  C   UNL     1      -2.949  -3.534   0.434  0.00  0.00    +0.000 A 
ATOM     15  C   UNL     1      -1.697  -2.995   0.193  0.00  0.00    +0.002 A 
ATOM     16  C   UNL     1      -0.887  -2.639   1.250  0.00  0.00    -0.056 A 
ATOM     17  C   UNL     1       0.497  -2.099   1.021  0.00  0.00    -0.041 C 
ATOM     18  H   UNL     1       1.510  -0.359   1.285  0.00  0.00    -0.080 HD
ENDBRANCH   2   3
BRANCH   2  19
ATOM     19  C   UNL     1       0.790  -0.264  -1.182  0.00  0.00    +0.203 C 
ATOM     20  O   UNL     1       1.902  -0.730  -1.056  0.00  0.00    -0.277 OA
ATOM     21  N   UNL     1       0.309   0.012  -2.410  0.00  0.00    -0.287 N 
ATOM     22  H   UNL     1      -0.549   0.455  -2.507  0.00  0.00    +0.155 HD
BRANCH  21  23
ATOM     23  C   UNL     1       1.048  -0.339  -3.546  0.00  0.00    +0.035 A 
ATOM     24  C   UNL     1       0.395  -0.751  -4.700  0.00  0.00    +0.023 A 
ATOM     25  C   UNL     1       1.127  -1.096  -5.819  0.00  0.00    +0.004 A 
ATOM     26  C   UNL     1       2.508  -1.033  -5.791  0.00  0.00    +0.028 A 
ATOM     27  C   UNL     1       3.161  -0.624  -4.643  0.00  0.00    +0.107 A 
ATOM     28  C   UNL     1       2.434  -0.271  -3.522  0.00  0.00    +0.051 A 
BRANCH  27  29
ATOM     29  S   UNL     1       4.921  -0.546  -4.611  0.00  0.00    +0.056 S 
ATOM     30  O   UNL     1       5.308  -0.657  -3.248  0.00  0.00    -0.153 OA
ATOM     31  O   UNL     1       5.385  -1.444  -5.610  0.00  0.00    -0.153 OA
BRANCH  29  32
ATOM     32  N   UNL     1       5.353   0.975  -5.104  0.00  0.00    -0.204 NA
ATOM     33  H   UNL     1       4.668   1.620  -5.341  0.00  0.00    +0.144 HD
ATOM     34  H   UNL     1       6.290   1.220  -5.155  0.00  0.00    +0.144 HD
ENDBRANCH  29  32
ENDBRANCH  27  29
ENDBRANCH  21  23
ENDBRANCH   2  19
TORSDOF 5
