REMARK  Name = ZINC13858308
REMARK  7 active torsions:
REMARK  status: ('A' for Active; 'I' for Inactive)
REMARK    1  A    between atoms: C_1  and  C_2
REMARK    2  A    between atoms: C_2  and  C_3
REMARK    3  A    between atoms: C_3  and  N_4
REMARK    4  A    between atoms: C_13  and  N_15
REMARK    5  A    between atoms: N_17  and  C_18
REMARK    6  A    between atoms: C_20  and  C_25
REMARK    7  A    between atoms: C_23  and  C_24
REMARK                            x       y       z     vdW  Elec       q    Type
REMARK                         _______ _______ _______ _____ _____    ______ ____
ROOT
ATOM      1  N   UNL     1       1.972  -6.477  -2.082  0.00  0.00    -0.364 N 
ATOM      2  C   UNL     1       2.082  -7.073  -0.857  0.00  0.00    +0.143 C 
ATOM      3  N   UNL     1       1.569  -8.325  -0.657  0.00  0.00    -0.295 N 
ATOM      4  S   UNL     1       2.837  -6.277   0.388  0.00  0.00    -0.016 SA
ATOM      5  H   UNL     1       0.651  -8.519  -0.905  0.00  0.00    +0.154 HD
ATOM      6  H   UNL     1       1.530  -6.943  -2.810  0.00  0.00    +0.162 HD
ENDROOT
BRANCH   1  14
ATOM      7  N   UNL     1       1.951  -2.680  -3.750  0.00  0.00    +0.384 N 
ATOM      8  C   UNL     1       1.828  -2.694  -2.294  0.00  0.00    -0.066 C 
ATOM      9  C   UNL     1       3.070  -2.139  -1.615  0.00  0.00    -0.015 C 
ATOM     10  C   UNL     1       4.345  -2.832  -2.075  0.00  0.00    -0.003 C 
ATOM     11  C   UNL     1       4.396  -2.997  -3.588  0.00  0.00    -0.015 C 
ATOM     12  C   UNL     1       3.083  -3.507  -4.161  0.00  0.00    -0.066 C 
ATOM     13  C   UNL     1       2.835  -4.963  -3.781  0.00  0.00    +0.009 C 
ATOM     14  C   UNL     1       2.525  -5.126  -2.298  0.00  0.00    +0.078 C 
ATOM     15  C   UNL     1       1.507  -4.103  -1.809  0.00  0.00    +0.009 C 
ATOM     16  H   UNL     1       1.104  -3.083  -4.144  0.00  0.00    -0.081 HD
BRANCH   7  17
ATOM     17  C   UNL     1       2.089  -1.314  -4.252  0.00  0.00    -0.078 C 
BRANCH  17  19
ATOM     18  C   UNL     1       0.975   0.915  -4.434  0.00  0.00    +0.002 C 
ATOM     19  C   UNL     1       0.830  -0.514  -3.909  0.00  0.00    -0.022 C 
ENDBRANCH  17  19
ENDBRANCH   7  17
ENDBRANCH   1  14
BRANCH   3  20
ATOM     20  C   UNL     1       2.368  -9.327  -0.095  0.00  0.00    +0.036 A 
ATOM     21  C   UNL     1       3.747  -9.169  -0.041  0.00  0.00    +0.027 A 
ATOM     22  C   UNL     1       4.532 -10.159   0.514  0.00  0.00    -0.049 A 
ATOM     23  C   UNL     1       3.948 -11.308   1.016  0.00  0.00    +0.004 A 
ATOM     24  C   UNL     1       2.576 -11.469   0.963  0.00  0.00    +0.005 A 
ATOM     25  C   UNL     1       1.783 -10.479   0.415  0.00  0.00    -0.029 A 
ATOM     26  C   UNL     1       0.287 -10.652   0.364  0.00  0.00    +0.045 C 
ATOM     27  C   UNL     1       6.029  -9.988   0.573  0.00  0.00    +0.044 C 
ENDBRANCH   3  20
TORSDOF 4
