REMARK  Name = ZINC67298552
REMARK  6 active torsions:
REMARK  status: ('A' for Active; 'I' for Inactive)
REMARK    1  A    between atoms: C_3  and  N_10
REMARK    2  A    between atoms: C_6  and  C_7
REMARK    3  A    between atoms: C_12  and  C_22
REMARK    4  A    between atoms: C_17  and  O_21
REMARK    5  A    between atoms: N_24  and  C_25
REMARK    6  A    between atoms: C_25  and  C_26
REMARK                            x       y       z     vdW  Elec       q    Type
REMARK                         _______ _______ _______ _____ _____    ______ ____
ROOT
ATOM      1  N   UNL     1       3.545   2.115  -0.018  0.00  0.00    -0.325 N 
ATOM      2  C   UNL     1       4.532   1.752   0.777  0.00  0.00    +0.212 A 
ATOM      3  C   UNL     1       5.846   2.419   0.716  0.00  0.00    +0.097 A 
ATOM      4  C   UNL     1       6.628   2.397   1.863  0.00  0.00    +0.030 A 
ATOM      5  C   UNL     1       6.129   1.712   2.999  0.00  0.00    +0.018 A 
ATOM      6  C   UNL     1       6.778   1.826   4.239  0.00  0.00    +0.015 A 
ATOM      7  C   UNL     1       6.266   1.196   5.334  0.00  0.00    +0.046 A 
ATOM      8  C   UNL     1       5.104   0.432   5.232  0.00  0.00    +0.120 A 
ATOM      9  C   UNL     1       4.460   0.291   4.012  0.00  0.00    +0.092 A 
ATOM     10  C   UNL     1       4.970   0.918   2.888  0.00  0.00    +0.141 A 
ATOM     11  O   UNL     1       4.372   0.757   1.685  0.00  0.00    -0.438 OA
ATOM     12  H   UNL     1       3.648   2.885  -0.599  0.00  0.00    +0.169 HD
ENDROOT
BRANCH   1  15
ATOM     13  C   UNL     1      -0.013   1.374  -0.012  0.00  0.00    +0.015 A 
ATOM     14  C   UNL     1       1.153   2.082  -0.005  0.00  0.00    +0.026 A 
ATOM     15  C   UNL     1       2.381   1.409  -0.024  0.00  0.00    +0.042 A 
ATOM     16  C   UNL     1       2.411   0.009  -0.050  0.00  0.00    +0.026 A 
ATOM     17  C   UNL     1       1.244  -0.698  -0.057  0.00  0.00    +0.015 A 
ATOM     18  C   UNL     1       0.017  -0.025  -0.038  0.00  0.00    +0.037 A 
BRANCH  18  19
ATOM     19  C   UNL     1      -1.243  -0.789  -0.045  0.00  0.00    +0.242 C 
ATOM     20  O   UNL     1      -2.309  -0.204  -0.029  0.00  0.00    -0.270 OA
ATOM     21  N   UNL     1      -1.214  -2.136  -0.070  0.00  0.00    -0.325 N 
ATOM     22  H   UNL     1      -0.363  -2.603  -0.083  0.00  0.00    +0.145 HD
ATOM     23  H   UNL     1      -2.043  -2.639  -0.075  0.00  0.00    +0.145 HD
ENDBRANCH  18  19
ENDBRANCH   1  15
BRANCH   3  24
ATOM     24  C   UNL     1       6.310   3.081  -0.514  0.00  0.00    +0.249 C 
ATOM     25  O   UNL     1       5.572   3.163  -1.477  0.00  0.00    -0.270 OA
ATOM     26  N   UNL     1       7.554   3.597  -0.573  0.00  0.00    -0.309 N 
ATOM     27  H   UNL     1       8.168   3.468   0.167  0.00  0.00    +0.149 HD
BRANCH  26  28
ATOM     28  C   UNL     1       7.978   4.354  -1.754  0.00  0.00    +0.136 C 
BRANCH  28  29
ATOM     29  C   UNL     1       9.422   4.825  -1.566  0.00  0.00    +0.135 C 
ATOM     30  C   UNL     1       9.879   5.658  -2.790  0.00  0.00    +0.035 C 
ATOM     31  C   UNL     1      10.999   6.526  -2.154  0.00  0.00    +0.031 C 
ATOM     32  C   UNL     1      10.464   6.755  -0.725  0.00  0.00    +0.160 C 
ATOM     33  O   UNL     1       9.512   5.720  -0.446  0.00  0.00    -0.375 OA
ENDBRANCH  28  29
ENDBRANCH  26  28
ENDBRANCH   3  24
BRANCH   8  34
ATOM     34  O   UNL     1       4.600  -0.179   6.334  0.00  0.00    -0.507 OA
ATOM     35  H   UNL     1       3.968   0.360   6.828  0.00  0.00    +0.292 HD
ENDBRANCH   8  34
TORSDOF 6
