REMARK  Name = ZINC08961772
REMARK  3 active torsions:
REMARK  status: ('A' for Active; 'I' for Inactive)
REMARK    1  A    between atoms: C_4  and  S_8
REMARK    2  A    between atoms: S_8  and  N_11
REMARK    3  A    between atoms: N_11  and  C_12
REMARK                            x       y       z     vdW  Elec       q    Type
REMARK                         _______ _______ _______ _____ _____    ______ ____
ROOT
ATOM      1  C   UNL     1      -1.750  -0.742  -1.582  0.00  0.00    +0.049 A 
ATOM      2  C   UNL     1      -0.452  -0.581  -1.109  0.00  0.00    +0.028 A 
ATOM      3  C   UNL     1       0.481  -1.586  -1.271  0.00  0.00    +0.048 A 
ATOM      4  C   UNL     1       0.131  -2.759  -1.917  0.00  0.00    +0.133 A 
ATOM      5  C   UNL     1      -1.175  -2.924  -2.404  0.00  0.00    +0.080 A 
ATOM      6  C   UNL     1      -2.115  -1.909  -2.232  0.00  0.00    +0.041 A 
ATOM      7  C   UNL     1      -1.526  -4.177  -3.099  0.00  0.00    +0.248 C 
ATOM      8  O   UNL     1      -2.115  -4.151  -4.163  0.00  0.00    -0.270 OA
ATOM      9  N   UNL     1      -1.181  -5.357  -2.530  0.00  0.00    -0.308 N 
ATOM     10  C   UNL     1      -0.570  -5.367  -1.200  0.00  0.00    +0.145 C 
ATOM     11  C   UNL     1       0.882  -4.914  -1.270  0.00  0.00    +0.247 C 
ATOM     12  O   UNL     1       1.033  -3.760  -2.086  0.00  0.00    -0.490 OA
ATOM     13  H   UNL     1      -1.338  -6.191  -3.002  0.00  0.00    +0.149 HD
ENDROOT
BRANCH   1  14
ATOM     14  N   UNL     1      -2.689   0.281  -1.405  0.00  0.00    -0.216 N 
ATOM     15  H   UNL     1      -3.250   0.558  -2.147  0.00  0.00    +0.174 HD
BRANCH  14  16
ATOM     16  S   UNL     1      -2.842   1.019   0.070  0.00  0.00    +0.075 S 
ATOM     17  O   UNL     1      -3.930   1.927  -0.041  0.00  0.00    -0.150 OA
ATOM     18  O   UNL     1      -1.539   1.434   0.454  0.00  0.00    -0.150 OA
BRANCH  16  22
ATOM     19  C   UNL     1      -4.108  -2.168   3.028  0.00  0.00    +0.003 A 
ATOM     20  C   UNL     1      -2.877  -1.552   3.158  0.00  0.00    +0.002 A 
ATOM     21  C   UNL     1      -2.492  -0.576   2.257  0.00  0.00    +0.032 A 
ATOM     22  C   UNL     1      -3.336  -0.220   1.222  0.00  0.00    +0.143 A 
ATOM     23  C   UNL     1      -4.571  -0.832   1.095  0.00  0.00    +0.150 A 
ATOM     24  C   UNL     1      -4.955  -1.809   1.997  0.00  0.00    +0.040 A 
ATOM     25  F   UNL     1      -5.399  -0.480   0.086  0.00  0.00    -0.203 F 
ENDBRANCH  16  22
ENDBRANCH  14  16
ENDBRANCH   1  14
TORSDOF 3
