REMARK  Name = ZINC12421985
REMARK  11 active torsions:
REMARK  status: ('A' for Active; 'I' for Inactive)
REMARK    1  A    between atoms: N_6  and  C_11
REMARK    2  A    between atoms: C_11  and  C_12
REMARK    3  A    between atoms: C_12  and  C_14
REMARK    4  A    between atoms: C_12  and  O_21
REMARK    5  A    between atoms: C_14  and  N_52
REMARK    6  A    between atoms: C_15  and  C_16
REMARK    7  A    between atoms: C_15  and  N_52
REMARK    8  A    between atoms: C_16  and  O_17
REMARK    9  A    between atoms: C_18  and  C_19
REMARK   10  A    between atoms: C_18  and  N_52
REMARK   11  A    between atoms: C_19  and  O_20
REMARK                            x       y       z     vdW  Elec       q    Type
REMARK                         _______ _______ _______ _____ _____    ______ ____
ROOT
ATOM      1  C   UNL     1       1.026   4.488  -0.904  0.00  0.00    +0.151 C 
ENDROOT
BRANCH   1   7
ATOM      2  C   UNL     1      -0.842  -0.049  -2.700  0.00  0.00    +0.002 A 
ATOM      3  C   UNL     1      -1.864   0.856  -2.549  0.00  0.00    +0.010 A 
ATOM      4  C   UNL     1      -1.521   2.123  -2.067  0.00  0.00    +0.005 A 
ATOM      5  C   UNL     1      -2.299   3.311  -1.788  0.00  0.00    -0.019 A 
ATOM      6  C   UNL     1      -1.440   4.255  -1.346  0.00  0.00    +0.023 A 
ATOM      7  N   UNL     1      -0.166   3.750  -1.327  0.00  0.00    -0.340 N 
ATOM      8  C   UNL     1      -0.176   2.456  -1.762  0.00  0.00    +0.068 A 
ATOM      9  C   UNL     1       0.842   1.517  -1.926  0.00  0.00    +0.065 A 
ATOM     10  C   UNL     1       0.472   0.268  -2.399  0.00  0.00    +0.022 A 
ATOM     11 CL   UNL     1       2.494   1.894  -1.554  0.00  0.00    -0.081 Cl
ATOM     12  C   UNL     1      -1.860   5.648  -0.941  0.00  0.00    +0.054 C 
ATOM     13  C   UNL     1      -3.260   5.920  -1.503  0.00  0.00    +0.006 C 
ATOM     14  C   UNL     1      -4.190   4.759  -1.137  0.00  0.00    +0.005 C 
ATOM     15  C   UNL     1      -3.786   3.515  -1.936  0.00  0.00    +0.037 C 
ENDBRANCH   1   7
BRANCH   1  16
ATOM     16  C   UNL     1       1.693   5.123  -2.126  0.00  0.00    +0.118 C 
BRANCH  16  17
ATOM     17  O   UNL     1       0.783   6.035  -2.745  0.00  0.00    -0.392 OA
ATOM     18  H   UNL     1       0.566   6.804  -2.200  0.00  0.00    +0.210 HD
ENDBRANCH  16  17
BRANCH  16  19
ATOM     19  C   UNL     1       2.950   5.876  -1.687  0.00  0.00    -0.045 C 
BRANCH  19  20
ATOM     20  N   UNL     1       3.571   6.502  -2.873  0.00  0.00    +0.384 N 
ATOM     21  H   UNL     1       2.864   7.064  -3.362  0.00  0.00    -0.082 HD
BRANCH  20  22
ATOM     22  C   UNL     1       4.682   7.384  -2.457  0.00  0.00    -0.050 C 
BRANCH  22  23
ATOM     23  C   UNL     1       5.089   8.257  -3.646  0.00  0.00    +0.137 C 
BRANCH  23  24
ATOM     24  O   UNL     1       3.984   9.073  -4.038  0.00  0.00    -0.397 OA
ATOM     25  H   UNL     1       4.171   9.654  -4.788  0.00  0.00    +0.209 HD
ENDBRANCH  23  24
ENDBRANCH  22  23
ENDBRANCH  20  22
BRANCH  20  26
ATOM     26  C   UNL     1       4.072   5.457  -3.791  0.00  0.00    -0.050 C 
BRANCH  26  27
ATOM     27  C   UNL     1       5.215   4.675  -3.141  0.00  0.00    +0.137 C 
BRANCH  27  28
ATOM     28  O   UNL     1       4.705   3.909  -2.047  0.00  0.00    -0.397 OA
ATOM     29  H   UNL     1       5.386   3.447  -1.539  0.00  0.00    +0.209 HD
ENDBRANCH  27  28
ENDBRANCH  26  27
ENDBRANCH  20  26
ENDBRANCH  19  20
ENDBRANCH  16  19
ENDBRANCH   1  16
TORSDOF 11
