REMARK  Name = ZINC02927065
REMARK  11 active torsions:
REMARK  status: ('A' for Active; 'I' for Inactive)
REMARK    1  A    between atoms: C_1  and  C_2
REMARK    2  A    between atoms: C_2  and  C_3
REMARK    3  A    between atoms: C_3  and  C_5
REMARK    4  A    between atoms: C_3  and  S_12
REMARK    5  A    between atoms: N_7  and  C_8
REMARK    6  A    between atoms: C_8  and  C_9
REMARK    7  A    between atoms: C_9  and  O_10
REMARK    8  A    between atoms: O_10  and  C_11
REMARK    9  A    between atoms: S_12  and  C_13
REMARK   10  A    between atoms: C_17  and  C_21
REMARK   11  A    between atoms: N_24  and  C_25
REMARK                            x       y       z     vdW  Elec       q    Type
REMARK                         _______ _______ _______ _____ _____    ______ ____
ROOT
ATOM      1  C   UNL     1      -4.598   2.616   2.210  0.00  0.00    +0.178 A 
ATOM      2  N   UNL     1      -3.569   2.920   2.962  0.00  0.00    -0.201 NA
ATOM      3  C   UNL     1      -2.304   2.818   2.525  0.00  0.00    +0.187 A 
ATOM      4  C   UNL     1      -2.055   2.355   1.226  0.00  0.00    +0.082 A 
ATOM      5  C   UNL     1      -0.662   2.343   1.044  0.00  0.00    +0.046 A 
ATOM      6  N   UNL     1      -0.101   2.779   2.139  0.00  0.00    -0.279 N 
ATOM      7  N   UNL     1      -1.091   3.078   3.083  0.00  0.00    -0.153 NA
ATOM      8  H   UNL     1       0.995   2.859   2.202  0.00  0.00    +0.189 HD
ATOM      9  C   UNL     1       0.061   1.916  -0.207  0.00  0.00    +0.066 C 
ATOM     10  C   UNL     1      -3.204   2.002   0.380  0.00  0.00    +0.124 A 
ATOM     11  N   UNL     1      -3.040   1.563  -0.844  0.00  0.00    -0.384 N 
ATOM     12  N   UNL     1      -4.468   2.151   0.930  0.00  0.00    -0.275 N 
ATOM     13  H   UNL     1      -3.916   1.305  -1.458  0.00  0.00    +0.157 HD
ATOM     14  H   UNL     1      -2.026   1.452  -1.257  0.00  0.00    +0.157 HD
ENDROOT
BRANCH  12  15
ATOM     15  C   UNL     1      -5.605   1.830   0.178  0.00  0.00    +0.050 A 
ATOM     16  C   UNL     1      -5.917   2.564  -0.959  0.00  0.00    +0.027 A 
ATOM     17  C   UNL     1      -7.037   2.242  -1.701  0.00  0.00    +0.017 A 
ATOM     18  C   UNL     1      -7.852   1.196  -1.307  0.00  0.00    +0.018 A 
ATOM     19  C   UNL     1      -7.546   0.466  -0.172  0.00  0.00    +0.017 A 
ATOM     20  C   UNL     1      -6.425   0.781   0.571  0.00  0.00    +0.027 A 
ATOM     21 BR   UNL     1      -9.388   0.763  -2.322  0.00  0.00    -0.050 Br
ENDBRANCH  12  15
BRANCH   1  22
ATOM     22  S   UNL     1      -6.217   2.799   2.881  0.00  0.00    -0.075 S 
BRANCH  22  23
ATOM     23  C   UNL     1      -5.803   3.266   4.580  0.00  0.00    +0.140 C 
BRANCH  23  24
ATOM     24  C   UNL     1      -5.171   2.093   5.284  0.00  0.00    +0.226 C 
ATOM     25  O   UNL     1      -5.335   0.970   4.856  0.00  0.00    -0.275 OA
ATOM     26  N   UNL     1      -4.424   2.292   6.388  0.00  0.00    -0.312 N 
ATOM     27  H   UNL     1      -4.276   3.311   6.775  0.00  0.00    +0.149 HD
BRANCH  26  28
ATOM     28  C   UNL     1      -3.810   1.151   7.072  0.00  0.00    +0.132 C 
BRANCH  28  29
ATOM     29  C   UNL     1      -3.022   1.649   8.286  0.00  0.00    +0.178 C 
BRANCH  29  30
ATOM     30  O   UNL     1      -3.923   2.220   9.237  0.00  0.00    -0.381 OA
ATOM     31  C   UNL     1      -3.285   2.718  10.415  0.00  0.00    +0.194 C 
ENDBRANCH  29  30
ENDBRANCH  28  29
ENDBRANCH  26  28
ENDBRANCH  23  24
BRANCH  23  33
ATOM     32  C   UNL     1      -7.638   4.957   4.693  0.00  0.00    +0.005 C 
ATOM     33  C   UNL     1      -7.076   3.679   5.320  0.00  0.00    +0.020 C 
ENDBRANCH  23  33
ENDBRANCH  22  23
ENDBRANCH   1  22
TORSDOF 8
