REMARK  Name = ZINC39775369
REMARK  9 active torsions:
REMARK  status: ('A' for Active; 'I' for Inactive)
REMARK    1  A    between atoms: C_1  and  C_2
REMARK    2  A    between atoms: C_9  and  O_20
REMARK    3  A    between atoms: C_12  and  C_14
REMARK    4  A    between atoms: C_23  and  O_43
REMARK    5  A    between atoms: C_24  and  C_31
REMARK    6  A    between atoms: C_27  and  O_30
REMARK    7  A    between atoms: N_32  and  N_33
REMARK    8  A    between atoms: C_34  and  C_36
REMARK    9  A    between atoms: C_36  and  C_37
REMARK                            x       y       z     vdW  Elec       q    Type
REMARK                         _______ _______ _______ _____ _____    ______ ____
ROOT
ATOM      1  C   UNL     1      -0.002   1.514   0.001  0.00  0.00    +0.014 C 
ATOM      2  C   UNL     1       0.007  -0.016  -0.000  0.00  0.00    +0.004 C 
ATOM      3  C   UNL     1       0.592  -0.588  -1.294  0.00  0.00    +0.010 C 
ATOM      4  C   UNL     1       2.103  -0.373  -1.341  0.00  0.00    +0.005 C 
ATOM      5  C   UNL     1       2.743  -1.130  -0.173  0.00  0.00    +0.009 C 
ATOM      6  C   UNL     1       2.229  -0.530   1.135  0.00  0.00    +0.025 C 
ATOM      7  C   UNL     1       0.734  -0.597   1.226  0.00  0.00    +0.075 C 
ATOM      8  C   UNL     1       0.226  -2.039   1.342  0.00  0.00    +0.036 C 
ATOM      9  C   UNL     1      -1.160  -2.055   0.666  0.00  0.00    +0.011 C 
ATOM     10  C   UNL     1      -1.420  -0.618   0.165  0.00  0.00    +0.027 C 
ATOM     11  C   UNL     1       2.873  -1.256   2.318  0.00  0.00    +0.009 C 
ATOM     12  C   UNL     1       4.393  -1.098   2.248  0.00  0.00    +0.036 C 
ATOM     13  C   UNL     1       4.763  -0.267   1.018  0.00  0.00    +0.079 C 
ATOM     14  C   UNL     1       4.265  -0.988  -0.253  0.00  0.00    +0.039 C 
ATOM     15  C   UNL     1       4.635  -0.165  -1.489  0.00  0.00    +0.018 C 
ATOM     16  C   UNL     1       6.156  -0.019  -1.568  0.00  0.00    +0.032 C 
ATOM     17  C   UNL     1       6.667   0.690  -0.312  0.00  0.00    +0.117 C 
ATOM     18  C   UNL     1       6.283  -0.108   0.948  0.00  0.00    +0.067 C 
ENDROOT
BRANCH  10  19
ATOM     19  C   UNL     1      -2.140  -0.641  -1.158  0.00  0.00    -0.022 C 
ATOM     20  C   UNL     1      -2.356  -1.708  -1.925  0.00  0.00    +0.094 C 
ATOM     21  C   UNL     1      -3.093  -1.294  -3.123  0.00  0.00    +0.332 C 
ATOM     22  O   UNL     1      -3.443  -2.036  -4.020  0.00  0.00    -0.246 OA
ATOM     23  O   UNL     1      -3.324   0.031  -3.081  0.00  0.00    -0.457 OA
ATOM     24  C   UNL     1      -2.762   0.539  -1.866  0.00  0.00    +0.264 C 
ENDBRANCH  10  19
BRANCH   7  25
ATOM     25  O   UNL     1       0.315   0.120   2.389  0.00  0.00    -0.388 OA
ATOM     26  H   UNL     1       0.728  -0.184   3.208  0.00  0.00    +0.210 HD
ENDBRANCH   7  25
BRANCH  17  27
ATOM     27  O   UNL     1       6.068   1.984  -0.220  0.00  0.00    -0.392 OA
ATOM     28  H   UNL     1       6.260   2.561  -0.972  0.00  0.00    +0.210 HD
ENDBRANCH  17  27
BRANCH  14  29
ATOM     29  C   UNL     1       4.893  -2.354  -0.349  0.00  0.00    +0.113 C 
ATOM     30  N   UNL     1       5.609  -2.659  -1.366  0.00  0.00    -0.192 NA
BRANCH  30  31
ATOM     31  N   UNL     1       6.193  -3.929  -1.456  0.00  0.00    -0.207 N 
ATOM     32  C   UNL     1       6.946  -4.251  -2.526  0.00  0.00    +0.237 C 
ATOM     33  O   UNL     1       7.119  -3.440  -3.412  0.00  0.00    -0.274 OA
ATOM     34  H   UNL     1       6.055  -4.578  -0.747  0.00  0.00    +0.177 HD
BRANCH  32  35
ATOM     35  C   UNL     1       7.574  -5.617  -2.623  0.00  0.00    +0.132 C 
BRANCH  35  36
ATOM     36  C   UNL     1       8.359  -5.720  -3.905  0.00  0.00    -0.039 A 
ATOM     37  C   UNL     1       7.743  -6.170  -5.058  0.00  0.00    +0.004 A 
ATOM     38  C   UNL     1       8.463  -6.264  -6.234  0.00  0.00    +0.000 A 
ATOM     39  C   UNL     1       9.798  -5.908  -6.258  0.00  0.00    +0.000 A 
ATOM     40  C   UNL     1      10.414  -5.457  -5.106  0.00  0.00    +0.000 A 
ATOM     41  C   UNL     1       9.693  -5.359  -3.930  0.00  0.00    +0.004 A 
ENDBRANCH  35  36
ENDBRANCH  32  35
ENDBRANCH  30  31
ENDBRANCH  14  29
BRANCH  13  42
ATOM     42  O   UNL     1       4.153   1.022   1.113  0.00  0.00    -0.388 OA
ATOM     43  H   UNL     1       4.423   1.529   1.891  0.00  0.00    +0.210 HD
ENDBRANCH  13  42
TORSDOF 8
