REMARK  Name = ZINC44135684
REMARK  9 active torsions:
REMARK  status: ('A' for Active; 'I' for Inactive)
REMARK    1  A    between atoms: C_4  and  S_7
REMARK    2  A    between atoms: S_7  and  C_8
REMARK    3  A    between atoms: C_8  and  C_9
REMARK    4  A    between atoms: C_9  and  C_11
REMARK    5  A    between atoms: C_9  and  N_31
REMARK    6  A    between atoms: C_11  and  C_13
REMARK    7  A    between atoms: C_11  and  O_30
REMARK    8  A    between atoms: C_13  and  N_14
REMARK    9  A    between atoms: C_25  and  C_27
REMARK                            x       y       z     vdW  Elec       q    Type
REMARK                         _______ _______ _______ _____ _____    ______ ____
ROOT
ATOM      1  C   UNL     1       6.433  -4.932   0.653  0.00  0.00    +0.084 C 
ENDROOT
BRANCH   1   2
ATOM      2  O   UNL     1       7.682  -5.530   1.005  0.00  0.00    -0.395 OA
ATOM      3  H   UNL     1       8.389  -5.371   0.365  0.00  0.00    +0.210 HD
ENDBRANCH   1   2
BRANCH   1   4
ATOM      4  C   UNL     1       6.608  -3.416   0.540  0.00  0.00    -0.038 C 
BRANCH   4   5
ATOM      5  N   UNL     1       7.515  -3.108  -0.574  0.00  0.00    +0.382 N 
ATOM      6  H   UNL     1       8.412  -3.539  -0.406  0.00  0.00    -0.090 HD
ATOM      7  H   UNL     1       7.125  -3.467  -1.433  0.00  0.00    -0.090 HD
ATOM      8  H   UNL     1       7.630  -2.109  -0.648  0.00  0.00    -0.090 HD
ENDBRANCH   4   5
BRANCH   4   9
ATOM      9  C   UNL     1       7.198  -2.873   1.843  0.00  0.00    +0.060 C 
BRANCH   9  10
ATOM     10  S   UNL     1       7.268  -1.062   1.767  0.00  0.00    -0.127 S 
BRANCH  10  14
ATOM     11  C   UNL     1       9.049   0.135   5.756  0.00  0.00    +0.000 A 
ATOM     12  C   UNL     1       8.708   1.107   4.833  0.00  0.00    +0.001 A 
ATOM     13  C   UNL     1       8.165   0.746   3.616  0.00  0.00    +0.015 A 
ATOM     14  C   UNL     1       7.961  -0.596   3.318  0.00  0.00    +0.008 A 
ATOM     15  C   UNL     1       8.305  -1.570   4.248  0.00  0.00    +0.015 A 
ATOM     16  C   UNL     1       8.847  -1.201   5.464  0.00  0.00    +0.001 A 
ENDBRANCH  10  14
ENDBRANCH   9  10
ENDBRANCH   4   9
ENDBRANCH   1   4
BRANCH   1  17
ATOM     17  C   UNL     1       5.960  -5.491  -0.691  0.00  0.00    -0.048 C 
BRANCH  17  18
ATOM     18  N   UNL     1       5.599  -6.906  -0.532  0.00  0.00    +0.391 N 
ATOM     19  C   UNL     1       6.807  -7.687  -0.237  0.00  0.00    -0.074 C 
ATOM     20  C   UNL     1       6.426  -9.149   0.001  0.00  0.00    -0.025 C 
ATOM     21  C   UNL     1       7.676  -9.966   0.320  0.00  0.00    +0.002 C 
ATOM     22  C   UNL     1       8.647  -9.904  -0.861  0.00  0.00    +0.000 C 
ATOM     23  C   UNL     1       7.966 -10.475  -2.107  0.00  0.00    +0.000 C 
ATOM     24  C   UNL     1       6.721  -9.648  -2.430  0.00  0.00    +0.004 C 
ATOM     25  C   UNL     1       5.754  -9.708  -1.256  0.00  0.00    -0.011 C 
ATOM     26  C   UNL     1       4.531  -8.845  -1.587  0.00  0.00    -0.001 C 
ATOM     27  C   UNL     1       4.979  -7.393  -1.770  0.00  0.00    +0.047 C 
ATOM     28  H   UNL     1       4.946  -7.002   0.231  0.00  0.00    -0.081 HD
BRANCH  27  29
ATOM     29  C   UNL     1       3.783  -6.537  -2.100  0.00  0.00    +0.343 C 
ATOM     30  O   UNL     1       3.384  -6.465  -3.250  0.00  0.00    -0.248 OA
ATOM     31  O   UNL     1       3.214  -5.918  -1.218  0.00  0.00    -0.248 OA
ENDBRANCH  27  29
ENDBRANCH  17  18
ENDBRANCH   1  17
TORSDOF 9
