REMARK  Name = ZINC18125586
REMARK  5 active torsions:
REMARK  status: ('A' for Active; 'I' for Inactive)
REMARK    1  A    between atoms: C_4  and  N_11
REMARK    2  A    between atoms: C_5  and  C_7
REMARK    3  A    between atoms: C_12  and  C_14
REMARK    4  A    between atoms: C_14  and  N_57
REMARK    5  A    between atoms: C_20  and  C_22
REMARK                            x       y       z     vdW  Elec       q    Type
REMARK                         _______ _______ _______ _____ _____    ______ ____
ROOT
ATOM      1  C   UNL     1      -5.891   1.498  -0.830  0.00  0.00    -0.059 C 
ATOM      2  C   UNL     1      -4.907   0.947   0.208  0.00  0.00    +0.089 C 
ATOM      3  N   UNL     1      -3.641   1.688   0.090  0.00  0.00    -0.301 N 
ATOM      4  C   UNL     1      -3.690   3.157   0.113  0.00  0.00    +0.089 C 
ATOM      5  C   UNL     1      -4.723   3.622  -0.926  0.00  0.00    -0.059 C 
ATOM      6  C   UNL     1      -2.467   1.036  -0.029  0.00  0.00    +0.247 C 
ATOM      7  O   UNL     1      -2.453  -0.174  -0.142  0.00  0.00    -0.270 OA
ATOM      8  N   UNL     1      -6.014   2.960  -0.638  0.00  0.00    +0.387 N 
ATOM      9  H   UNL     1      -6.273   3.147   0.338  0.00  0.00    -0.081 HD
ENDROOT
BRANCH   6  10
ATOM     10  C   UNL     1      -1.200   1.792  -0.023  0.00  0.00    +0.042 A 
ATOM     11  C   UNL     1      -1.086   2.962   0.734  0.00  0.00    +0.062 A 
ATOM     12  C   UNL     1       0.105   3.660   0.738  0.00  0.00    +0.164 A 
ATOM     13  C   UNL     1       1.184   3.205  -0.011  0.00  0.00    +0.180 A 
ATOM     14  C   UNL     1       1.073   2.047  -0.768  0.00  0.00    +0.087 A 
ATOM     15  C   UNL     1      -0.114   1.343  -0.778  0.00  0.00    +0.037 A 
ATOM     16 CL   UNL     1       2.424   1.485  -1.702  0.00  0.00    -0.080 Cl
ATOM     17  O   UNL     1       2.354   3.905   0.002  0.00  0.00    -0.487 OA
ATOM     18  C   UNL     1       3.073   3.898   1.237  0.00  0.00    +0.232 C 
ATOM     19  C   UNL     1       2.550   4.978   2.171  0.00  0.00    +0.082 C 
ATOM     20  C   UNL     1       1.112   4.726   2.598  0.00  0.00    +0.232 C 
ATOM     21  O   UNL     1       0.230   4.801   1.476  0.00  0.00    -0.488 OA
ENDBRANCH   6  10
BRANCH   8  22
ATOM     22  C   UNL     1      -7.065   3.498  -1.526  0.00  0.00    +0.019 C 
BRANCH  22  24
ATOM     23  N   UNL     1      -8.259   5.645  -1.818  0.00  0.00    -0.287 N 
ATOM     24  C   UNL     1      -7.321   4.937  -1.158  0.00  0.00    +0.201 C 
ATOM     25  O   UNL     1      -6.683   5.458  -0.268  0.00  0.00    -0.278 OA
ATOM     26  H   UNL     1      -8.823   5.208  -2.475  0.00  0.00    +0.155 HD
BRANCH  23  30
ATOM     27  C   UNL     1      -8.733   9.710  -1.037  0.00  0.00    +0.001 A 
ATOM     28  C   UNL     1      -7.518   9.097  -0.791  0.00  0.00    +0.002 A 
ATOM     29  C   UNL     1      -7.359   7.749  -1.044  0.00  0.00    +0.024 A 
ATOM     30  C   UNL     1      -8.418   7.010  -1.556  0.00  0.00    +0.045 A 
ATOM     31  C   UNL     1      -9.637   7.628  -1.801  0.00  0.00    +0.076 A 
ATOM     32  C   UNL     1      -9.791   8.976  -1.541  0.00  0.00    +0.014 A 
BRANCH  31  33
ATOM     33  C   UNL     1     -10.791   6.829  -2.350  0.00  0.00    +0.419 C 
ATOM     34  F   UNL     1     -11.901   7.664  -2.511  0.00  0.00    -0.166 F 
ATOM     35  F   UNL     1     -10.433   6.284  -3.588  0.00  0.00    -0.166 F 
ATOM     36  F   UNL     1     -11.108   5.797  -1.460  0.00  0.00    -0.166 F 
ENDBRANCH  31  33
ENDBRANCH  23  30
ENDBRANCH  22  24
ENDBRANCH   8  22
TORSDOF 5
