REMARK  Name = ZINC36704396
REMARK  12 active torsions:
REMARK  status: ('A' for Active; 'I' for Inactive)
REMARK    1  A    between atoms: C_1  and  C_2
REMARK    2  A    between atoms: C_2  and  N_3
REMARK    3  A    between atoms: N_3  and  C_4
REMARK    4  A    between atoms: N_3  and  C_6
REMARK    5  A    between atoms: C_4  and  C_5
REMARK    6  A    between atoms: C_6  and  C_7
REMARK    7  A    between atoms: C_7  and  N_8
REMARK    8  A    between atoms: C_12  and  C_19
REMARK    9  A    between atoms: C_15  and  C_18
REMARK   10  A    between atoms: C_20  and  C_22
REMARK   11  A    between atoms: N_27  and  S_28
REMARK   12  A    between atoms: S_28  and  C_31
REMARK                            x       y       z     vdW  Elec       q    Type
REMARK                         _______ _______ _______ _____ _____    ______ ____
ROOT
ATOM      1  N   UNL     1      -1.060  -3.799  -1.835  0.00  0.00    -0.251 N 
ATOM      2  C   UNL     1      -1.575  -4.612  -0.840  0.00  0.00    +0.168 A 
ATOM      3  N   UNL     1      -1.232  -4.684   0.425  0.00  0.00    -0.224 NA
ATOM      4  C   UNL     1      -1.825  -5.533   1.292  0.00  0.00    +0.083 A 
ATOM      5  C   UNL     1      -1.551  -5.708   2.668  0.00  0.00    -0.024 A 
ATOM      6  C   UNL     1      -2.253  -6.622   3.411  0.00  0.00    +0.006 A 
ATOM      7  C   UNL     1      -3.250  -7.403   2.845  0.00  0.00    +0.005 A 
ATOM      8  C   UNL     1      -3.545  -7.258   1.502  0.00  0.00    -0.035 A 
ATOM      9  C   UNL     1      -2.847  -6.345   0.750  0.00  0.00    +0.044 A 
ATOM     10  S   UNL     1      -2.883  -5.827  -0.948  0.00  0.00    -0.052 S 
ATOM     11  C   UNL     1      -4.624  -8.097   0.867  0.00  0.00    +0.045 C 
ATOM     12  C   UNL     1      -0.476  -4.882   3.325  0.00  0.00    +0.046 C 
ATOM     13  C   UNL     1      -1.556  -3.868  -3.087  0.00  0.00    +0.240 C 
ATOM     14  O   UNL     1      -2.513  -4.577  -3.321  0.00  0.00    -0.273 OA
ENDROOT
BRANCH  13  15
ATOM     15  C   UNL     1      -0.923  -3.066  -4.194  0.00  0.00    +0.166 C 
ATOM     16  C   UNL     1      -1.659  -1.720  -4.354  0.00  0.00    +0.031 C 
ATOM     17  C   UNL     1      -1.676  -1.513  -5.892  0.00  0.00    +0.019 C 
ATOM     18  C   UNL     1      -1.848  -2.967  -6.399  0.00  0.00    +0.110 C 
ATOM     19  N   UNL     1      -1.047  -3.789  -5.469  0.00  0.00    -0.164 NA
BRANCH  19  20
ATOM     20  S   UNL     1      -0.397  -5.275  -5.803  0.00  0.00    +0.068 S 
ATOM     21  O   UNL     1      -0.257  -5.349  -7.215  0.00  0.00    -0.152 OA
ATOM     22  O   UNL     1       0.702  -5.445  -4.918  0.00  0.00    -0.152 OA
BRANCH  20  23
ATOM     23  C   UNL     1      -1.598  -6.483  -5.351  0.00  0.00    +0.143 A 
ATOM     24  C   UNL     1      -2.582  -7.031  -6.105  0.00  0.00    +0.036 A 
ATOM     25  C   UNL     1      -3.418  -7.973  -5.535  0.00  0.00    +0.010 A 
ATOM     26  C   UNL     1      -3.228  -8.320  -4.239  0.00  0.00    +0.047 A 
ATOM     27  S   UNL     1      -1.830  -7.307  -3.785  0.00  0.00    -0.077 S 
ENDBRANCH  20  23
ENDBRANCH  19  20
ENDBRANCH  13  15
BRANCH   1  28
ATOM     28  C   UNL     1       0.023  -2.862  -1.528  0.00  0.00    +0.097 C 
BRANCH  28  29
ATOM     29  C   UNL     1       1.370  -3.572  -1.681  0.00  0.00    -0.059 C 
BRANCH  29  30
ATOM     30  N   UNL     1       2.457  -2.633  -1.374  0.00  0.00    +0.380 N 
ATOM     31  H   UNL     1       2.366  -1.812  -1.954  0.00  0.00    -0.082 HD
BRANCH  30  33
ATOM     32  C   UNL     1       3.435  -1.173   0.332  0.00  0.00    -0.017 C 
ATOM     33  C   UNL     1       2.381  -2.243   0.041  0.00  0.00    -0.082 C 
ENDBRANCH  30  33
BRANCH  30  34
ATOM     34  C   UNL     1       3.750  -3.278  -1.636  0.00  0.00    -0.082 C 
ATOM     35  C   UNL     1       3.884  -3.562  -3.133  0.00  0.00    -0.017 C 
ENDBRANCH  30  34
ENDBRANCH  29  30
ENDBRANCH  28  29
ENDBRANCH   1  28
TORSDOF 8
