REMARK  Name = ZINC20465305
REMARK  12 active torsions:
REMARK  status: ('A' for Active; 'I' for Inactive)
REMARK    1  A    between atoms: C_1  and  C_2
REMARK    2  A    between atoms: C_5  and  S_8
REMARK    3  A    between atoms: S_8  and  N_11
REMARK    4  A    between atoms: N_11  and  C_12
REMARK    5  A    between atoms: C_12  and  C_13
REMARK    6  A    between atoms: C_15  and  N_25
REMARK    7  A    between atoms: C_17  and  O_24
REMARK    8  A    between atoms: C_19  and  C_22
REMARK    9  A    between atoms: C_22  and  O_23
REMARK   10  A    between atoms: C_29  and  C_31
REMARK   11  A    between atoms: C_31  and  O_32
REMARK   12  A    between atoms: O_32  and  C_33
REMARK                            x       y       z     vdW  Elec       q    Type
REMARK                         _______ _______ _______ _____ _____    ______ ____
ROOT
ATOM      1  C   UNL     1       1.786   1.408   0.301  0.00  0.00    +0.123 C 
ATOM      2  C   UNL     1       3.266   1.822   0.188  0.00  0.00    -0.006 C 
ATOM      3  C   UNL     1       3.807   0.968  -0.989  0.00  0.00    +0.134 C 
ATOM      4  C   UNL     1       2.779  -0.191  -1.048  0.00  0.00    +0.171 C 
ATOM      5  O   UNL     1       1.525   0.455  -0.743  0.00  0.00    -0.369 OA
ENDROOT
BRANCH   2   6
ATOM      6  N   UNL     1       3.377   3.254  -0.122  0.00  0.00    +0.388 N 
ATOM      7  C   UNL     1       2.723   4.071   0.916  0.00  0.00    -0.078 C 
ATOM      8  C   UNL     1       3.783   5.050   1.464  0.00  0.00    -0.020 C 
ATOM      9  C   UNL     1       4.821   5.119   0.313  0.00  0.00    -0.015 C 
ATOM     10  C   UNL     1       4.793   3.666  -0.222  0.00  0.00    -0.042 C 
ATOM     11  H   UNL     1       2.873   3.410  -1.087  0.00  0.00    -0.081 HD
BRANCH  10  12
ATOM     12  C   UNL     1       5.258   3.626  -1.680  0.00  0.00    +0.144 C 
BRANCH  12  13
ATOM     13  O   UNL     1       4.398   4.444  -2.476  0.00  0.00    -0.385 OA
ATOM     14  C   UNL     1       4.747   4.476  -3.861  0.00  0.00    +0.193 C 
ENDBRANCH  12  13
ENDBRANCH  10  12
ENDBRANCH   2   6
BRANCH   3  15
ATOM     15  O   UNL     1       3.804   1.714  -2.207  0.00  0.00    -0.391 OA
ATOM     16  H   UNL     1       4.159   1.249  -3.139  0.00  0.00    +0.210 HD
ENDBRANCH   3  15
BRANCH   1  17
ATOM     17  C   UNL     1       0.888   2.634   0.123  0.00  0.00    +0.136 C 
BRANCH  17  18
ATOM     18  N   UNL     1      -0.506   2.202  -0.013  0.00  0.00    -0.188 NA
ATOM     19  H   UNL     1      -0.735   1.191  -0.381  0.00  0.00    +0.148 HD
BRANCH  18  20
ATOM     20  S   UNL     1      -1.733   3.303   0.147  0.00  0.00    +0.058 S 
ATOM     21  O   UNL     1      -2.945   2.594  -0.068  0.00  0.00    -0.153 OA
ATOM     22  O   UNL     1      -1.476   4.027   1.342  0.00  0.00    -0.153 OA
BRANCH  20  27
ATOM     23  C   UNL     1      -1.203   7.235  -4.399  0.00  0.00    +0.044 C 
ATOM     24  C   UNL     1      -1.336   6.253  -3.263  0.00  0.00    -0.050 A 
ATOM     25  C   UNL     1      -2.103   5.114  -3.421  0.00  0.00    +0.005 A 
ATOM     26  C   UNL     1      -2.224   4.213  -2.379  0.00  0.00    +0.029 A 
ATOM     27  C   UNL     1      -1.578   4.451  -1.180  0.00  0.00    +0.105 A 
ATOM     28  C   UNL     1      -0.816   5.593  -1.021  0.00  0.00    +0.029 A 
ATOM     29  C   UNL     1      -0.690   6.492  -2.064  0.00  0.00    +0.005 A 
ENDBRANCH  20  27
ENDBRANCH  18  20
ENDBRANCH  17  18
ENDBRANCH   1  17
BRANCH   4  30
ATOM     30  C   UNL     1       2.741  -0.811  -2.446  0.00  0.00    +0.190 C 
BRANCH  30  31
ATOM     31  O   UNL     1       1.797  -1.884  -2.466  0.00  0.00    -0.392 OA
ATOM     32  H   UNL     1       1.630  -2.453  -3.392  0.00  0.00    +0.210 HD
ENDBRANCH  30  31
ENDBRANCH   4  30
TORSDOF 10
