REMARK  Name = ZINC12506421
REMARK  4 active torsions:
REMARK  status: ('A' for Active; 'I' for Inactive)
REMARK    1  A    between atoms: C_6  and  C_10
REMARK    2  A    between atoms: C_10  and  O_11
REMARK    3  A    between atoms: O_11  and  C_12
REMARK    4  A    between atoms: C_15  and  C_18
REMARK                            x       y       z     vdW  Elec       q    Type
REMARK                         _______ _______ _______ _____ _____    ______ ____
ROOT
ATOM      1  C   UNL     1       8.503  -7.571  -0.130  0.00  0.00    +0.209 C 
ATOM      2  N   UNL     1       9.662  -7.298  -1.000  0.00  0.00    -0.294 N 
ATOM      3  C   UNL     1      10.724  -6.581  -0.515  0.00  0.00    +0.160 C 
ATOM      4  N   UNL     1      11.050  -6.611   0.765  0.00  0.00    -0.302 N 
ATOM      5  C   UNL     1      10.268  -7.325   1.611  0.00  0.00    +0.213 A 
ATOM      6  N   UNL     1       9.035  -7.813   1.215  0.00  0.00    -0.286 N 
ATOM      7  C   UNL     1       8.493  -8.501   2.276  0.00  0.00    +0.076 A 
ATOM      8  C   UNL     1       7.313  -9.207   2.472  0.00  0.00    +0.077 A 
ATOM      9  C   UNL     1       7.062  -9.801   3.694  0.00  0.00    +0.164 A 
ATOM     10  C   UNL     1       7.984  -9.699   4.731  0.00  0.00    +0.164 A 
ATOM     11  C   UNL     1       9.160  -9.000   4.554  0.00  0.00    +0.079 A 
ATOM     12  C   UNL     1       9.427  -8.393   3.323  0.00  0.00    +0.095 A 
ATOM     13  N   UNL     1      10.480  -7.654   2.858  0.00  0.00    -0.212 NA
ATOM     14  O   UNL     1       7.718 -10.297   5.930  0.00  0.00    -0.488 OA
ATOM     15  C   UNL     1       6.647  -9.731   6.688  0.00  0.00    +0.232 C 
ATOM     16  C   UNL     1       5.310 -10.297   6.237  0.00  0.00    +0.082 C 
ATOM     17  C   UNL     1       4.972  -9.914   4.804  0.00  0.00    +0.232 C 
ATOM     18  O   UNL     1       5.903 -10.497   3.890  0.00  0.00    -0.488 OA
ATOM     19  N   UNL     1      11.464  -5.817  -1.376  0.00  0.00    -0.332 N 
ATOM     20  H   UNL     1      11.235  -5.787  -2.318  0.00  0.00    +0.145 HD
ATOM     21  H   UNL     1      12.219  -5.305  -1.045  0.00  0.00    +0.145 HD
ATOM     22  H   UNL     1       9.672  -7.625  -1.913  0.00  0.00    +0.151 HD
ATOM     23  H   UNL     1      11.829  -6.135   1.091  0.00  0.00    +0.171 HD
ENDROOT
BRANCH   1  27
ATOM     24  C   UNL     1       5.882  -4.196  -0.082  0.00  0.00    +0.121 A 
ATOM     25  C   UNL     1       5.360  -5.481  -0.091  0.00  0.00    +0.046 A 
ATOM     26  C   UNL     1       6.209  -6.570  -0.106  0.00  0.00    +0.011 A 
ATOM     27  C   UNL     1       7.579  -6.381  -0.114  0.00  0.00    -0.007 A 
ATOM     28  C   UNL     1       8.102  -5.101  -0.105  0.00  0.00    +0.011 A 
ATOM     29  C   UNL     1       7.257  -4.008  -0.095  0.00  0.00    +0.046 A 
BRANCH  24  30
ATOM     30  O   UNL     1       5.049  -3.123  -0.067  0.00  0.00    -0.486 OA
BRANCH  30  31
ATOM     31  C   UNL     1       3.645  -3.391  -0.054  0.00  0.00    +0.286 C 
BRANCH  31  37
ATOM     32  C   UNL     1      -0.016   1.356   0.009  0.00  0.00    +0.005 A 
ATOM     33  C   UNL     1       1.194   2.068   0.002  0.00  0.00    +0.018 A 
ATOM     34  C   UNL     1       2.372   1.409  -0.013  0.00  0.00    +0.092 A 
ATOM     35  N   UNL     1       2.405   0.045  -0.021  0.00  0.00    -0.306 N 
ATOM     36  C   UNL     1       3.434  -0.856  -0.037  0.00  0.00    +0.119 A 
ATOM     37  C   UNL     1       2.885  -2.090  -0.039  0.00  0.00    +0.097 A 
ATOM     38  N   UNL     1       1.556  -1.965  -0.025  0.00  0.00    -0.229 NA
ATOM     39  C   UNL     1       1.240  -0.678  -0.014  0.00  0.00    +0.138 A 
ATOM     40  C   UNL     1       0.002  -0.004   0.002  0.00  0.00    +0.047 A 
ENDBRANCH  31  37
ENDBRANCH  30  31
ENDBRANCH  24  30
ENDBRANCH   1  27
TORSDOF 4
