REMARK  Name = ZINC28939263
REMARK  8 active torsions:
REMARK  status: ('A' for Active; 'I' for Inactive)
REMARK    1  A    between atoms: C_1  and  C_2
REMARK    2  A    between atoms: C_5  and  C_8
REMARK    3  A    between atoms: C_11  and  S_14
REMARK    4  A    between atoms: N_12  and  N_13
REMARK    5  A    between atoms: S_14  and  C_15
REMARK    6  A    between atoms: C_15  and  C_16
REMARK    7  A    between atoms: C_18  and  O_19
REMARK    8  A    between atoms: C_28  and  C_30
REMARK                            x       y       z     vdW  Elec       q    Type
REMARK                         _______ _______ _______ _____ _____    ______ ____
ROOT
ATOM      1  C   UNL     1       0.478  -7.013   0.429  0.00  0.00    +0.113 C 
ENDROOT
BRANCH   1   2
ATOM      2  C   UNL     1      -0.848  -6.301   0.341  0.00  0.00    -0.020 A 
ATOM      3  C   UNL     1      -2.014  -6.998   0.339  0.00  0.00    +0.092 A 
ATOM      4  C   UNL     1      -3.242  -6.309   0.254  0.00  0.00    +0.285 A 
ATOM      5  O   UNL     1      -3.295  -4.970   0.176  0.00  0.00    -0.425 OA
ATOM      6  C   UNL     1      -2.173  -4.219   0.173  0.00  0.00    +0.141 A 
ATOM      7  C   UNL     1      -0.913  -4.841   0.254  0.00  0.00    +0.022 A 
ATOM      8  C   UNL     1       0.252  -4.067   0.252  0.00  0.00    +0.013 A 
ATOM      9  C   UNL     1       0.164  -2.708   0.166  0.00  0.00    +0.024 A 
ATOM     10  C   UNL     1      -1.081  -2.085   0.091  0.00  0.00    +0.037 A 
ATOM     11  C   UNL     1      -2.247  -2.837   0.092  0.00  0.00    +0.070 A 
ATOM     12  N   UNL     1      -1.156  -0.694   0.009  0.00  0.00    -0.286 N 
ATOM     13  C   UNL     1      -2.168  -0.037   0.609  0.00  0.00    +0.214 C 
ATOM     14  O   UNL     1      -3.058  -0.658   1.150  0.00  0.00    -0.276 OA
ATOM     15  C   UNL     1      -2.193   1.470   0.609  0.00  0.00    +0.109 C 
ATOM     16  H   UNL     1      -0.388  -0.134  -0.545  0.00  0.00    +0.155 HD
BRANCH   4  17
ATOM     17  O   UNL     1      -4.280  -6.946   0.253  0.00  0.00    -0.480 OA
ATOM     18  H   UNL     1      -5.246  -6.423   0.188  0.00  0.00    +0.295 HD
ENDBRANCH   4  17
ENDBRANCH   1   2
BRANCH   1  19
ATOM     19  S   UNL     1       1.070  -7.395  -1.238  0.00  0.00    -0.080 S 
BRANCH  19  23
ATOM     20  C   UNL     1       4.506  -9.237  -0.977  0.00  0.00    +0.182 A 
ATOM     21  N   UNL     1       4.198  -9.023   0.281  0.00  0.00    -0.127 NA
ATOM     22  N   UNL     1       3.070  -8.413   0.358  0.00  0.00    -0.121 NA
ATOM     23  C   UNL     1       2.589  -8.198  -0.846  0.00  0.00    +0.209 A 
ATOM     24  N   UNL     1       3.482  -8.720  -1.738  0.00  0.00    -0.224 N 
BRANCH  20  29
ATOM     25  C   UNL     1       9.236 -11.861  -2.942  0.00  0.00    +0.044 C 
ATOM     26  C   UNL     1       7.998 -11.173  -2.427  0.00  0.00    -0.050 A 
ATOM     27  C   UNL     1       7.650 -11.288  -1.093  0.00  0.00    +0.004 A 
ATOM     28  C   UNL     1       6.518 -10.661  -0.616  0.00  0.00    +0.012 A 
ATOM     29  C   UNL     1       5.722  -9.910  -1.482  0.00  0.00    +0.021 A 
ATOM     30  C   UNL     1       6.075  -9.803  -2.828  0.00  0.00    +0.012 A 
ATOM     31  C   UNL     1       7.213 -10.430  -3.291  0.00  0.00    +0.004 A 
ENDBRANCH  20  29
BRANCH  24  32
ATOM     32  N   UNL     1       3.382  -8.726  -3.100  0.00  0.00    -0.295 N 
ATOM     33  H   UNL     1       2.505  -8.276  -3.588  0.00  0.00    +0.163 HD
ATOM     34  H   UNL     1       4.178  -9.180  -3.708  0.00  0.00    +0.163 HD
ENDBRANCH  24  32
ENDBRANCH  19  23
ENDBRANCH   1  19
TORSDOF 6
