REMARK  Name = ZINC42398054
REMARK  10 active torsions:
REMARK  status: ('A' for Active; 'I' for Inactive)
REMARK    1  A    between atoms: C_1  and  N_2
REMARK    2  A    between atoms: N_2  and  C_3
REMARK    3  A    between atoms: N_2  and  C_10
REMARK    4  A    between atoms: C_3  and  C_4
REMARK    5  A    between atoms: C_10  and  C_11
REMARK    6  A    between atoms: C_11  and  C_13
REMARK    7  A    between atoms: C_11  and  O_22
REMARK    8  A    between atoms: C_13  and  O_14
REMARK    9  A    between atoms: O_14  and  C_15
REMARK   10  A    between atoms: C_20  and  N_21
REMARK                            x       y       z     vdW  Elec       q    Type
REMARK                         _______ _______ _______ _____ _____    ______ ____
ROOT
ATOM      1  C   UNL     1      -0.016   0.148  -2.442  0.00  0.00    +0.135 C 
ENDROOT
BRANCH   1   2
ATOM      2  O   UNL     1       0.065   1.574  -2.487  0.00  0.00    -0.390 OA
ATOM      3  H   UNL     1       0.968   1.915  -2.544  0.00  0.00    +0.210 HD
ENDBRANCH   1   2
BRANCH   1   4
ATOM      4  C   UNL     1       0.739  -0.368  -1.216  0.00  0.00    -0.044 C 
BRANCH   4   6
ATOM      5  C   UNL     1       0.875  -0.265   1.177  0.00  0.00    -0.096 C 
ATOM      6  N   UNL     1       0.068   0.100   0.005  0.00  0.00    +0.383 N 
ATOM      7  H   UNL     1      -0.037   1.102  -0.032  0.00  0.00    -0.082 HD
BRANCH   6   8
ATOM      8  C   UNL     1      -1.256  -0.529   0.107  0.00  0.00    -0.036 C 
BRANCH   8   9
ATOM      9  C   UNL     1      -1.993   0.042   1.291  0.00  0.00    -0.026 A 
ATOM     10  C   UNL     1      -2.819   1.116   1.345  0.00  0.00    +0.024 A 
ATOM     11  C   UNL     1      -3.392   1.460   2.556  0.00  0.00    +0.025 A 
ATOM     12  C   UNL     1      -3.109   0.714   3.652  0.00  0.00    +0.060 A 
ATOM     13  S   UNL     1      -2.010  -0.524   2.984  0.00  0.00    -0.102 S 
ATOM     14 BR   UNL     1      -4.550   2.950   2.680  0.00  0.00    -0.050 Br
ENDBRANCH   8   9
ENDBRANCH   6   8
ENDBRANCH   4   6
ENDBRANCH   1   4
BRANCH   1  15
ATOM     15  C   UNL     1       0.609  -0.439  -3.710  0.00  0.00    +0.258 C 
BRANCH  15  16
ATOM     16  O   UNL     1      -0.166  -0.051  -4.846  0.00  0.00    -0.488 OA
BRANCH  16  17
ATOM     17  C   UNL     1       0.257  -0.493  -6.061  0.00  0.00    +0.141 A 
ATOM     18  C   UNL     1       1.388  -1.285  -6.157  0.00  0.00    +0.047 A 
ATOM     19  C   UNL     1       1.817  -1.733  -7.393  0.00  0.00    +0.004 A 
ATOM     20  C   UNL     1       1.119  -1.392  -8.536  0.00  0.00    +0.002 A 
ATOM     21  C   UNL     1      -0.012  -0.602  -8.449  0.00  0.00    +0.026 A 
ATOM     22  C   UNL     1      -0.451  -0.153  -7.212  0.00  0.00    +0.067 A 
BRANCH  22  23
ATOM     23  N   UNL     1      -1.599   0.642  -7.121  0.00  0.00    -0.355 N 
ATOM     24  H   UNL     1      -1.903   0.958  -6.256  0.00  0.00    +0.142 HD
ATOM     25  H   UNL     1      -2.091   0.878  -7.923  0.00  0.00    +0.142 HD
ENDBRANCH  22  23
ENDBRANCH  16  17
ENDBRANCH  15  16
ENDBRANCH   1  15
TORSDOF 9
