REMARK  Name = ZINC36485204
REMARK  14 active torsions:
REMARK  status: ('A' for Active; 'I' for Inactive)
REMARK    1  A    between atoms: C_1  and  C_2
REMARK    2  A    between atoms: C_2  and  C_3
REMARK    3  A    between atoms: C_3  and  C_4
REMARK    4  A    between atoms: C_4  and  N_5
REMARK    5  A    between atoms: C_6  and  C_8
REMARK    6  A    between atoms: C_8  and  C_10
REMARK    7  A    between atoms: C_8  and  N_19
REMARK    8  A    between atoms: C_13  and  O_18
REMARK    9  A    between atoms: C_14  and  O_16
REMARK   10  A    between atoms: O_16  and  C_17
REMARK   11  A    between atoms: N_19  and  C_20
REMARK   12  A    between atoms: C_27  and  C_29
REMARK   13  A    between atoms: C_33  and  O_36
REMARK   14  A    between atoms: C_34  and  O_35
REMARK                            x       y       z     vdW  Elec       q    Type
REMARK                         _______ _______ _______ _____ _____    ______ ____
ROOT
ATOM      1  N   UNL     1       1.654  -4.732   5.869  0.00  0.00    -0.251 N 
ATOM      2  C   UNL     1       0.734  -5.652   5.518  0.00  0.00    +0.255 C 
ATOM      3  O   UNL     1       0.737  -6.748   6.045  0.00  0.00    -0.269 OA
ENDROOT
BRANCH   1   4
ATOM      4  C   UNL     1       2.540  -4.995   6.919  0.00  0.00    +0.039 A 
ATOM      5  C   UNL     1       2.384  -4.349   8.139  0.00  0.00    +0.023 A 
ATOM      6  C   UNL     1       3.260  -4.610   9.174  0.00  0.00    +0.003 A 
ATOM      7  C   UNL     1       4.293  -5.514   8.997  0.00  0.00    +0.020 A 
ATOM      8  C   UNL     1       4.451  -6.159   7.783  0.00  0.00    +0.043 A 
ATOM      9  C   UNL     1       3.573  -5.906   6.745  0.00  0.00    +0.043 A 
ATOM     10 CL   UNL     1       5.748  -7.291   7.565  0.00  0.00    -0.083 Cl
ENDBRANCH   1   4
BRANCH   2  11
ATOM     11  C   UNL     1      -0.277  -5.330   4.492  0.00  0.00    +0.082 A 
ATOM     12  C   UNL     1       0.116  -4.797   3.261  0.00  0.00    +0.017 A 
ATOM     13  C   UNL     1      -0.830  -4.498   2.306  0.00  0.00    +0.005 A 
ATOM     14  C   UNL     1      -2.174  -4.722   2.558  0.00  0.00    +0.049 A 
ATOM     15  C   UNL     1      -2.579  -5.249   3.772  0.00  0.00    +0.159 A 
ATOM     16  C   UNL     1      -1.634  -5.563   4.745  0.00  0.00    +0.171 A 
BRANCH  16  17
ATOM     17  O   UNL     1      -2.027  -6.085   5.934  0.00  0.00    -0.503 OA
ATOM     18  H   UNL     1      -2.218  -5.422   6.612  0.00  0.00    +0.292 HD
ENDBRANCH  16  17
BRANCH  15  19
ATOM     19  O   UNL     1      -3.900  -5.466   4.013  0.00  0.00    -0.503 OA
ATOM     20  H   UNL     1      -4.208  -6.345   3.753  0.00  0.00    +0.292 HD
ENDBRANCH  15  19
ENDBRANCH   2  11
BRANCH   1  21
ATOM     21  C   UNL     1       1.725  -3.457   5.152  0.00  0.00    +0.198 C 
BRANCH  21  22
ATOM     22  C   UNL     1       1.478  -2.324   6.115  0.00  0.00    -0.014 A 
ATOM     23  C   UNL     1       2.522  -1.816   6.865  0.00  0.00    +0.010 A 
ATOM     24  C   UNL     1       2.301  -0.777   7.750  0.00  0.00    +0.049 A 
ATOM     25  C   UNL     1       1.030  -0.243   7.886  0.00  0.00    +0.158 A 
ATOM     26  C   UNL     1      -0.021  -0.753   7.130  0.00  0.00    +0.162 A 
ATOM     27  C   UNL     1       0.209  -1.792   6.242  0.00  0.00    +0.055 A 
BRANCH  26  28
ATOM     28  O   UNL     1      -1.270  -0.232   7.260  0.00  0.00    -0.491 OA
ATOM     29  C   UNL     1      -2.300  -0.806   6.453  0.00  0.00    +0.277 C 
ENDBRANCH  26  28
BRANCH  25  30
ATOM     30  O   UNL     1       0.810   0.779   8.756  0.00  0.00    -0.503 OA
ATOM     31  H   UNL     1       0.924   1.658   8.368  0.00  0.00    +0.292 HD
ENDBRANCH  25  30
ENDBRANCH  21  22
BRANCH  21  33
ATOM     32  N   UNL     1       3.389  -2.199   3.823  0.00  0.00    -0.313 N 
ATOM     33  C   UNL     1       3.092  -3.303   4.536  0.00  0.00    +0.238 C 
ATOM     34  O   UNL     1       3.924  -4.173   4.681  0.00  0.00    -0.273 OA
ATOM     35  H   UNL     1       2.724  -1.503   3.706  0.00  0.00    +0.149 HD
BRANCH  32  36
ATOM     36  C   UNL     1       4.718  -2.049   3.224  0.00  0.00    +0.104 C 
BRANCH  36  37
ATOM     37  C   UNL     1       4.793  -0.717   2.475  0.00  0.00    +0.018 C 
BRANCH  37  39
ATOM     38  C   UNL     1       6.255   0.771   1.100  0.00  0.00    +0.004 C 
ATOM     39  C   UNL     1       6.181  -0.561   1.849  0.00  0.00    -0.002 C 
ENDBRANCH  37  39
ENDBRANCH  36  37
ENDBRANCH  32  36
ENDBRANCH  21  33
ENDBRANCH   1  21
TORSDOF 12
