REMARK  Name = ZINC63187745
REMARK  3 active torsions:
REMARK  status: ('A' for Active; 'I' for Inactive)
REMARK    1  A    between atoms: C_1  and  C_2
REMARK    2  A    between atoms: N_7  and  C_8
REMARK    3  A    between atoms: C_8  and  C_10
REMARK                            x       y       z     vdW  Elec       q    Type
REMARK                         _______ _______ _______ _____ _____    ______ ____
ROOT
ATOM      1  C   UNL     1       0.016  -4.418   2.178  0.00  0.00    +0.286 C 
ATOM      2  O   UNL     1       0.038  -4.976   1.097  0.00  0.00    -0.266 OA
ENDROOT
BRANCH   1   3
ATOM      3  C   UNL     1      -0.053  -5.219   3.425  0.00  0.00    +0.128 A 
ATOM      4  C   UNL     1      -0.086  -6.619   3.340  0.00  0.00    +0.034 A 
ATOM      5  C   UNL     1      -0.149  -7.367   4.480  0.00  0.00    +0.012 A 
ATOM      6  C   UNL     1      -0.179  -6.695   5.717  0.00  0.00    +0.000 A 
ATOM      7  C   UNL     1      -0.243  -7.402   6.928  0.00  0.00    +0.010 A 
ATOM      8  C   UNL     1      -0.269  -6.719   8.106  0.00  0.00    +0.001 A 
ATOM      9  C   UNL     1      -0.234  -5.325   8.126  0.00  0.00    +0.002 A 
ATOM     10  C   UNL     1      -0.172  -4.607   6.973  0.00  0.00    +0.028 A 
ATOM     11  C   UNL     1      -0.142  -5.277   5.734  0.00  0.00    +0.072 A 
ATOM     12  N   UNL     1      -0.076  -4.598   4.589  0.00  0.00    -0.242 NA
ENDBRANCH   1   3
BRANCH   1  19
ATOM     13  C   UNL     1      -1.949   1.354   0.720  0.00  0.00    +0.061 C 
ATOM     14  C   UNL     1      -1.927  -0.148   0.841  0.00  0.00    +0.021 C 
ATOM     15  N   UNL     1      -2.874  -0.866   0.324  0.00  0.00    -0.264 NA
ATOM     16  C   UNL     1      -2.916  -2.198   0.394  0.00  0.00    +0.112 C 
ATOM     17  C   UNL     1      -1.983  -2.963   1.010  0.00  0.00    +0.041 C 
ATOM     18  C   UNL     1      -0.873  -2.362   1.634  0.00  0.00    +0.041 C 
ATOM     19  N   UNL     1       0.054  -3.078   2.242  0.00  0.00    -0.179 NA
ATOM     20  C   UNL     1      -0.794  -0.847   1.565  0.00  0.00    +0.103 C 
ENDBRANCH   1  19
TORSDOF 2
