REMARK  Name = ZINC00724776
REMARK  5 active torsions:
REMARK  status: ('A' for Active; 'I' for Inactive)
REMARK    1  A    between atoms: C_10  and  C_12
REMARK    2  A    between atoms: N_14  and  C_15
REMARK    3  A    between atoms: C_15  and  N_17
REMARK    4  A    between atoms: N_17  and  C_18
REMARK    5  A    between atoms: C_19  and  C_26
REMARK                            x       y       z     vdW  Elec       q    Type
REMARK                         _______ _______ _______ _____ _____    ______ ____
ROOT
ATOM      1  C   UNL     1      -4.918   3.764  -0.034  0.00  0.00    +0.141 C 
ATOM      2  S   UNL     1      -4.966   5.470   0.104  0.00  0.00    -0.018 S 
ENDROOT
BRANCH   1   5
ATOM      3  C   UNL     1      -2.585   3.824   0.046  0.00  0.00    +0.250 C 
ATOM      4  O   UNL     1      -2.620   5.035   0.144  0.00  0.00    -0.270 OA
ATOM      5  N   UNL     1      -3.732   3.122  -0.048  0.00  0.00    -0.264 N 
ATOM      6  H   UNL     1      -3.705   2.156  -0.127  0.00  0.00    +0.157 HD
BRANCH   3  16
ATOM      7  C   UNL     1      -0.012   1.076   0.030  0.00  0.00    +0.001 A 
ATOM      8  C   UNL     1       1.168   1.754   0.001  0.00  0.00    +0.009 A 
ATOM      9  C   UNL     1       1.188   3.158  -0.015  0.00  0.00    -0.003 A 
ATOM     10  C   UNL     1      -0.036   3.872  -0.001  0.00  0.00    -0.005 A 
ATOM     11  C   UNL     1      -0.020   5.271  -0.018  0.00  0.00    +0.009 A 
ATOM     12  C   UNL     1       1.172   5.932  -0.048  0.00  0.00    +0.002 A 
ATOM     13  C   UNL     1       2.377   5.235  -0.061  0.00  0.00    +0.016 A 
ATOM     14  C   UNL     1       2.399   3.872  -0.046  0.00  0.00    +0.026 A 
ATOM     15 BR   UNL     1       4.048   2.948  -0.065  0.00  0.00    -0.050 Br
ATOM     16  C   UNL     1      -1.290   3.122   0.031  0.00  0.00    +0.045 A 
ATOM     17  C   UNL     1      -1.234   1.734   0.040  0.00  0.00    +0.014 A 
ENDBRANCH   3  16
ENDBRANCH   1   5
BRANCH   1  18
ATOM     18  N   UNL     1      -6.065   3.063  -0.129  0.00  0.00    -0.291 N 
ATOM     19  H   UNL     1      -6.037   2.096  -0.207  0.00  0.00    +0.154 HD
BRANCH  18  20
ATOM     20  C   UNL     1      -7.283   3.723  -0.114  0.00  0.00    +0.084 A 
ATOM     21  C   UNL     1      -8.555   3.183  -0.205  0.00  0.00    +0.068 A 
ATOM     22  C   UNL     1      -9.688   4.107  -0.160  0.00  0.00    -0.023 A 
ATOM     23  C   UNL     1      -9.360   5.407  -0.043  0.00  0.00    -0.004 A 
ATOM     24  S   UNL     1      -7.585   5.422   0.015  0.00  0.00    -0.077 S 
ATOM     25  C   UNL     1     -10.575   6.294  -0.006  0.00  0.00    +0.043 C 
ATOM     26  C   UNL     1     -11.745   5.338   0.318  0.00  0.00    +0.010 C 
ATOM     27  C   UNL     1     -11.211   3.996  -0.220  0.00  0.00    +0.037 C 
BRANCH  21  28
ATOM     28  C   UNL     1      -8.759   1.737  -0.337  0.00  0.00    +0.244 C 
ATOM     29  O   UNL     1      -8.881   1.046   0.658  0.00  0.00    -0.270 OA
ATOM     30  N   UNL     1      -8.812   1.173  -1.560  0.00  0.00    -0.325 N 
ATOM     31  H   UNL     1      -8.715   1.724  -2.353  0.00  0.00    +0.145 HD
ATOM     32  H   UNL     1      -8.947   0.217  -1.647  0.00  0.00    +0.145 HD
ENDBRANCH  21  28
ENDBRANCH  18  20
ENDBRANCH   1  18
TORSDOF 5
