REMARK  Name = ZINC44165650
REMARK  8 active torsions:
REMARK  status: ('A' for Active; 'I' for Inactive)
REMARK    1  A    between atoms: C_1  and  C_2
REMARK    2  A    between atoms: C_2  and  C_32
REMARK    3  A    between atoms: C_7  and  C_12
REMARK    4  A    between atoms: C_12  and  N_13
REMARK    5  A    between atoms: C_14  and  C_16
REMARK    6  A    between atoms: C_21  and  C_24
REMARK    7  A    between atoms: C_29  and  O_30
REMARK    8  A    between atoms: O_30  and  C_31
REMARK                            x       y       z     vdW  Elec       q    Type
REMARK                         _______ _______ _______ _____ _____    ______ ____
ROOT
ATOM      1  C   UNL     1       0.596  -6.428   3.682  0.00  0.00    +0.027 C 
ATOM      2  C   UNL     1      -0.931  -6.562   3.628  0.00  0.00    +0.062 C 
ATOM      3  S   UNL     1      -1.349  -8.334   3.641  0.00  0.00    -0.163 S 
ATOM      4  C   UNL     1      -0.374  -8.963   5.043  0.00  0.00    +0.058 C 
ATOM      5  C   UNL     1       1.069  -8.470   4.885  0.00  0.00    -0.026 C 
ATOM      6  N   UNL     1       1.101  -7.006   4.929  0.00  0.00    +0.392 N 
ATOM      7  H   UNL     1       2.051  -6.701   5.074  0.00  0.00    -0.084 HD
ATOM      8  H   UNL     1       0.531  -6.685   5.697  0.00  0.00    -0.084 HD
ENDROOT
BRANCH   5   9
ATOM      9  C   UNL     1       1.912  -9.021   6.006  0.00  0.00    -0.019 A 
ATOM     10  C   UNL     1       2.123  -8.271   7.146  0.00  0.00    +0.005 A 
ATOM     11  C   UNL     1       2.897  -8.776   8.174  0.00  0.00    +0.000 A 
ATOM     12  C   UNL     1       3.461 -10.033   8.065  0.00  0.00    +0.004 A 
ATOM     13  C   UNL     1       3.253 -10.788   6.927  0.00  0.00    +0.046 A 
ATOM     14  C   UNL     1       2.472 -10.286   5.896  0.00  0.00    +0.122 A 
BRANCH  14  15
ATOM     15  O   UNL     1       2.261 -11.029   4.777  0.00  0.00    -0.495 OA
ATOM     16  C   UNL     1       2.869 -12.321   4.733  0.00  0.00    +0.277 C 
ENDBRANCH  14  15
ENDBRANCH   5   9
BRANCH   1  18
ATOM     17  N   UNL     1       0.615  -4.229   2.550  0.00  0.00    -0.316 N 
ATOM     18  C   UNL     1       0.973  -4.971   3.617  0.00  0.00    +0.200 C 
ATOM     19  O   UNL     1       1.599  -4.465   4.524  0.00  0.00    -0.278 OA
ATOM     20  H   UNL     1       0.114  -4.633   1.824  0.00  0.00    +0.149 HD
BRANCH  17  21
ATOM     21  C   UNL     1       0.982  -2.812   2.486  0.00  0.00    +0.108 C 
BRANCH  21  27
ATOM     22  C   UNL     1      -0.036   1.522   0.104  0.00  0.00    +0.011 C 
ATOM     23  C   UNL     1       0.002  -0.004   0.002  0.00  0.00    -0.029 C 
ATOM     24  C   UNL     1       1.124  -0.539  -0.908  0.00  0.00    -0.005 C 
ATOM     25  C   UNL     1       0.892  -2.018  -1.267  0.00  0.00    +0.004 C 
ATOM     26  C   UNL     1       1.166  -2.861  -0.013  0.00  0.00    +0.005 C 
ATOM     27  C   UNL     1       0.458  -2.207   1.182  0.00  0.00    +0.010 C 
ATOM     28  C   UNL     1       0.767  -0.686   1.152  0.00  0.00    -0.000 C 
ATOM     29  C   UNL     1       2.038  -0.396   0.327  0.00  0.00    +0.008 C 
ATOM     30  C   UNL     1      -1.371  -0.619  -0.278  0.00  0.00    +0.011 C 
ENDBRANCH  21  27
ENDBRANCH  17  21
ENDBRANCH   1  18
TORSDOF 5
