REMARK  Name = ZINC62354544
REMARK  2 active torsions:
REMARK  status: ('A' for Active; 'I' for Inactive)
REMARK    1  A    between atoms: C_2  and  C_13
REMARK    2  A    between atoms: C_13  and  C_15
REMARK                            x       y       z     vdW  Elec       q    Type
REMARK                         _______ _______ _______ _____ _____    ______ ____
ROOT
ATOM      1  C   UNL     1      -0.016   1.375   0.025  0.00  0.00    +0.062 A 
ATOM      2  C   UNL     1       1.191   2.083  -0.001  0.00  0.00    +0.046 A 
ATOM      3  C   UNL     1       2.405   1.390  -0.038  0.00  0.00    +0.056 A 
ATOM      4  C   UNL     1       2.412   0.010  -0.049  0.00  0.00    +0.070 A 
ATOM      5  C   UNL     1       1.214  -0.688  -0.023  0.00  0.00    +0.163 A 
ATOM      6  C   UNL     1       0.003  -0.004   0.014  0.00  0.00    +0.163 A 
ATOM      7  O   UNL     1      -1.167  -0.707   0.040  0.00  0.00    -0.488 OA
ATOM      8  C   UNL     1      -1.490  -1.429  -1.150  0.00  0.00    +0.232 C 
ATOM      9  C   UNL     1      -0.805  -2.786  -1.161  0.00  0.00    +0.082 C 
ATOM     10  C   UNL     1       0.710  -2.669  -1.218  0.00  0.00    +0.232 C 
ATOM     11  O   UNL     1       1.216  -2.051  -0.033  0.00  0.00    -0.488 OA
ATOM     12 CL   UNL     1       3.903   2.266  -0.071  0.00  0.00    -0.083 Cl
ENDROOT
BRANCH   2  13
ATOM     13  C   UNL     1       1.182   3.558   0.010  0.00  0.00    +0.213 C 
ATOM     14  O   UNL     1       2.229   4.173   0.098  0.00  0.00    -0.285 OA
BRANCH  13  15
ATOM     15  C   UNL     1      -0.093   4.287  -0.085  0.00  0.00    +0.118 A 
ATOM     16  C   UNL     1      -0.143   5.654  -0.188  0.00  0.00    +0.078 A 
ATOM     17  S   UNL     1      -1.794   5.951  -0.263  0.00  0.00    -0.083 S 
ATOM     18  C   UNL     1      -2.359   4.373  -0.165  0.00  0.00    +0.156 A 
ATOM     19  N   UNL     1      -1.272   3.656  -0.082  0.00  0.00    -0.244 NA
ENDBRANCH  13  15
ENDBRANCH   2  13
TORSDOF 2
