REMARK  Name = ZINC61093956
REMARK  10 active torsions:
REMARK  status: ('A' for Active; 'I' for Inactive)
REMARK    1  A    between atoms: C_1  and  C_2
REMARK    2  A    between atoms: C_2  and  C_3
REMARK    3  A    between atoms: C_3  and  C_4
REMARK    4  A    between atoms: C_4  and  C_5
REMARK    5  A    between atoms: C_4  and  C_8
REMARK    6  A    between atoms: C_4  and  C_10
REMARK    7  A    between atoms: C_5  and  C_6
REMARK    8  A    between atoms: C_6  and  C_7
REMARK    9  A    between atoms: C_8  and  N_9
REMARK   10  A    between atoms: N_12  and  C_13
REMARK                            x       y       z     vdW  Elec       q    Type
REMARK                         _______ _______ _______ _____ _____    ______ ____
ROOT
ATOM      1  C   UNL     1       1.495  -2.540   2.452  0.00  0.00    +0.222 C 
ATOM      2  O   UNL     1       1.947  -1.750   3.253  0.00  0.00    -0.275 OA
ATOM      3  N   UNL     1       1.635  -3.864   2.659  0.00  0.00    -0.283 N 
ATOM      4  H   UNL     1       1.205  -4.497   2.062  0.00  0.00    +0.155 HD
ENDROOT
BRANCH   3   5
ATOM      5  C   UNL     1       2.401  -4.328   3.736  0.00  0.00    +0.072 A 
ATOM      6  C   UNL     1       3.405  -3.531   4.269  0.00  0.00    +0.067 A 
ATOM      7  C   UNL     1       4.161  -3.990   5.332  0.00  0.00    +0.160 A 
ATOM      8  C   UNL     1       3.916  -5.246   5.867  0.00  0.00    +0.161 A 
ATOM      9  C   UNL     1       2.915  -6.043   5.337  0.00  0.00    +0.081 A 
ATOM     10  C   UNL     1       2.153  -5.584   4.278  0.00  0.00    +0.147 A 
ATOM     11  F   UNL     1       1.173  -6.359   3.765  0.00  0.00    -0.203 F 
ATOM     12  F   UNL     1       4.656  -5.694   6.905  0.00  0.00    -0.202 F 
ATOM     13  F   UNL     1       5.138  -3.215   5.851  0.00  0.00    -0.202 F 
ENDBRANCH   3   5
BRANCH   1  14
ATOM     14  C   UNL     1       0.776  -2.041   1.225  0.00  0.00    +0.032 C 
BRANCH  14  15
ATOM     15  C   UNL     1       0.757  -0.511   1.232  0.00  0.00    +0.014 C 
BRANCH  15  17
ATOM     16  C   UNL     1       0.009   1.525  -0.007  0.00  0.00    +0.004 C 
ATOM     17  C   UNL     1       0.028  -0.004  -0.014  0.00  0.00    -0.002 C 
ENDBRANCH  15  17
ENDBRANCH  14  15
BRANCH  14  18
ATOM     18  C   UNL     1      -0.660  -2.569   1.224  0.00  0.00    +0.014 C 
BRANCH  18  19
ATOM     19  C   UNL     1      -1.385  -2.074   2.477  0.00  0.00    -0.002 C 
ATOM     20  C   UNL     1      -2.821  -2.602   2.477  0.00  0.00    +0.004 C 
ENDBRANCH  18  19
ENDBRANCH  14  18
BRANCH  14  21
ATOM     21  C   UNL     1       1.502  -2.536  -0.028  0.00  0.00    -0.070 C 
BRANCH  21  22
ATOM     22  N   UNL     1       2.881  -2.029  -0.028  0.00  0.00    +0.379 N 
ATOM     23  H   UNL     1       3.359  -2.356  -0.854  0.00  0.00    -0.090 HD
ATOM     24  H   UNL     1       2.868  -1.020  -0.023  0.00  0.00    -0.090 HD
ATOM     25  H   UNL     1       3.362  -2.364   0.794  0.00  0.00    -0.090 HD
ENDBRANCH  21  22
ENDBRANCH  14  21
ENDBRANCH   1  14
TORSDOF 8
