REMARK  Name = ZINC63375745
REMARK  9 active torsions:
REMARK  status: ('A' for Active; 'I' for Inactive)
REMARK    1  A    between atoms: C_1  and  C_2
REMARK    2  A    between atoms: C_2  and  C_3
REMARK    3  A    between atoms: C_2  and  C_4
REMARK    4  A    between atoms: C_4  and  N_5
REMARK    5  A    between atoms: C_6  and  C_8
REMARK    6  A    between atoms: C_13  and  N_14
REMARK    7  A    between atoms: C_30  and  C_35
REMARK    8  A    between atoms: C_38  and  O_41
REMARK    9  A    between atoms: O_41  and  C_42
REMARK                            x       y       z     vdW  Elec       q    Type
REMARK                         _______ _______ _______ _____ _____    ______ ____
ROOT
ATOM      1  N   UNL     1      -6.203  -0.973  -1.361  0.00  0.00    -0.192 N 
ATOM      2  C   UNL     1      -6.869  -0.642  -0.235  0.00  0.00    +0.248 C 
ATOM      3  O   UNL     1      -6.998   0.465   0.241  0.00  0.00    -0.273 OA
ATOM      4  C   UNL     1      -7.420  -1.941   0.310  0.00  0.00    +0.169 C 
ATOM      5  C   UNL     1      -6.885  -2.184   1.732  0.00  0.00    +0.065 C 
ATOM      6  C   UNL     1      -6.961  -3.674   1.967  0.00  0.00    -0.034 C 
ATOM      7  C   UNL     1      -7.538  -4.369   2.942  0.00  0.00    -0.001 A 
ATOM      8  C   UNL     1      -8.216  -3.944   4.177  0.00  0.00    +0.010 A 
ATOM      9  C   UNL     1      -8.719  -4.937   4.957  0.00  0.00    +0.001 A 
ATOM     10  C   UNL     1      -8.615  -6.295   4.636  0.00  0.00    +0.002 A 
ATOM     11  C   UNL     1      -8.002  -6.775   3.525  0.00  0.00    +0.026 A 
ATOM     12  C   UNL     1      -7.428  -5.826   2.630  0.00  0.00    +0.043 A 
ATOM     13  N   UNL     1      -6.776  -6.005   1.520  0.00  0.00    -0.375 N 
ATOM     14  C   UNL     1      -6.346  -4.698   1.021  0.00  0.00    +0.131 C 
ATOM     15  C   UNL     1      -6.914  -4.413  -0.377  0.00  0.00    +0.135 C 
ATOM     16  N   UNL     1      -6.849  -2.958  -0.597  0.00  0.00    -0.264 N 
ATOM     17  C   UNL     1      -6.226  -2.295  -1.579  0.00  0.00    +0.317 C 
ATOM     18  O   UNL     1      -5.736  -2.830  -2.554  0.00  0.00    -0.252 OA
ATOM     19  H   UNL     1      -6.603  -6.860   1.095  0.00  0.00    +0.160 HD
ENDROOT
BRANCH   1  25
ATOM     20  C   UNL     1      -4.230   0.292  -1.986  0.00  0.00    +0.059 A 
ATOM     21  C   UNL     1      -3.610   1.212  -2.834  0.00  0.00    +0.015 A 
ATOM     22  C   UNL     1      -4.320   1.780  -3.870  0.00  0.00    +0.001 A 
ATOM     23  C   UNL     1      -5.648   1.443  -4.074  0.00  0.00    +0.002 A 
ATOM     24  C   UNL     1      -6.274   0.535  -3.243  0.00  0.00    +0.025 A 
ATOM     25  C   UNL     1      -5.573  -0.050  -2.199  0.00  0.00    +0.058 A 
BRANCH  20  27
ATOM     26  N   UNL     1      -2.185   0.013  -0.674  0.00  0.00    -0.311 N 
ATOM     27  C   UNL     1      -3.475  -0.320  -0.875  0.00  0.00    +0.246 C 
ATOM     28  O   UNL     1      -4.018  -1.124  -0.142  0.00  0.00    -0.270 OA
ATOM     29  H   UNL     1      -1.752   0.654  -1.259  0.00  0.00    +0.149 HD
BRANCH  26  30
ATOM     30  C   UNL     1      -1.435  -0.595   0.428  0.00  0.00    +0.107 C 
BRANCH  30  32
ATOM     31  C   UNL     1      -0.032   1.448   0.741  0.00  0.00    +0.009 C 
ATOM     32  C   UNL     1      -0.006  -0.051   0.434  0.00  0.00    -0.000 C 
ATOM     33  C   UNL     1       0.812  -0.776   1.506  0.00  0.00    +0.009 C 
ENDBRANCH  30  32
ENDBRANCH  26  30
ENDBRANCH  20  27
ENDBRANCH   1  25
BRANCH  15  34
ATOM     34  C   UNL     1      -8.349  -4.865  -0.451  0.00  0.00    -0.024 A 
ATOM     35  C   UNL     1      -9.316  -4.218   0.297  0.00  0.00    +0.009 A 
ATOM     36  C   UNL     1     -10.633  -4.631   0.231  0.00  0.00    +0.046 A 
ATOM     37  C   UNL     1     -10.985  -5.694  -0.587  0.00  0.00    +0.120 A 
ATOM     38  C   UNL     1     -10.014  -6.341  -1.337  0.00  0.00    +0.046 A 
ATOM     39  C   UNL     1      -8.699  -5.921  -1.272  0.00  0.00    +0.009 A 
BRANCH  37  40
ATOM     40  O   UNL     1     -12.280  -6.102  -0.653  0.00  0.00    -0.495 OA
ATOM     41  C   UNL     1     -12.569  -7.203  -1.517  0.00  0.00    +0.277 C 
ENDBRANCH  37  40
ENDBRANCH  15  34
TORSDOF 6
