REMARK  Name = ZINC08612188
REMARK  7 active torsions:
REMARK  status: ('A' for Active; 'I' for Inactive)
REMARK    1  A    between atoms: C_1  and  C_2
REMARK    2  A    between atoms: C_3  and  C_20
REMARK    3  A    between atoms: C_9  and  O_19
REMARK    4  A    between atoms: C_10  and  C_11
REMARK    5  A    between atoms: C_11  and  N_12
REMARK    6  A    between atoms: N_22  and  C_23
REMARK    7  A    between atoms: C_27  and  C_29
REMARK                            x       y       z     vdW  Elec       q    Type
REMARK                         _______ _______ _______ _____ _____    ______ ____
ROOT
ATOM      1  C   UNL     1       0.230   1.234   0.442  0.00  0.00    +0.087 C 
ATOM      2  C   UNL     1       0.134  -0.258   0.259  0.00  0.00    +0.115 A 
ATOM      3  C   UNL     1      -1.028  -0.965   0.191  0.00  0.00    +0.086 A 
ATOM      4  C   UNL     1      -0.628  -2.375   0.010  0.00  0.00    +0.037 A 
ATOM      5  C   UNL     1       0.774  -2.366  -0.011  0.00  0.00    +0.136 A 
ATOM      6  O   UNL     1       1.177  -1.086   0.135  0.00  0.00    -0.459 OA
ATOM      7  C   UNL     1       1.460  -3.564  -0.170  0.00  0.00    +0.050 A 
ATOM      8  C   UNL     1       0.763  -4.746  -0.306  0.00  0.00    +0.049 A 
ATOM      9  C   UNL     1      -0.627  -4.754  -0.285  0.00  0.00    +0.119 A 
ATOM     10  C   UNL     1      -1.325  -3.570  -0.126  0.00  0.00    -0.011 A 
ENDROOT
BRANCH   3  11
ATOM     11  C   UNL     1      -2.396  -0.434   0.278  0.00  0.00    +0.252 C 
ATOM     12  O   UNL     1      -2.948  -0.007  -0.719  0.00  0.00    -0.270 OA
ATOM     13  N   UNL     1      -3.039  -0.420   1.462  0.00  0.00    -0.281 N 
ATOM     14  H   UNL     1      -2.575  -0.694   2.269  0.00  0.00    +0.155 HD
BRANCH  13  15
ATOM     15  C   UNL     1      -4.375  -0.012   1.528  0.00  0.00    +0.034 A 
ATOM     16  C   UNL     1      -5.238  -0.282   0.473  0.00  0.00    +0.023 A 
ATOM     17  C   UNL     1      -6.557   0.121   0.541  0.00  0.00    +0.002 A 
ATOM     18  C   UNL     1      -7.019   0.795   1.658  0.00  0.00    +0.012 A 
ATOM     19  C   UNL     1      -6.162   1.065   2.709  0.00  0.00    +0.057 A 
ATOM     20  C   UNL     1      -4.844   0.659   2.650  0.00  0.00    +0.035 A 
BRANCH  19  21
ATOM     21  C   UNL     1      -6.670   1.799   3.924  0.00  0.00    +0.417 C 
ATOM     22  F   UNL     1      -8.026   2.098   3.754  0.00  0.00    -0.166 F 
ATOM     23  F   UNL     1      -6.508   0.994   5.056  0.00  0.00    -0.166 F 
ATOM     24  F   UNL     1      -5.947   2.985   4.087  0.00  0.00    -0.166 F 
ENDBRANCH  19  21
ENDBRANCH  13  15
ENDBRANCH   3  11
BRANCH   9  25
ATOM     25  O   UNL     1      -1.301  -5.927  -0.420  0.00  0.00    -0.507 OA
ATOM     26  H   UNL     1      -1.539  -6.344   0.420  0.00  0.00    +0.292 HD
ENDBRANCH   9  25
BRANCH  10  27
ATOM     27  C   UNL     1      -2.832  -3.576  -0.102  0.00  0.00    -0.039 C 
BRANCH  27  28
ATOM     28  N   UNL     1      -3.300  -3.557   1.291  0.00  0.00    +0.382 N 
ATOM     29  C   UNL     1      -2.796  -4.763   1.976  0.00  0.00    -0.078 C 
ATOM     30  C   UNL     1      -2.733  -4.477   3.455  0.00  0.00    -0.019 C 
ATOM     31  C   UNL     1      -3.995  -4.980   4.181  0.00  0.00    -0.002 C 
ATOM     32  C   UNL     1      -5.274  -4.701   3.365  0.00  0.00    -0.002 C 
ATOM     33  C   UNL     1      -5.260  -3.337   2.724  0.00  0.00    -0.019 C 
ATOM     34  C   UNL     1      -4.692  -3.459   1.294  0.00  0.00    -0.078 C 
ATOM     35  H   UNL     1      -2.917  -2.744   1.749  0.00  0.00    -0.081 HD
ENDBRANCH  27  28
ENDBRANCH  10  27
TORSDOF 6
