REMARK  Name = ZINC35316490
REMARK  5 active torsions:
REMARK  status: ('A' for Active; 'I' for Inactive)
REMARK    1  A    between atoms: C_1  and  C_2
REMARK    2  A    between atoms: N_8  and  C_9
REMARK    3  A    between atoms: C_9  and  C_10
REMARK    4  A    between atoms: C_13  and  C_31
REMARK    5  A    between atoms: C_21  and  C_22
REMARK                            x       y       z     vdW  Elec       q    Type
REMARK                         _______ _______ _______ _____ _____    ______ ____
ROOT
ATOM      1  C   UNL     1       0.930  -0.601   3.974  0.00  0.00    +0.219 C 
ATOM      2  O   UNL     1       2.011  -1.148   3.901  0.00  0.00    -0.276 OA
ATOM      3  N   UNL     1       0.597   0.087   5.084  0.00  0.00    -0.186 N 
ATOM      4  C   UNL     1       1.441   0.268   6.287  0.00  0.00    +0.140 C 
ATOM      5  C   UNL     1       0.825   1.533   6.910  0.00  0.00    +0.066 C 
ATOM      6  C   UNL     1       0.698   1.411   8.430  0.00  0.00    +0.012 C 
ATOM      7  C   UNL     1      -0.082   2.620   8.942  0.00  0.00    +0.005 C 
ATOM      8  C   UNL     1      -1.503   2.685   8.418  0.00  0.00    +0.037 C 
ATOM      9  C   UNL     1      -1.671   2.146   7.030  0.00  0.00    -0.024 C 
ATOM     10  C   UNL     1      -2.860   2.273   6.406  0.00  0.00    +0.013 C 
ATOM     11  C   UNL     1      -0.593   1.513   6.353  0.00  0.00    +0.068 C 
ATOM     12  N   UNL     1      -0.608   0.764   5.305  0.00  0.00    -0.181 NA
ENDROOT
BRANCH  10  13
ATOM     13  C   UNL     1      -4.027   2.783   7.144  0.00  0.00    -0.025 A 
ATOM     14  C   UNL     1      -4.875   3.725   6.553  0.00  0.00    +0.009 A 
ATOM     15  C   UNL     1      -5.966   4.198   7.250  0.00  0.00    +0.020 A 
ATOM     16  C   UNL     1      -6.224   3.742   8.532  0.00  0.00    +0.041 A 
ATOM     17  C   UNL     1      -5.389   2.809   9.123  0.00  0.00    +0.020 A 
ATOM     18  C   UNL     1      -4.297   2.322   8.436  0.00  0.00    +0.009 A 
ATOM     19 CL   UNL     1      -7.600   4.344   9.402  0.00  0.00    -0.084 Cl
ENDBRANCH  10  13
BRANCH   4  20
ATOM     20  C   UNL     1       1.315  -0.910   7.218  0.00  0.00    -0.024 A 
ATOM     21  C   UNL     1       0.088  -1.521   7.396  0.00  0.00    +0.007 A 
ATOM     22  C   UNL     1      -0.029  -2.602   8.250  0.00  0.00    +0.020 A 
ATOM     23  C   UNL     1       1.083  -3.071   8.927  0.00  0.00    +0.041 A 
ATOM     24  C   UNL     1       2.311  -2.459   8.748  0.00  0.00    +0.020 A 
ATOM     25  C   UNL     1       2.427  -1.382   7.889  0.00  0.00    +0.007 A 
ATOM     26 CL   UNL     1       0.937  -4.428  10.000  0.00  0.00    -0.084 Cl
ENDBRANCH   4  20
BRANCH   1  27
ATOM     27  C   UNL     1      -0.039  -0.691   2.824  0.00  0.00    +0.021 C 
BRANCH  27  34
ATOM     28  C   UNL     1      -0.597  -0.031   0.152  0.00  0.00    -0.013 C 
ATOM     29  C   UNL     1      -0.336  -1.477   0.579  0.00  0.00    -0.071 C 
ATOM     30  C   UNL     1       0.316  -2.239  -0.577  0.00  0.00    -0.016 C 
ATOM     31  C   UNL     1       0.575  -3.685  -0.146  0.00  0.00    -0.003 C 
ATOM     32  C   UNL     1       1.446  -3.684   1.114  0.00  0.00    -0.019 C 
ATOM     33  C   UNL     1       0.752  -2.868   2.207  0.00  0.00    -0.078 C 
ATOM     34  N   UNL     1       0.557  -1.489   1.743  0.00  0.00    +0.387 N 
ATOM     35  H   UNL     1       1.448  -1.092   1.487  0.00  0.00    -0.081 HD
ENDBRANCH  27  34
ENDBRANCH   1  27
TORSDOF 4
