REMARK  Name = ZINC43527122
REMARK  10 active torsions:
REMARK  status: ('A' for Active; 'I' for Inactive)
REMARK    1  A    between atoms: C_1  and  C_2
REMARK    2  A    between atoms: N_5  and  C_8
REMARK    3  A    between atoms: C_8  and  C_9
REMARK    4  A    between atoms: C_18  and  C_20
REMARK    5  A    between atoms: C_20  and  N_21
REMARK    6  A    between atoms: N_21  and  C_22
REMARK    7  A    between atoms: C_22  and  N_24
REMARK    8  A    between atoms: N_24  and  C_25
REMARK    9  A    between atoms: C_25  and  C_26
REMARK   10  A    between atoms: C_26  and  N_27
REMARK                            x       y       z     vdW  Elec       q    Type
REMARK                         _______ _______ _______ _____ _____    ______ ____
ROOT
ATOM      1  C   UNL     1      -0.134  -4.387   2.750  0.00  0.00    -0.041 C 
ATOM      2  C   UNL     1      -0.999  -3.881   3.906  0.00  0.00    -0.076 C 
ATOM      3  N   UNL     1      -1.490  -5.011   4.698  0.00  0.00    +0.383 N 
ATOM      4  C   UNL     1      -2.325  -5.891   3.877  0.00  0.00    -0.078 C 
ATOM      5  C   UNL     1      -1.503  -6.465   2.720  0.00  0.00    -0.015 C 
ATOM      6  C   UNL     1      -0.069  -5.919   2.810  0.00  0.00    -0.015 C 
ATOM      7  C   UNL     1       0.517  -6.325   4.168  0.00  0.00    -0.010 C 
ATOM      8  C   UNL     1      -0.371  -5.756   5.280  0.00  0.00    -0.051 C 
ATOM      9  H   UNL     1      -2.060  -4.651   5.449  0.00  0.00    -0.081 HD
ENDROOT
BRANCH   1  10
ATOM     10  C   UNL     1      -0.750  -3.952   1.419  0.00  0.00    -0.077 C 
BRANCH  10  15
ATOM     11  C   UNL     1      -0.019   1.526   0.010  0.00  0.00    +0.007 C 
ATOM     12  C   UNL     1       0.002  -0.004   0.002  0.00  0.00    -0.018 C 
ATOM     13  C   UNL     1      -1.434  -0.536   0.023  0.00  0.00    -0.016 C 
ATOM     14  C   UNL     1      -1.405  -2.064   0.095  0.00  0.00    -0.079 C 
ATOM     15  N   UNL     1      -0.707  -2.487   1.315  0.00  0.00    +0.380 N 
ATOM     16  C   UNL     1       0.691  -2.042   1.269  0.00  0.00    -0.079 C 
ATOM     17  C   UNL     1       0.743  -0.513   1.242  0.00  0.00    -0.016 C 
ATOM     18  H   UNL     1      -1.162  -2.082   2.119  0.00  0.00    -0.082 HD
ENDBRANCH  10  15
ENDBRANCH   1  10
BRANCH   8  19
ATOM     19  C   UNL     1      -0.916  -6.904   6.133  0.00  0.00    +0.088 C 
BRANCH  19  20
ATOM     20  N   UNL     1      -1.847  -6.371   7.131  0.00  0.00    -0.328 N 
ATOM     21  H   UNL     1      -2.028  -5.419   7.167  0.00  0.00    +0.148 HD
BRANCH  20  22
ATOM     22  C   UNL     1      -2.454  -7.205   7.999  0.00  0.00    +0.130 C 
ATOM     23  S   UNL     1      -2.135  -8.886   7.936  0.00  0.00    -0.019 S 
BRANCH  22  24
ATOM     24  N   UNL     1      -3.311  -6.715   8.917  0.00  0.00    -0.325 N 
ATOM     25  H   UNL     1      -3.491  -5.763   8.952  0.00  0.00    +0.148 HD
BRANCH  24  26
ATOM     26  C   UNL     1      -3.970  -7.621   9.861  0.00  0.00    +0.118 C 
BRANCH  26  27
ATOM     27  C   UNL     1      -4.884  -6.816  10.787  0.00  0.00    +0.103 C 
BRANCH  27  28
ATOM     28  N   UNL     1      -5.545  -7.725  11.733  0.00  0.00    -0.297 NA
ATOM     29  C   UNL     1      -6.472  -8.628  11.036  0.00  0.00    +0.112 C 
ATOM     30  C   UNL     1      -7.093  -9.594  12.049  0.00  0.00    +0.175 C 
ATOM     31  O   UNL     1      -7.740  -8.845  13.081  0.00  0.00    -0.377 OA
ATOM     32  C   UNL     1      -6.866  -7.955  13.780  0.00  0.00    +0.175 C 
ATOM     33  C   UNL     1      -6.243  -6.973  12.786  0.00  0.00    +0.112 C 
ENDBRANCH  27  28
ENDBRANCH  26  27
ENDBRANCH  24  26
ENDBRANCH  22  24
ENDBRANCH  20  22
ENDBRANCH  19  20
ENDBRANCH   8  19
TORSDOF 9
