REMARK  Name = ZINC06284706
REMARK  17 active torsions:
REMARK  status: ('A' for Active; 'I' for Inactive)
REMARK    1  A    between atoms: C_1  and  C_2
REMARK    2  A    between atoms: C_2  and  C_3
REMARK    3  A    between atoms: C_7  and  C_33
REMARK    4  A    between atoms: C_8  and  N_9
REMARK    5  A    between atoms: N_9  and  C_10
REMARK    6  A    between atoms: C_10  and  N_12
REMARK    7  A    between atoms: N_12  and  C_13
REMARK    8  A    between atoms: N_12  and  C_23
REMARK    9  A    between atoms: C_13  and  C_14
REMARK   10  A    between atoms: C_17  and  N_20
REMARK   11  A    between atoms: N_20  and  C_21
REMARK   12  A    between atoms: N_20  and  C_22
REMARK   13  A    between atoms: C_25  and  C_31
REMARK   14  A    between atoms: C_25  and  C_32
REMARK   15  A    between atoms: C_27  and  C_29
REMARK   16  A    between atoms: C_27  and  C_30
REMARK   17  A    between atoms: C_33  and  C_34
REMARK                            x       y       z     vdW  Elec       q    Type
REMARK                         _______ _______ _______ _____ _____    ______ ____
ROOT
ATOM      1  N   UNL     1      -2.971   0.020   4.248  0.00  0.00    -0.305 N 
ENDROOT
BRANCH   1   2
ATOM      2  C   UNL     1      -3.986   0.455   3.280  0.00  0.00    +0.073 C 
ATOM      3  C   UNL     1      -3.497   1.719   2.573  0.00  0.00    +0.009 C 
ATOM      4  C   UNL     1      -4.538   2.178   1.553  0.00  0.00    -0.072 C 
ATOM      5  N   UNL     1      -4.896   1.120   0.620  0.00  0.00    +0.386 N 
ATOM      6  C   UNL     1      -5.184  -0.195   1.169  0.00  0.00    -0.072 C 
ATOM      7  C   UNL     1      -4.182  -0.638   2.230  0.00  0.00    +0.009 C 
ATOM      8  C   UNL     1      -6.607  -0.275   1.729  0.00  0.00    -0.010 C 
ATOM      9  C   UNL     1      -5.100  -1.212   0.006  0.00  0.00    -0.010 C 
ATOM     10  C   UNL     1      -3.904   3.327   0.735  0.00  0.00    -0.010 C 
ATOM     11  C   UNL     1      -5.761   2.752   2.268  0.00  0.00    -0.010 C 
ATOM     12  H   UNL     1      -5.707   1.429   0.079  0.00  0.00    -0.084 HD
ATOM     13  H   UNL     1      -4.139   1.025  -0.062  0.00  0.00    -0.084 HD
ENDBRANCH   1   2
BRANCH   1  14
ATOM     14  C   UNL     1      -1.752  -0.363   3.819  0.00  0.00    +0.138 C 
ATOM     15  S   UNL     1      -0.607  -0.981   4.932  0.00  0.00    -0.018 S 
BRANCH  14  16
ATOM     16  N   UNL     1      -1.434  -0.261   2.513  0.00  0.00    -0.296 N 
ATOM     17  H   UNL     1      -1.574  -1.015   1.919  0.00  0.00    +0.154 HD
BRANCH  16  23
ATOM     18  C   UNL     1      -0.707   1.091   0.648  0.00  0.00    -0.026 A 
ATOM     19  C   UNL     1      -0.188   2.274   0.159  0.00  0.00    +0.005 A 
ATOM     20  C   UNL     1       0.144   3.297   1.028  0.00  0.00    +0.001 A 
ATOM     21  C   UNL     1      -0.043   3.140   2.389  0.00  0.00    +0.005 A 
ATOM     22  C   UNL     1      -0.562   1.961   2.885  0.00  0.00    -0.026 A 
ATOM     23  C   UNL     1      -0.902   0.933   2.014  0.00  0.00    +0.039 A 
BRANCH  18  25
ATOM     24  C   UNL     1      -2.561   0.049  -0.627  0.00  0.00    +0.009 C 
ATOM     25  C   UNL     1      -1.068  -0.023  -0.299  0.00  0.00    +0.033 C 
ENDBRANCH  18  25
BRANCH  22  26
ATOM     26  C   UNL     1      -0.766   1.791   4.368  0.00  0.00    +0.033 C 
ATOM     27  C   UNL     1       0.512   1.234   4.998  0.00  0.00    +0.009 C 
ENDBRANCH  22  26
ENDBRANCH  16  23
ENDBRANCH  14  16
ENDBRANCH   1  14
BRANCH   1  28
ATOM     28  C   UNL     1      -3.283   0.002   5.679  0.00  0.00    +0.142 C 
BRANCH  28  29
ATOM     29  C   UNL     1      -2.928   1.335   6.287  0.00  0.00    -0.030 A 
ATOM     30  C   UNL     1      -1.659   1.545   6.795  0.00  0.00    +0.007 A 
ATOM     31  C   UNL     1      -1.330   2.765   7.353  0.00  0.00    +0.023 A 
ATOM     32  C   UNL     1      -2.276   3.781   7.403  0.00  0.00    +0.029 A 
ATOM     33  C   UNL     1      -3.549   3.567   6.891  0.00  0.00    +0.023 A 
ATOM     34  C   UNL     1      -3.869   2.346   6.329  0.00  0.00    +0.007 A 
BRANCH  32  35
ATOM     35  N   UNL     1      -1.947   5.016   7.966  0.00  0.00    -0.336 N 
ATOM     36  C   UNL     1      -0.573   5.281   8.400  0.00  0.00    +0.129 C 
ATOM     37  C   UNL     1      -2.976   6.047   8.124  0.00  0.00    +0.129 C 
ENDBRANCH  32  35
ENDBRANCH  28  29
ENDBRANCH   1  28
TORSDOF 9
