REMARK  Name = ZINC40645248
REMARK  8 active torsions:
REMARK  status: ('A' for Active; 'I' for Inactive)
REMARK    1  A    between atoms: C_1  and  C_2
REMARK    2  A    between atoms: C_2  and  C_31
REMARK    3  A    between atoms: C_4  and  N_10
REMARK    4  A    between atoms: C_6  and  C_8
REMARK    5  A    between atoms: C_6  and  C_9
REMARK    6  A    between atoms: C_12  and  N_28
REMARK    7  A    between atoms: C_13  and  N_17
REMARK    8  A    between atoms: N_17  and  C_18
REMARK                            x       y       z     vdW  Elec       q    Type
REMARK                         _______ _______ _______ _____ _____    ______ ____
ROOT
ATOM      1  N   UNL     1       3.081  -1.374  -2.267  0.00  0.00    -0.324 N 
ATOM      2  C   UNL     1       4.130  -0.711  -2.885  0.00  0.00    +0.155 A 
ATOM      3  C   UNL     1       4.544  -1.079  -4.162  0.00  0.00    +0.205 A 
ATOM      4  C   UNL     1       5.601  -0.382  -4.738  0.00  0.00    +0.159 A 
ATOM      5  N   UNL     1       6.174   0.606  -4.053  0.00  0.00    -0.218 NA
ATOM      6  C   UNL     1       5.753   0.925  -2.846  0.00  0.00    +0.225 A 
ATOM      7  N   UNL     1       4.752   0.292  -2.268  0.00  0.00    -0.218 NA
ATOM      8  H   UNL     1       2.633  -2.104  -2.723  0.00  0.00    +0.148 HD
ENDROOT
BRANCH   1  12
ATOM      9  C   UNL     1       0.511   0.524   0.764  0.00  0.00    -0.010 C 
ATOM     10  C   UNL     1       0.719  -0.992   0.678  0.00  0.00    -0.072 C 
ATOM     11  C   UNL     1       1.186  -1.369  -0.724  0.00  0.00    +0.009 C 
ATOM     12  C   UNL     1       2.649  -0.973  -0.923  0.00  0.00    +0.069 C 
ATOM     13  C   UNL     1       3.489  -1.713   0.119  0.00  0.00    +0.009 C 
ATOM     14  C   UNL     1       3.039  -1.339   1.527  0.00  0.00    -0.072 C 
ATOM     15  N   UNL     1       1.606  -1.464   1.726  0.00  0.00    +0.386 N 
ATOM     16  C   UNL     1       3.527   0.073   1.869  0.00  0.00    -0.010 C 
ATOM     17  C   UNL     1       3.737  -2.309   2.508  0.00  0.00    -0.010 C 
ATOM     18  C   UNL     1      -0.662  -1.651   0.897  0.00  0.00    -0.010 C 
ATOM     19  H   UNL     1       1.359  -0.983   2.596  0.00  0.00    -0.084 HD
ATOM     20  H   UNL     1       1.393  -2.451   1.905  0.00  0.00    -0.084 HD
ENDBRANCH   1  12
BRANCH   3  21
ATOM     21  N   UNL     1       3.878  -2.185  -4.887  0.00  0.00    +0.063 N 
ATOM     22  O   UNL     1       2.929  -1.955  -5.599  0.00  0.00    -0.126 OA
ATOM     23  O   UNL     1       4.283  -3.317  -4.766  0.00  0.00    -0.126 OA
ENDBRANCH   3  21
BRANCH   4  24
ATOM     24  N   UNL     1       6.052  -0.712  -6.009  0.00  0.00    -0.297 N 
ATOM     25  H   UNL     1       5.572  -1.368  -6.538  0.00  0.00    +0.154 HD
BRANCH  24  26
ATOM     26  C   UNL     1       7.193  -0.100  -6.523  0.00  0.00    +0.042 A 
ATOM     27  C   UNL     1       8.173   0.373  -5.675  0.00  0.00    +0.024 A 
ATOM     28  C   UNL     1       9.314   0.985  -6.182  0.00  0.00    +0.004 A 
ATOM     29  C   UNL     1       9.497   1.134  -7.523  0.00  0.00    +0.028 A 
ATOM     30  C   UNL     1       8.524   0.667  -8.423  0.00  0.00    +0.073 A 
ATOM     31  C   UNL     1       7.360   0.038  -7.917  0.00  0.00    +0.022 A 
ATOM     32  C   UNL     1       6.392  -0.433  -8.820  0.00  0.00    +0.013 A 
ATOM     33  C   UNL     1       6.620  -0.266 -10.157  0.00  0.00    +0.020 A 
ATOM     34  C   UNL     1       7.788   0.357 -10.589  0.00  0.00    +0.111 A 
ATOM     35  N   UNL     1       8.685   0.804  -9.743  0.00  0.00    -0.255 NA
ENDBRANCH  24  26
ENDBRANCH   4  24
TORSDOF 4
