REMARK  Name = ZINC44714086
REMARK  9 active torsions:
REMARK  status: ('A' for Active; 'I' for Inactive)
REMARK    1  A    between atoms: C_1  and  C_2
REMARK    2  A    between atoms: C_3  and  C_9
REMARK    3  A    between atoms: C_4  and  C_8
REMARK    4  A    between atoms: C_9  and  C_11
REMARK    5  A    between atoms: C_9  and  N_12
REMARK    6  A    between atoms: C_13  and  C_15
REMARK    7  A    between atoms: C_26  and  C_28
REMARK    8  A    between atoms: C_32  and  O_33
REMARK    9  A    between atoms: O_33  and  C_34
REMARK                            x       y       z     vdW  Elec       q    Type
REMARK                         _______ _______ _______ _____ _____    ______ ____
ROOT
ATOM      1  C   UNL     1      -2.528  -1.254  -5.538  0.00  0.00    +0.100 C 
ATOM      2  C   UNL     1      -3.811  -1.593  -4.747  0.00  0.00    +0.121 C 
ATOM      3  N   UNL     1      -4.749  -0.491  -5.065  0.00  0.00    -0.296 N 
ATOM      4  C   UNL     1      -4.526  -0.222  -6.506  0.00  0.00    +0.115 C 
ATOM      5  C   UNL     1      -3.002  -0.357  -6.694  0.00  0.00    -0.004 C 
ATOM      6  C   UNL     1      -2.692  -1.015  -8.035  0.00  0.00    -0.010 C 
ATOM      7  C   UNL     1      -3.119  -0.079  -9.169  0.00  0.00    -0.082 C 
ATOM      8  N   UNL     1      -2.402   1.196  -9.049  0.00  0.00    +0.379 N 
ATOM      9  C   UNL     1      -2.778   1.867  -7.799  0.00  0.00    -0.082 C 
ATOM     10  C   UNL     1      -2.336   1.013  -6.607  0.00  0.00    -0.010 C 
ATOM     11  C   UNL     1      -5.611   0.127  -4.233  0.00  0.00    +0.251 C 
ATOM     12  O   UNL     1      -5.612  -0.144  -3.047  0.00  0.00    -0.270 OA
ATOM     13  H   UNL     1      -1.408   1.023  -9.051  0.00  0.00    -0.086 HD
ATOM     14  H   UNL     1      -2.639   1.788  -9.831  0.00  0.00    -0.086 HD
ENDROOT
BRANCH  11  15
ATOM     15  C   UNL     1      -6.551   1.129  -4.759  0.00  0.00    +0.087 A 
ATOM     16  C   UNL     1      -7.099   1.013  -6.018  0.00  0.00    +0.063 A 
ATOM     17  S   UNL     1      -8.085   2.362  -6.166  0.00  0.00    -0.081 S 
ATOM     18  C   UNL     1      -7.812   3.124  -4.581  0.00  0.00    +0.120 A 
ATOM     19  C   UNL     1      -6.947   2.278  -3.978  0.00  0.00    +0.158 A 
ATOM     20 CL   UNL     1      -8.496   4.593  -3.958  0.00  0.00    -0.072 Cl
BRANCH  19  21
ATOM     21  O   UNL     1      -6.477   2.496  -2.719  0.00  0.00    -0.492 OA
ATOM     22  C   UNL     1      -5.278   3.263  -2.598  0.00  0.00    +0.277 C 
ENDBRANCH  19  21
ENDBRANCH  11  15
BRANCH   1  24
ATOM     23  N   UNL     1      -0.227  -0.637  -4.872  0.00  0.00    -0.308 N 
ATOM     24  C   UNL     1      -1.553  -0.510  -4.663  0.00  0.00    +0.219 C 
ATOM     25  O   UNL     1      -1.960   0.202  -3.770  0.00  0.00    -0.275 OA
ATOM     26  H   UNL     1       0.099  -1.207  -5.586  0.00  0.00    +0.149 HD
BRANCH  23  27
ATOM     27  C   UNL     1       0.721   0.086  -4.021  0.00  0.00    +0.104 C 
ATOM     28  C   UNL     1       0.829   1.537  -4.496  0.00  0.00    +0.033 C 
BRANCH  27  31
ATOM     29  C   UNL     1       2.165  -0.830  -6.641  0.00  0.00    +0.065 C 
ATOM     30  C   UNL     1       2.698  -0.968  -5.238  0.00  0.00    +0.038 A 
ATOM     31  C   UNL     1       2.074  -0.572  -4.105  0.00  0.00    +0.015 A 
ATOM     32  C   UNL     1       2.907  -0.881  -3.024  0.00  0.00    +0.065 A 
ATOM     33  N   UNL     1       3.992  -1.442  -3.492  0.00  0.00    -0.179 NA
ATOM     34  N   UNL     1       3.882  -1.513  -4.887  0.00  0.00    -0.281 N 
ATOM     35  H   UNL     1       4.540  -1.886  -5.494  0.00  0.00    +0.189 HD
ATOM     36  C   UNL     1       2.607  -0.613  -1.572  0.00  0.00    +0.068 C 
ENDBRANCH  27  31
ENDBRANCH  23  27
ENDBRANCH   1  24
TORSDOF 5
