REMARK  Name = ZINC32903946
REMARK  6 active torsions:
REMARK  status: ('A' for Active; 'I' for Inactive)
REMARK    1  A    between atoms: C_1  and  C_2
REMARK    2  A    between atoms: C_2  and  C_4
REMARK    3  A    between atoms: C_2  and  N_25
REMARK    4  A    between atoms: N_6  and  C_7
REMARK    5  A    between atoms: C_7  and  C_8
REMARK    6  A    between atoms: C_26  and  C_28
REMARK                            x       y       z     vdW  Elec       q    Type
REMARK                         _______ _______ _______ _____ _____    ______ ____
ROOT
ATOM      1  C   UNL     1       0.177  -0.130  -4.901  0.00  0.00    +0.019 C 
ATOM      2  C   UNL     1       0.229   1.396  -4.925  0.00  0.00    +0.018 C 
ATOM      3  C   UNL     1       0.921   1.914  -6.204  0.00  0.00    +0.050 C 
ATOM      4  C   UNL     1       2.283   1.238  -6.228  0.00  0.00    -0.036 A 
ATOM      5  C   UNL     1       3.479   1.895  -6.267  0.00  0.00    +0.004 A 
ATOM      6  C   UNL     1       4.652   1.151  -6.284  0.00  0.00    +0.000 A 
ATOM      7  C   UNL     1       4.605  -0.231  -6.262  0.00  0.00    +0.000 A 
ATOM      8  C   UNL     1       3.384  -0.893  -6.222  0.00  0.00    +0.004 A 
ATOM      9  C   UNL     1       2.235  -0.154  -6.206  0.00  0.00    -0.036 A 
ATOM     10  C   UNL     1       0.830  -0.735  -6.162  0.00  0.00    +0.054 C 
ATOM     11  C   UNL     1       0.103  -0.099  -7.337  0.00  0.00    -0.036 A 
ATOM     12  C   UNL     1       0.151   1.293  -7.359  0.00  0.00    -0.036 A 
ATOM     13  C   UNL     1      -0.461   1.997  -8.357  0.00  0.00    +0.004 A 
ATOM     14  C   UNL     1      -1.133   1.300  -9.352  0.00  0.00    +0.000 A 
ATOM     15  C   UNL     1      -1.181  -0.082  -9.330  0.00  0.00    +0.000 A 
ATOM     16  C   UNL     1      -0.556  -0.791  -8.313  0.00  0.00    +0.004 A 
ENDROOT
BRANCH   1  17
ATOM     17  C   UNL     1       0.917  -0.637  -3.661  0.00  0.00    +0.108 C 
BRANCH  17  20
ATOM     18  C   UNL     1       0.707  -0.490  -1.238  0.00  0.00    +0.233 C 
ATOM     19  O   UNL     1       1.704  -1.174  -1.140  0.00  0.00    -0.274 OA
ATOM     20  N   UNL     1       0.231  -0.164  -2.456  0.00  0.00    -0.313 N 
ATOM     21  H   UNL     1      -0.673   0.457  -2.545  0.00  0.00    +0.149 HD
BRANCH  18  23
ATOM     22  C   UNL     1      -0.019   1.526   0.010  0.00  0.00    +0.038 C 
ATOM     23  C   UNL     1       0.002  -0.004   0.002  0.00  0.00    +0.156 C 
BRANCH  23  24
ATOM     24  N   UNL     1       0.711  -0.489   1.189  0.00  0.00    -0.304 N 
ATOM     25  C   UNL     1       0.051  -0.633   2.355  0.00  0.00    +0.211 C 
ATOM     26  O   UNL     1      -1.129  -0.361   2.423  0.00  0.00    -0.276 OA
ATOM     27  C   UNL     1       0.780  -1.133   3.576  0.00  0.00    +0.109 C 
ATOM     28  H   UNL     1       1.781  -0.736   1.128  0.00  0.00    +0.149 HD
ENDBRANCH  23  24
ENDBRANCH  18  23
ENDBRANCH  17  20
ENDBRANCH   1  17
TORSDOF 4
