REMARK  Name = ZINC44533581
REMARK  6 active torsions:
REMARK  status: ('A' for Active; 'I' for Inactive)
REMARK    1  A    between atoms: C_1  and  N_2
REMARK    2  A    between atoms: C_6  and  C_9
REMARK    3  A    between atoms: C_9  and  N_10
REMARK    4  A    between atoms: N_10  and  S_11
REMARK    5  A    between atoms: S_11  and  C_14
REMARK    6  A    between atoms: C_17  and  N_21
REMARK                            x       y       z     vdW  Elec       q    Type
REMARK                         _______ _______ _______ _____ _____    ______ ____
ROOT
ATOM      1  S   UNL     1       2.814  -4.732   3.288  0.00  0.00    +0.060 S 
ATOM      2  O   UNL     1       2.752  -6.115   2.971  0.00  0.00    -0.153 OA
ATOM      3  O   UNL     1       4.024  -3.989   3.223  0.00  0.00    -0.153 OA
ENDROOT
BRANCH   1   4
ATOM      4  C   UNL     1       2.208  -4.565   4.934  0.00  0.00    +0.124 A 
ATOM      5  C   UNL     1       1.821  -5.686   5.644  0.00  0.00    +0.032 A 
ATOM      6  C   UNL     1       1.346  -5.559   6.934  0.00  0.00    +0.025 A 
ATOM      7  C   UNL     1       1.258  -4.302   7.520  0.00  0.00    +0.026 A 
ATOM      8  C   UNL     1       1.648  -3.177   6.806  0.00  0.00    +0.044 A 
ATOM      9  C   UNL     1       2.127  -3.312   5.516  0.00  0.00    +0.069 A 
ATOM     10 CL   UNL     1       2.622  -1.907   4.624  0.00  0.00    -0.081 Cl
BRANCH   7  11
ATOM     11  N   UNL     1       0.777  -4.171   8.825  0.00  0.00    -0.358 N 
ATOM     12  H   UNL     1       0.504  -4.957   9.323  0.00  0.00    +0.142 HD
ATOM     13  H   UNL     1       0.716  -3.293   9.233  0.00  0.00    +0.142 HD
ENDBRANCH   7  11
ENDBRANCH   1   4
BRANCH   1  14
ATOM     14  N   UNL     1       1.736  -3.968   2.290  0.00  0.00    -0.190 NA
ATOM     15  H   UNL     1       1.230  -4.480   1.639  0.00  0.00    +0.148 HD
BRANCH  14  16
ATOM     16  C   UNL     1       1.545  -2.519   2.389  0.00  0.00    +0.107 C 
BRANCH  16  22
ATOM     17  C   UNL     1      -0.018   1.465   0.010  0.00  0.00    -0.096 C 
ATOM     18  N   UNL     1       0.002  -0.004   0.002  0.00  0.00    +0.378 N 
ATOM     19  C   UNL     1      -1.376  -0.511   0.004  0.00  0.00    -0.079 C 
ATOM     20  C   UNL     1      -1.361  -2.038  -0.087  0.00  0.00    -0.018 C 
ATOM     21  C   UNL     1      -0.605  -2.608   1.117  0.00  0.00    +0.001 C 
ATOM     22  C   UNL     1       0.807  -2.015   1.147  0.00  0.00    -0.012 C 
ATOM     23  C   UNL     1       0.712  -0.489   1.192  0.00  0.00    -0.074 C 
ATOM     24  H   UNL     1       0.477  -0.328  -0.827  0.00  0.00    -0.082 HD
ENDBRANCH  16  22
ENDBRANCH  14  16
ENDBRANCH   1  14
TORSDOF 5
