REMARK  Name = ZINC32624636
REMARK  12 active torsions:
REMARK  status: ('A' for Active; 'I' for Inactive)
REMARK    1  A    between atoms: C_1  and  C_2
REMARK    2  A    between atoms: C_2  and  C_3
REMARK    3  A    between atoms: C_3  and  C_4
REMARK    4  A    between atoms: C_4  and  C_5
REMARK    5  A    between atoms: C_5  and  C_6
REMARK    6  A    between atoms: C_6  and  O_7
REMARK    7  A    between atoms: O_7  and  C_8
REMARK    8  A    between atoms: C_11  and  C_14
REMARK    9  A    between atoms: C_19  and  C_30
REMARK   10  A    between atoms: C_20  and  N_22
REMARK   11  A    between atoms: C_23  and  C_25
REMARK   12  A    between atoms: C_33  and  C_36
REMARK                            x       y       z     vdW  Elec       q    Type
REMARK                         _______ _______ _______ _____ _____    ______ ____
ROOT
ATOM      1  C   UNL     1       2.243  -4.210  -0.041  0.00  0.00    +0.250 C 
ATOM      2  O   UNL     1       3.035  -3.288  -0.043  0.00  0.00    -0.270 OA
ATOM      3  N   UNL     1       0.918  -3.960  -0.028  0.00  0.00    -0.261 N 
ATOM      4  C   UNL     1       0.459  -2.648  -0.016  0.00  0.00    +0.167 A 
ATOM      5  N   UNL     1      -0.781  -2.201  -0.003  0.00  0.00    -0.223 NA
ATOM      6  C   UNL     1      -1.045  -0.895   0.013  0.00  0.00    +0.102 A 
ATOM      7  C   UNL     1       0.002  -0.004   0.002  0.00  0.00    +0.101 A 
ATOM      8  S   UNL     1       1.394  -1.126  -0.017  0.00  0.00    -0.037 S 
ATOM      9  H   UNL     1       0.201  -4.794  -0.026  0.00  0.00    +0.157 HD
ENDROOT
BRANCH   6  10
ATOM     10  C   UNL     1      -2.444  -0.411   0.037  0.00  0.00    +0.003 A 
ATOM     11  C   UNL     1      -2.773   0.744   0.745  0.00  0.00    +0.010 A 
ATOM     12  C   UNL     1      -4.078   1.193   0.759  0.00  0.00    +0.004 A 
ATOM     13  C   UNL     1      -5.061   0.493   0.082  0.00  0.00    -0.050 A 
ATOM     14  C   UNL     1      -4.741  -0.657  -0.618  0.00  0.00    +0.004 A 
ATOM     15  C   UNL     1      -3.439  -1.113  -0.644  0.00  0.00    +0.010 A 
ATOM     16  C   UNL     1      -6.485   0.985   0.107  0.00  0.00    +0.044 C 
ENDBRANCH   6  10
BRANCH   1  20
ATOM     17  C   UNL     1       3.646  -8.217  -0.076  0.00  0.00    +0.121 A 
ATOM     18  C   UNL     1       4.554  -7.165  -0.079  0.00  0.00    +0.046 A 
ATOM     19  C   UNL     1       4.103  -5.864  -0.068  0.00  0.00    +0.016 A 
ATOM     20  C   UNL     1       2.730  -5.602  -0.054  0.00  0.00    +0.037 A 
ATOM     21  C   UNL     1       1.821  -6.663  -0.046  0.00  0.00    +0.016 A 
ATOM     22  C   UNL     1       2.280  -7.962  -0.063  0.00  0.00    +0.046 A 
BRANCH  17  23
ATOM     23  O   UNL     1       4.095  -9.498  -0.087  0.00  0.00    -0.492 OA
BRANCH  23  24
ATOM     24  C   UNL     1       3.108 -10.531  -0.083  0.00  0.00    +0.229 C 
BRANCH  24  25
ATOM     25  C   UNL     1       3.798 -11.896  -0.097  0.00  0.00    +0.041 C 
BRANCH  25  26
ATOM     26  C   UNL     1       2.741 -13.003  -0.093  0.00  0.00    +0.003 C 
BRANCH  26  27
ATOM     27  C   UNL     1       3.432 -14.368  -0.107  0.00  0.00    -0.000 C 
BRANCH  27  29
ATOM     28  C   UNL     1       3.066 -16.839  -0.117  0.00  0.00    +0.004 C 
ATOM     29  C   UNL     1       2.375 -15.474  -0.103  0.00  0.00    -0.003 C 
ENDBRANCH  27  29
ENDBRANCH  26  27
ENDBRANCH  25  26
ENDBRANCH  24  25
ENDBRANCH  23  24
ENDBRANCH  17  23
ENDBRANCH   1  20
BRANCH   7  30
ATOM     30  N   UNL     1      -0.017   1.389   0.010  0.00  0.00    -0.272 N 
ATOM     31  C   UNL     1       1.141   2.079   0.002  0.00  0.00    +0.284 C 
ATOM     32  O   UNL     1       2.203   1.485  -0.011  0.00  0.00    -0.266 OA
ATOM     33  H   UNL     1      -0.977   1.926   0.022  0.00  0.00    +0.156 HD
BRANCH  31  34
ATOM     34  C   UNL     1       1.121   3.545   0.010  0.00  0.00    +0.189 A 
ATOM     35  C   UNL     1       2.215   4.362   0.004  0.00  0.00    +0.054 A 
ATOM     36  C   UNL     1       1.734   5.681   0.016  0.00  0.00    +0.042 A 
ATOM     37  C   UNL     1       0.384   5.611   0.029  0.00  0.00    +0.196 A 
ATOM     38  O   UNL     1       0.019   4.323   0.019  0.00  0.00    -0.458 OA
ENDBRANCH  31  34
ENDBRANCH   7  30
TORSDOF 10
