REMARK  Name = ZINC48356089
REMARK  6 active torsions:
REMARK  status: ('A' for Active; 'I' for Inactive)
REMARK    1  A    between atoms: C_1  and  C_2
REMARK    2  A    between atoms: C_5  and  N_9
REMARK    3  A    between atoms: C_6  and  C_8
REMARK    4  A    between atoms: C_13  and  C_15
REMARK    5  A    between atoms: C_15  and  N_16
REMARK    6  A    between atoms: C_20  and  C_22
REMARK                            x       y       z     vdW  Elec       q    Type
REMARK                         _______ _______ _______ _____ _____    ______ ____
ROOT
ATOM      1  N   UNL     1       0.059  -4.170  -0.021  0.00  0.00    -0.269 N 
ATOM      2  C   UNL     1      -0.040  -4.839  -1.187  0.00  0.00    +0.310 C 
ATOM      3  O   UNL     1      -0.054  -4.229  -2.238  0.00  0.00    -0.252 OA
ATOM      4  N   UNL     1      -0.124  -6.184  -1.187  0.00  0.00    -0.241 N 
ATOM      5  C   UNL     1      -0.223  -6.853  -2.353  0.00  0.00    +0.204 C 
ATOM      6  O   UNL     1      -0.237  -6.244  -3.401  0.00  0.00    -0.277 OA
ATOM      7  H   UNL     1       0.135  -4.658   0.814  0.00  0.00    +0.156 HD
ATOM      8  H   UNL     1      -0.113  -6.671  -0.348  0.00  0.00    +0.159 HD
ENDROOT
BRANCH   1  13
ATOM      9  C   UNL     1       0.025   1.503   0.005  0.00  0.00    +0.044 C 
ATOM     10  C   UNL     1       0.034  -0.004  -0.002  0.00  0.00    -0.050 A 
ATOM     11  C   UNL     1       0.632  -0.685  -1.046  0.00  0.00    +0.005 A 
ATOM     12  C   UNL     1       0.641  -2.066  -1.055  0.00  0.00    +0.024 A 
ATOM     13  C   UNL     1       0.051  -2.771  -0.014  0.00  0.00    +0.038 A 
ATOM     14  C   UNL     1      -0.548  -2.083   1.033  0.00  0.00    -0.029 A 
ATOM     15  C   UNL     1      -0.551  -0.702   1.039  0.00  0.00    +0.008 A 
ATOM     16  C   UNL     1      -1.191  -2.843   2.165  0.00  0.00    +0.045 C 
ENDBRANCH   1  13
BRANCH   5  17
ATOM     17  C   UNL     1      -0.317  -8.357  -2.353  0.00  0.00    +0.020 C 
BRANCH  17  18
ATOM     18  N   UNL     1      -0.415  -8.841  -3.737  0.00  0.00    +0.390 N 
ATOM     19  C   UNL     1      -1.687  -8.391  -4.331  0.00  0.00    -0.077 C 
ATOM     20  C   UNL     1      -2.467  -9.655  -4.751  0.00  0.00    -0.020 C 
ATOM     21  C   UNL     1      -1.352 -10.724  -4.891  0.00  0.00    -0.013 C 
ATOM     22  C   UNL     1      -0.386 -10.319  -3.749  0.00  0.00    -0.037 C 
ATOM     23  H   UNL     1       0.356  -8.482  -4.279  0.00  0.00    -0.080 HD
BRANCH  22  24
ATOM     24  C   UNL     1       1.008 -10.814  -4.042  0.00  0.00    -0.054 A 
ATOM     25  C   UNL     1       1.516 -11.913  -3.374  0.00  0.00    +0.009 A 
ATOM     26  C   UNL     1       2.773 -12.332  -3.661  0.00  0.00    +0.045 A 
ATOM     27  S   UNL     1       3.279 -11.158  -4.907  0.00  0.00    -0.105 S 
ATOM     28  C   UNL     1       1.779 -10.191  -4.966  0.00  0.00    +0.047 A 
ENDBRANCH  22  24
ENDBRANCH  17  18
ENDBRANCH   5  17
TORSDOF 4
