REMARK  Name = ZINC63281144
REMARK  11 active torsions:
REMARK  status: ('A' for Active; 'I' for Inactive)
REMARK    1  A    between atoms: C_1  and  C_2
REMARK    2  A    between atoms: C_2  and  C_3
REMARK    3  A    between atoms: C_2  and  C_4
REMARK    4  A    between atoms: C_4  and  C_6
REMARK    5  A    between atoms: C_4  and  N_20
REMARK    6  A    between atoms: N_8  and  C_9
REMARK    7  A    between atoms: C_9  and  C_10
REMARK    8  A    between atoms: C_10  and  C_11
REMARK    9  A    between atoms: C_21  and  C_23
REMARK   10  A    between atoms: C_23  and  C_24
REMARK   11  A    between atoms: C_23  and  C_30
REMARK                            x       y       z     vdW  Elec       q    Type
REMARK                         _______ _______ _______ _____ _____    ______ ____
ROOT
ATOM      1  C   UNL     1       0.820  -0.295  -1.154  0.00  0.00    +0.161 C 
ENDROOT
BRANCH   1   2
ATOM      2  C   UNL     1       0.956  -1.795  -1.105  0.00  0.00    +0.234 C 
ATOM      3  O   UNL     1       0.498  -2.475  -1.999  0.00  0.00    -0.274 OA
ATOM      4  N   UNL     1       1.585  -2.381  -0.068  0.00  0.00    -0.313 N 
ATOM      5  H   UNL     1       1.951  -1.838   0.647  0.00  0.00    +0.149 HD
BRANCH   4   6
ATOM      6  C   UNL     1       1.717  -3.840  -0.020  0.00  0.00    +0.108 C 
BRANCH   6   7
ATOM      7  C   UNL     1       2.466  -4.243   1.251  0.00  0.00    +0.052 C 
BRANCH   7   8
ATOM      8  C   UNL     1       2.602  -5.743   1.300  0.00  0.00    -0.040 C 
ATOM      9  C   UNL     1       3.658  -6.478   0.883  0.00  0.00    -0.001 A 
ATOM     10  C   UNL     1       4.947  -6.115   0.282  0.00  0.00    +0.010 A 
ATOM     11  C   UNL     1       5.822  -7.096  -0.036  0.00  0.00    +0.001 A 
ATOM     12  C   UNL     1       5.529  -8.448   0.193  0.00  0.00    +0.002 A 
ATOM     13  C   UNL     1       4.366  -8.859   0.741  0.00  0.00    +0.026 A 
ATOM     14  C   UNL     1       3.373  -7.912   1.115  0.00  0.00    +0.043 A 
ATOM     15  N   UNL     1       2.186  -8.058   1.654  0.00  0.00    -0.380 N 
ATOM     16  C   UNL     1       1.587  -6.731   1.830  0.00  0.00    +0.144 C 
ATOM     17  H   UNL     1       1.776  -8.902   1.898  0.00  0.00    +0.160 HD
ENDBRANCH   7   8
ENDBRANCH   6   7
ENDBRANCH   4   6
ENDBRANCH   1   2
BRANCH   1  18
ATOM     18  N   UNL     1       0.103   0.091  -2.371  0.00  0.00    -0.303 N 
ATOM     19  C   UNL     1       0.283   1.318  -2.900  0.00  0.00    +0.225 C 
ATOM     20  O   UNL     1       1.040   2.102  -2.367  0.00  0.00    -0.275 OA
ATOM     21  H   UNL     1      -0.502  -0.536  -2.797  0.00  0.00    +0.149 HD
BRANCH  19  22
ATOM     22  C   UNL     1      -0.455   1.715  -4.152  0.00  0.00    +0.135 C 
BRANCH  22  23
ATOM     23  C   UNL     1      -1.940   1.640  -3.905  0.00  0.00    -0.031 A 
ATOM     24  C   UNL     1      -2.747   0.917  -4.763  0.00  0.00    +0.005 A 
ATOM     25  C   UNL     1      -4.109   0.848  -4.537  0.00  0.00    +0.000 A 
ATOM     26  C   UNL     1      -4.663   1.502  -3.453  0.00  0.00    +0.000 A 
ATOM     27  C   UNL     1      -3.856   2.225  -2.595  0.00  0.00    +0.000 A 
ATOM     28  C   UNL     1      -2.493   2.291  -2.818  0.00  0.00    +0.005 A 
ENDBRANCH  22  23
BRANCH  22  29
ATOM     29  C   UNL     1      -0.079   3.125  -4.531  0.00  0.00    -0.031 A 
ATOM     30  C   UNL     1      -0.200   4.145  -3.605  0.00  0.00    +0.005 A 
ATOM     31  C   UNL     1       0.145   5.438  -3.953  0.00  0.00    +0.000 A 
ATOM     32  C   UNL     1       0.611   5.710  -5.225  0.00  0.00    +0.000 A 
ATOM     33  C   UNL     1       0.733   4.691  -6.150  0.00  0.00    +0.000 A 
ATOM     34  C   UNL     1       0.392   3.397  -5.802  0.00  0.00    +0.005 A 
ENDBRANCH  22  29
ENDBRANCH  19  22
ENDBRANCH   1  18
BRANCH   1  36
ATOM     35  C   UNL     1      -0.096   1.710   0.022  0.00  0.00    +0.009 C 
ATOM     36  C   UNL     1       0.041   0.187   0.072  0.00  0.00    +0.012 C 
ATOM     37  C   UNL     1      -1.350  -0.451   0.075  0.00  0.00    +0.009 C 
ENDBRANCH   1  36
TORSDOF 9
