REMARK  Name = ZINC06925278
REMARK  9 active torsions:
REMARK  status: ('A' for Active; 'I' for Inactive)
REMARK    1  A    between atoms: C_1  and  C_2
REMARK    2  A    between atoms: C_14  and  C_21
REMARK    3  A    between atoms: C_15  and  N_16
REMARK    4  A    between atoms: N_17  and  C_18
REMARK    5  A    between atoms: C_18  and  C_19
REMARK    6  A    between atoms: C_19  and  O_20
REMARK    7  A    between atoms: N_23  and  C_24
REMARK    8  A    between atoms: C_24  and  C_25
REMARK    9  A    between atoms: C_24  and  C_26
REMARK                            x       y       z     vdW  Elec       q    Type
REMARK                         _______ _______ _______ _____ _____    ______ ____
ROOT
ATOM      1  C   UNL     1       2.136   1.805   0.711  0.00  0.00    +0.047 C 
ATOM      2  C   UNL     1       1.630   0.417   0.417  0.00  0.00    -0.007 A 
ATOM      3  C   UNL     1       1.690  -0.079  -0.849  0.00  0.00    +0.008 A 
ATOM      4  C   UNL     1       1.216  -1.374  -1.110  0.00  0.00    +0.019 A 
ATOM      5  C   UNL     1       0.703  -2.122  -0.110  0.00  0.00    +0.096 A 
ATOM      6  N   UNL     1       0.637  -1.636   1.164  0.00  0.00    -0.267 N 
ATOM      7  C   UNL     1       1.097  -0.379   1.454  0.00  0.00    +0.145 A 
ATOM      8  N   UNL     1       1.055   0.126   2.682  0.00  0.00    -0.211 NA
ATOM      9  C   UNL     1       0.566  -0.562   3.718  0.00  0.00    +0.150 A 
ATOM     10  C   UNL     1       0.075  -1.878   3.499  0.00  0.00    +0.083 A 
ATOM     11  C   UNL     1       0.116  -2.417   2.139  0.00  0.00    +0.268 A 
ATOM     12  O   UNL     1      -0.291  -3.538   1.895  0.00  0.00    -0.267 OA
ATOM     13  C   UNL     1      -0.439  -2.612   4.565  0.00  0.00    +0.033 A 
ATOM     14  C   UNL     1      -0.451  -2.014   5.827  0.00  0.00    +0.075 A 
ATOM     15  C   UNL     1       0.053  -0.702   5.973  0.00  0.00    +0.110 A 
ATOM     16  N   UNL     1       0.534  -0.033   4.943  0.00  0.00    -0.311 N 
ENDROOT
BRANCH  14  17
ATOM     17  C   UNL     1      -0.983  -2.741   6.990  0.00  0.00    +0.248 C 
ATOM     18  O   UNL     1      -0.901  -2.254   8.102  0.00  0.00    -0.270 OA
ATOM     19  N   UNL     1      -1.561  -3.948   6.824  0.00  0.00    -0.309 N 
ATOM     20  H   UNL     1      -1.626  -4.336   5.938  0.00  0.00    +0.149 HD
BRANCH  19  21
ATOM     21  C   UNL     1      -2.090  -4.672   7.982  0.00  0.00    +0.067 C 
ATOM     22  C   UNL     1      -3.190  -5.632   7.524  0.00  0.00    +0.027 C 
ATOM     23  C   UNL     1      -0.963  -5.466   8.646  0.00  0.00    +0.027 C 
ENDBRANCH  19  21
ENDBRANCH  14  17
BRANCH  15  24
ATOM     24  N   UNL     1       0.043  -0.110   7.219  0.00  0.00    -0.344 N 
ATOM     25  H   UNL     1       0.120  -0.656   8.017  0.00  0.00    +0.144 HD
ATOM     26  H   UNL     1      -0.041   0.853   7.297  0.00  0.00    +0.144 HD
ENDBRANCH  15  24
BRANCH  16  27
ATOM     27  C   UNL     1       1.045   1.325   5.148  0.00  0.00    +0.153 C 
BRANCH  27  28
ATOM     28  C   UNL     1      -0.090   2.332   4.954  0.00  0.00    +0.177 C 
BRANCH  28  29
ATOM     29  O   UNL     1       0.408   3.656   5.155  0.00  0.00    -0.393 OA
ATOM     30  H   UNL     1      -0.259   4.348   5.047  0.00  0.00    +0.209 HD
ENDBRANCH  28  29
ENDBRANCH  27  28
ENDBRANCH  16  27
TORSDOF 6
