REMARK  Name = ZINC15890467
REMARK  9 active torsions:
REMARK  status: ('A' for Active; 'I' for Inactive)
REMARK    1  A    between atoms: C_1  and  C_2
REMARK    2  A    between atoms: C_4  and  N_9
REMARK    3  A    between atoms: C_13  and  C_33
REMARK    4  A    between atoms: C_19  and  S_20
REMARK    5  A    between atoms: S_20  and  C_21
REMARK    6  A    between atoms: C_21  and  C_22
REMARK    7  A    between atoms: N_24  and  C_25
REMARK    8  A    between atoms: C_25  and  C_26
REMARK    9  A    between atoms: C_26  and  C_27
REMARK                            x       y       z     vdW  Elec       q    Type
REMARK                         _______ _______ _______ _____ _____    ______ ____
ROOT
ATOM      1  N   UNL     1      -0.153  -2.801  -2.523  0.00  0.00    -0.275 N 
ATOM      2  C   UNL     1       0.146  -4.167  -2.444  0.00  0.00    +0.124 A 
ATOM      3  N   UNL     1      -0.274  -4.947  -1.477  0.00  0.00    -0.384 N 
ATOM      4  C   UNL     1       0.982  -4.634  -3.564  0.00  0.00    +0.082 A 
ATOM      5  C   UNL     1       1.776  -5.760  -3.754  0.00  0.00    +0.072 A 
ATOM      6  N   UNL     1       2.306  -5.687  -4.950  0.00  0.00    -0.177 NA
ATOM      7  N   UNL     1       1.877  -4.508  -5.583  0.00  0.00    -0.260 N 
ATOM      8  H   UNL     1       2.124  -4.219  -6.475  0.00  0.00    +0.191 HD
ATOM      9  C   UNL     1       1.062  -3.848  -4.736  0.00  0.00    +0.162 A 
ATOM     10  N   UNL     1       0.396  -2.684  -4.826  0.00  0.00    -0.204 NA
ATOM     11  C   UNL     1      -0.225  -2.210  -3.760  0.00  0.00    +0.177 A 
ATOM     12  C   UNL     1       1.989  -6.871  -2.759  0.00  0.00    +0.068 C 
ATOM     13  H   UNL     1      -0.757  -4.570  -0.726  0.00  0.00    +0.157 HD
ATOM     14  H   UNL     1      -0.101  -5.900  -1.513  0.00  0.00    +0.157 HD
ENDROOT
BRANCH   1  18
ATOM     15  C   UNL     1       1.589   0.068   1.071  0.00  0.00    +0.045 C 
ATOM     16  C   UNL     1       0.447  -0.651   0.401  0.00  0.00    -0.030 A 
ATOM     17  C   UNL     1       0.673  -1.390  -0.744  0.00  0.00    +0.031 A 
ATOM     18  C   UNL     1      -0.380  -2.052  -1.361  0.00  0.00    +0.051 A 
ATOM     19  C   UNL     1      -1.658  -1.970  -0.825  0.00  0.00    +0.028 A 
ATOM     20  C   UNL     1      -1.879  -1.231   0.320  0.00  0.00    +0.022 A 
ATOM     21  C   UNL     1      -0.827  -0.576   0.937  0.00  0.00    +0.044 A 
ATOM     22 CL   UNL     1      -1.106   0.346   2.381  0.00  0.00    -0.083 Cl
ENDBRANCH   1  18
BRANCH  11  23
ATOM     23  S   UNL     1      -1.187  -0.744  -3.931  0.00  0.00    -0.078 S 
BRANCH  23  24
ATOM     24  C   UNL     1      -1.014  -0.307  -5.683  0.00  0.00    +0.173 C 
BRANCH  24  25
ATOM     25  C   UNL     1      -1.800   0.947  -5.969  0.00  0.00    +0.223 C 
ATOM     26  O   UNL     1      -2.416   1.492  -5.078  0.00  0.00    -0.275 OA
ATOM     27  N   UNL     1      -1.817   1.462  -7.214  0.00  0.00    -0.314 N 
ATOM     28  H   UNL     1      -1.325   1.026  -7.926  0.00  0.00    +0.149 HD
BRANCH  27  29
ATOM     29  C   UNL     1      -2.581   2.681  -7.491  0.00  0.00    +0.108 C 
BRANCH  29  30
ATOM     30  C   UNL     1      -2.435   3.049  -8.969  0.00  0.00    +0.049 C 
BRANCH  30  31
ATOM     31  C   UNL     1      -3.221   4.303  -9.255  0.00  0.00    -0.072 C 
ATOM     32  C   UNL     1      -2.592   5.434  -9.222  0.00  0.00    -0.028 C 
ATOM     33  C   UNL     1      -3.240   6.764  -9.474  0.00  0.00    +0.027 C 
ATOM     34  C   UNL     1      -4.587   6.570 -10.173  0.00  0.00    +0.004 C 
ATOM     35  C   UNL     1      -5.386   5.513  -9.400  0.00  0.00    +0.005 C 
ATOM     36  C   UNL     1      -4.682   4.162  -9.564  0.00  0.00    +0.030 C 
ENDBRANCH  30  31
ENDBRANCH  29  30
ENDBRANCH  27  29
ENDBRANCH  24  25
ENDBRANCH  23  24
ENDBRANCH  11  23
TORSDOF 7
