REMARK  Name = ZINC49244336
REMARK  10 active torsions:
REMARK  status: ('A' for Active; 'I' for Inactive)
REMARK    1  A    between atoms: C_1  and  N_2
REMARK    2  A    between atoms: N_2  and  C_3
REMARK    3  A    between atoms: N_2  and  C_4
REMARK    4  A    between atoms: C_4  and  C_5
REMARK    5  A    between atoms: C_9  and  C_11
REMARK    6  A    between atoms: C_11  and  N_12
REMARK    7  A    between atoms: N_15  and  C_16
REMARK    8  A    between atoms: C_16  and  C_17
REMARK    9  A    between atoms: C_17  and  C_19
REMARK   10  A    between atoms: C_17  and  O_27
REMARK                            x       y       z     vdW  Elec       q    Type
REMARK                         _______ _______ _______ _____ _____    ______ ____
ROOT
ATOM      1  N   UNL     1      -4.066  -1.252   4.025  0.00  0.00    -0.295 N 
ATOM      2  C   UNL     1      -5.153  -1.968   4.374  0.00  0.00    +0.300 C 
ATOM      3  O   UNL     1      -5.056  -2.862   5.191  0.00  0.00    -0.253 OA
ATOM      4  N   UNL     1      -6.349  -1.691   3.817  0.00  0.00    -0.297 N 
ATOM      5  H   UNL     1      -4.143  -0.538   3.372  0.00  0.00    +0.151 HD
ATOM      6  H   UNL     1      -6.427  -0.977   3.165  0.00  0.00    +0.150 HD
ENDROOT
BRANCH   1   7
ATOM      7  C   UNL     1      -2.766  -1.553   4.630  0.00  0.00    +0.141 C 
BRANCH   7  12
ATOM      8  C   UNL     1      -0.059  -0.109   2.429  0.00  0.00    -0.064 A 
ATOM      9  C   UNL     1       0.188   1.099   3.053  0.00  0.00    +0.002 A 
ATOM     10  C   UNL     1      -0.520   1.449   4.187  0.00  0.00    +0.001 A 
ATOM     11  C   UNL     1      -1.476   0.591   4.698  0.00  0.00    +0.005 A 
ATOM     12  C   UNL     1      -1.724  -0.617   4.073  0.00  0.00    -0.030 A 
ATOM     13  C   UNL     1      -1.019  -0.965   2.936  0.00  0.00    +0.007 A 
BRANCH   8  14
ATOM     14  C   UNL     1       0.713  -0.491   1.192  0.00  0.00    -0.044 C 
BRANCH  14  16
ATOM     15  C   UNL     1      -0.018   1.465   0.010  0.00  0.00    -0.096 C 
ATOM     16  N   UNL     1       0.002  -0.004   0.002  0.00  0.00    +0.379 N 
ATOM     17  C   UNL     1       0.690  -0.478  -1.207  0.00  0.00    -0.096 C 
ATOM     18  H   UNL     1      -0.945  -0.353   0.009  0.00  0.00    -0.082 HD
ENDBRANCH  14  16
ENDBRANCH   8  14
ENDBRANCH   7  12
ENDBRANCH   1   7
BRANCH   4  19
ATOM     19  C   UNL     1      -7.531  -2.468   4.197  0.00  0.00    +0.141 C 
BRANCH  19  20
ATOM     20  C   UNL     1      -8.748  -1.955   3.425  0.00  0.00    +0.162 C 
BRANCH  20  21
ATOM     21  C   UNL     1      -9.965  -2.755   3.815  0.00  0.00    -0.015 A 
ATOM     22  C   UNL     1     -10.696  -2.398   4.933  0.00  0.00    +0.009 A 
ATOM     23  C   UNL     1     -11.811  -3.130   5.293  0.00  0.00    +0.041 A 
ATOM     24  C   UNL     1     -12.198  -4.221   4.534  0.00  0.00    +0.158 A 
ATOM     25  C   UNL     1     -11.465  -4.578   3.413  0.00  0.00    +0.159 A 
ATOM     26  C   UNL     1     -10.351  -3.841   3.052  0.00  0.00    +0.047 A 
ATOM     27  F   UNL     1     -11.841  -5.643   2.671  0.00  0.00    -0.202 F 
ATOM     28  F   UNL     1     -13.288  -4.937   4.886  0.00  0.00    -0.202 F 
ENDBRANCH  20  21
BRANCH  20  29
ATOM     29  O   UNL     1      -8.964  -0.577   3.737  0.00  0.00    -0.386 OA
ATOM     30  H   UNL     1      -9.128  -0.407   4.674  0.00  0.00    +0.210 HD
ENDBRANCH  20  29
ENDBRANCH  19  20
ENDBRANCH   4  19
TORSDOF 8
