REMARK  Name = ZINC34681317
REMARK  6 active torsions:
REMARK  status: ('A' for Active; 'I' for Inactive)
REMARK    1  A    between atoms: C_1  and  C_2
REMARK    2  A    between atoms: C_2  and  O_3
REMARK    3  A    between atoms: O_3  and  C_4
REMARK    4  A    between atoms: C_9  and  N_10
REMARK    5  A    between atoms: N_13  and  C_14
REMARK    6  A    between atoms: C_26  and  C_28
REMARK                            x       y       z     vdW  Elec       q    Type
REMARK                         _______ _______ _______ _____ _____    ______ ____
ROOT
ATOM      1  C   UNL     1      -7.709  -1.857  -0.991  0.00  0.00    +0.051 A 
ATOM      2  C   UNL     1      -7.919  -3.235  -1.021  0.00  0.00    +0.028 A 
ATOM      3  C   UNL     1      -9.207  -3.709  -0.852  0.00  0.00    +0.043 A 
ATOM      4  C   UNL     1     -10.244  -2.802  -0.660  0.00  0.00    +0.099 A 
ATOM      5  N   UNL     1     -10.008  -1.500  -0.637  0.00  0.00    -0.348 N 
ATOM      6  C   UNL     1      -8.790  -1.013  -0.788  0.00  0.00    +0.107 A 
ATOM      7  N   UNL     1     -11.544  -3.269  -0.490  0.00  0.00    -0.314 N 
ATOM      8  C   UNL     1     -11.813  -4.709  -0.373  0.00  0.00    +0.125 C 
ATOM      9  C   UNL     1     -12.583  -4.959   0.930  0.00  0.00    +0.127 C 
ATOM     10  N   UNL     1     -13.712  -4.021   0.996  0.00  0.00    -0.295 N 
ATOM     11  C   UNL     1     -13.444  -2.581   0.878  0.00  0.00    +0.127 C 
ATOM     12  C   UNL     1     -12.673  -2.330  -0.418  0.00  0.00    +0.125 C 
ATOM     13  C   UNL     1     -14.971  -4.473   1.160  0.00  0.00    +0.247 C 
ATOM     14  O   UNL     1     -15.906  -3.696   1.119  0.00  0.00    -0.270 OA
ATOM     15  H   UNL     1     -10.748  -0.888  -0.501  0.00  0.00    +0.167 HD
ENDROOT
BRANCH  13  16
ATOM     16  C   UNL     1     -15.216  -5.912   1.391  0.00  0.00    +0.042 A 
ATOM     17  C   UNL     1     -14.398  -6.630   2.264  0.00  0.00    +0.051 A 
ATOM     18  C   UNL     1     -14.631  -7.976   2.476  0.00  0.00    +0.127 A 
ATOM     19  C   UNL     1     -15.674  -8.612   1.823  0.00  0.00    +0.076 A 
ATOM     20  C   UNL     1     -16.489  -7.904   0.955  0.00  0.00    +0.127 A 
ATOM     21  C   UNL     1     -16.269  -6.557   0.741  0.00  0.00    +0.051 A 
ATOM     22  F   UNL     1     -17.505  -8.531   0.322  0.00  0.00    -0.205 F 
ATOM     23  F   UNL     1     -13.839  -8.672   3.321  0.00  0.00    -0.205 F 
ENDBRANCH  13  16
BRANCH   1  27
ATOM     24  N   UNL     1      -4.255  -1.530  -2.006  0.00  0.00    -0.266 N 
ATOM     25  C   UNL     1      -5.523  -1.980  -1.926  0.00  0.00    +0.308 C 
ATOM     26  O   UNL     1      -5.857  -2.970  -2.548  0.00  0.00    -0.252 OA
ATOM     27  N   UNL     1      -6.420  -1.332  -1.157  0.00  0.00    -0.268 N 
ATOM     28  H   UNL     1      -3.966  -0.791  -1.448  0.00  0.00    +0.156 HD
ATOM     29  H   UNL     1      -6.174  -0.503  -0.718  0.00  0.00    +0.156 HD
BRANCH  24  35
ATOM     30  C   UNL     1      -1.982  -2.010  -2.688  0.00  0.00    +0.142 A 
ATOM     31  C   UNL     1      -1.095  -2.608  -3.568  0.00  0.00    +0.047 A 
ATOM     32  C   UNL     1      -1.573  -3.318  -4.655  0.00  0.00    +0.004 A 
ATOM     33  C   UNL     1      -2.935  -3.432  -4.866  0.00  0.00    +0.002 A 
ATOM     34  C   UNL     1      -3.825  -2.838  -3.992  0.00  0.00    +0.027 A 
ATOM     35  C   UNL     1      -3.353  -2.129  -2.897  0.00  0.00    +0.077 A 
BRANCH  30  36
ATOM     36  O   UNL     1      -1.513  -1.312  -1.619  0.00  0.00    -0.490 OA
BRANCH  36  38
ATOM     37  C   UNL     1       0.240  -0.413  -0.219  0.00  0.00    +0.048 C 
ATOM     38  C   UNL     1      -0.094  -1.231  -1.468  0.00  0.00    +0.226 C 
ENDBRANCH  36  38
ENDBRANCH  30  36
ENDBRANCH  24  35
ENDBRANCH   1  27
TORSDOF 5
