REMARK  Name = ZINC32644028
REMARK  11 active torsions:
REMARK  status: ('A' for Active; 'I' for Inactive)
REMARK    1  A    between atoms: C_1  and  C_2
REMARK    2  A    between atoms: C_2  and  C_36
REMARK    3  A    between atoms: C_4  and  N_11
REMARK    4  A    between atoms: C_6  and  C_9
REMARK    5  A    between atoms: C_6  and  C_10
REMARK    6  A    between atoms: N_7  and  C_8
REMARK    7  A    between atoms: C_12  and  C_14
REMARK    8  A    between atoms: N_24  and  S_25
REMARK    9  A    between atoms: S_25  and  C_28
REMARK   10  A    between atoms: C_31  and  O_34
REMARK   11  A    between atoms: O_34  and  C_35
REMARK                            x       y       z     vdW  Elec       q    Type
REMARK                         _______ _______ _______ _____ _____    ______ ____
ROOT
ATOM      1  C   UNL     1       3.627   1.810   0.441  0.00  0.00    +0.170 C 
ATOM      2  C   UNL     1       2.471   0.812   0.484  0.00  0.00    +0.065 C 
ATOM      3  C   UNL     1       1.145   1.527   0.503  0.00  0.00    -0.041 A 
ATOM      4  C   UNL     1       0.038   0.819   0.953  0.00  0.00    +0.004 A 
ATOM      5  C   UNL     1      -1.209   1.409   0.980  0.00  0.00    +0.000 A 
ATOM      6  C   UNL     1      -1.359   2.718   0.562  0.00  0.00    +0.000 A 
ATOM      7  C   UNL     1      -0.261   3.424   0.116  0.00  0.00    +0.005 A 
ATOM      8  C   UNL     1       0.995   2.832   0.090  0.00  0.00    -0.028 A 
ATOM      9  C   UNL     1       2.155   3.665  -0.393  0.00  0.00    +0.145 C 
ATOM     10  N   UNL     1       3.326   2.806  -0.601  0.00  0.00    -0.160 NA
ENDROOT
BRANCH   1  12
ATOM     11  N   UNL     1       6.029   1.348   0.807  0.00  0.00    -0.311 N 
ATOM     12  C   UNL     1       4.908   1.091   0.104  0.00  0.00    +0.232 C 
ATOM     13  O   UNL     1       4.931   0.282  -0.799  0.00  0.00    -0.274 OA
ATOM     14  H   UNL     1       6.009   2.082   1.627  0.00  0.00    +0.149 HD
BRANCH  11  18
ATOM     15  C   UNL     1      10.071   0.874  -0.880  0.00  0.00    -0.010 C 
ATOM     16  C   UNL     1       9.778   0.784   0.623  0.00  0.00    -0.069 C 
ATOM     17  C   UNL     1       8.465   1.498   0.930  0.00  0.00    +0.010 C 
ATOM     18  C   UNL     1       7.278   0.648   0.480  0.00  0.00    +0.070 C 
ATOM     19  C   UNL     1       7.320  -0.683   1.230  0.00  0.00    +0.010 C 
ATOM     20  C   UNL     1       8.620  -1.424   0.924  0.00  0.00    -0.069 C 
ATOM     21  N   UNL     1       9.794  -0.591   1.077  0.00  0.00    +0.385 N 
ATOM     22  C   UNL     1      11.025  -1.291   0.684  0.00  0.00    -0.095 C 
ATOM     23  C   UNL     1       8.546  -2.026  -0.484  0.00  0.00    -0.010 C 
ATOM     24  C   UNL     1       8.730  -2.601   1.919  0.00  0.00    -0.010 C 
ATOM     25  C   UNL     1      10.905   1.546   1.355  0.00  0.00    -0.010 C 
ATOM     26  H   UNL     1       9.751  -0.420   2.162  0.00  0.00    -0.081 HD
ENDBRANCH  11  18
ENDBRANCH   1  12
BRANCH  10  27
ATOM     27  S   UNL     1       4.273   2.952  -1.952  0.00  0.00    +0.062 S 
ATOM     28  O   UNL     1       4.186   4.309  -2.364  0.00  0.00    -0.153 OA
ATOM     29  O   UNL     1       5.512   2.325  -1.649  0.00  0.00    -0.153 OA
BRANCH  27  30
ATOM     30  C   UNL     1       3.519   1.990  -3.222  0.00  0.00    +0.106 A 
ATOM     31  C   UNL     1       3.866   0.661  -3.379  0.00  0.00    +0.032 A 
ATOM     32  C   UNL     1       3.272  -0.096  -4.370  0.00  0.00    +0.047 A 
ATOM     33  C   UNL     1       2.336   0.481  -5.215  0.00  0.00    +0.120 A 
ATOM     34  C   UNL     1       1.994   1.816  -5.059  0.00  0.00    +0.047 A 
ATOM     35  C   UNL     1       2.586   2.568  -4.063  0.00  0.00    +0.032 A 
BRANCH  33  36
ATOM     36  O   UNL     1       1.755  -0.261  -6.195  0.00  0.00    -0.495 OA
ATOM     37  C   UNL     1       2.156  -1.629  -6.297  0.00  0.00    +0.277 C 
ENDBRANCH  33  36
ENDBRANCH  27  30
ENDBRANCH  10  27
TORSDOF 5
