REMARK  Name = ZINC55888234
REMARK  6 active torsions:
REMARK  status: ('A' for Active; 'I' for Inactive)
REMARK    1  A    between atoms: C_4  and  N_19
REMARK    2  A    between atoms: C_5  and  N_7
REMARK    3  A    between atoms: N_7  and  C_8
REMARK    4  A    between atoms: C_8  and  C_9
REMARK    5  A    between atoms: N_11  and  C_12
REMARK    6  A    between atoms: C_22  and  O_25
REMARK                            x       y       z     vdW  Elec       q    Type
REMARK                         _______ _______ _______ _____ _____    ______ ____
ROOT
ATOM      1  C   UNL     1       0.074   1.372  -0.244  0.00  0.00    +0.002 A 
ATOM      2  C   UNL     1       1.226   2.025  -0.643  0.00  0.00    +0.002 A 
ATOM      3  C   UNL     1       2.399   1.315  -0.824  0.00  0.00    +0.023 A 
ATOM      4  C   UNL     1       2.424  -0.048  -0.607  0.00  0.00    +0.035 A 
ATOM      5  C   UNL     1       1.269  -0.707  -0.206  0.00  0.00    +0.047 A 
ATOM      6  C   UNL     1       0.092   0.008  -0.025  0.00  0.00    +0.025 A 
ENDROOT
BRANCH   4   7
ATOM      7  N   UNL     1       3.611  -0.765  -0.791  0.00  0.00    -0.392 NA
ATOM      8  C   UNL     1       4.109  -0.540  -2.153  0.00  0.00    +0.087 C 
ATOM      9  C   UNL     1       5.364  -1.386  -2.386  0.00  0.00    +0.048 C 
ATOM     10  C   UNL     1       6.440  -0.983  -1.374  0.00  0.00    +0.117 C 
ATOM     11  C   UNL     1       5.882  -1.151   0.043  0.00  0.00    +0.048 C 
ATOM     12  C   UNL     1       4.609  -0.314   0.186  0.00  0.00    +0.087 C 
ATOM     13  H   UNL     1       3.432  -1.749  -0.658  0.00  0.00    +0.126 HD
BRANCH  10  14
ATOM     14  O   UNL     1       7.587  -1.819  -1.538  0.00  0.00    -0.392 OA
ATOM     15  H   UNL     1       8.310  -1.619  -0.927  0.00  0.00    +0.210 HD
ENDBRANCH  10  14
ENDBRANCH   4   7
BRANCH   5  16
ATOM     16  N   UNL     1       1.291  -2.086   0.015  0.00  0.00    -0.334 N 
ATOM     17  H   UNL     1       2.130  -2.571  -0.030  0.00  0.00    +0.147 HD
BRANCH  16  18
ATOM     18  C   UNL     1       0.047  -2.800   0.314  0.00  0.00    +0.198 C 
BRANCH  18  19
ATOM     19  C   UNL     1       0.342  -4.265   0.508  0.00  0.00    +0.234 C 
ATOM     20  O   UNL     1       1.480  -4.673   0.407  0.00  0.00    -0.274 OA
ATOM     21  N   UNL     1      -0.658  -5.122   0.794  0.00  0.00    -0.284 N 
ATOM     22  H   UNL     1      -1.577  -4.810   0.801  0.00  0.00    +0.155 HD
BRANCH  21  23
ATOM     23  C   UNL     1      -0.371  -6.461   1.081  0.00  0.00    +0.035 A 
ATOM     24  C   UNL     1      -1.263  -7.459   0.709  0.00  0.00    +0.023 A 
ATOM     25  C   UNL     1      -0.977  -8.780   0.993  0.00  0.00    +0.003 A 
ATOM     26  C   UNL     1       0.195  -9.110   1.647  0.00  0.00    +0.020 A 
ATOM     27  C   UNL     1       1.086  -8.119   2.020  0.00  0.00    +0.043 A 
ATOM     28  C   UNL     1       0.808  -6.795   1.733  0.00  0.00    +0.043 A 
ATOM     29 CL   UNL     1       2.556  -8.538   2.843  0.00  0.00    -0.083 Cl
ENDBRANCH  21  23
ENDBRANCH  18  19
ENDBRANCH  16  18
ENDBRANCH   5  16
TORSDOF 6
