REMARK  Name = ZINC59233595
REMARK  5 active torsions:
REMARK  status: ('A' for Active; 'I' for Inactive)
REMARK    1  A    between atoms: C_3  and  N_8
REMARK    2  A    between atoms: C_9  and  C_11
REMARK    3  A    between atoms: C_11  and  N_12
REMARK    4  A    between atoms: C_15  and  C_18
REMARK    5  A    between atoms: C_15  and  N_21
REMARK                            x       y       z     vdW  Elec       q    Type
REMARK                         _______ _______ _______ _____ _____    ______ ____
ROOT
ATOM      1  N   UNL     1       7.154   1.520  -0.316  0.00  0.00    +0.386 N 
ATOM      2  C   UNL     1       7.364   0.560  -1.406  0.00  0.00    -0.076 C 
ATOM      3  C   UNL     1       8.387  -0.492  -0.975  0.00  0.00    +0.013 C 
ATOM      4  C   UNL     1       9.712   0.200  -0.640  0.00  0.00    +0.095 C 
ATOM      5  C   UNL     1       9.467   1.251   0.447  0.00  0.00    +0.013 C 
ATOM      6  C   UNL     1       8.403   2.239  -0.038  0.00  0.00    -0.076 C 
ATOM      7  H   UNL     1       6.860   1.026   0.513  0.00  0.00    -0.081 HD
ENDROOT
BRANCH   4   8
ATOM      8  N   UNL     1      10.676  -0.795  -0.152  0.00  0.00    -0.289 NA
ATOM      9  C   UNL     1      10.847  -1.883  -1.123  0.00  0.00    +0.085 C 
ATOM     10  C   UNL     1      11.742  -2.970  -0.522  0.00  0.00    +0.015 C 
ATOM     11  C   UNL     1      13.101  -2.363  -0.163  0.00  0.00    +0.002 C 
ATOM     12  C   UNL     1      12.892  -1.201   0.812  0.00  0.00    +0.015 C 
ATOM     13  C   UNL     1      11.963  -0.166   0.173  0.00  0.00    +0.085 C 
ENDBRANCH   4   8
BRANCH   4  14
ATOM     14  C   UNL     1      10.258   0.869  -1.875  0.00  0.00    +0.231 C 
ATOM     15  O   UNL     1       9.821   0.573  -2.967  0.00  0.00    -0.274 OA
ATOM     16  N   UNL     1      11.230   1.795  -1.766  0.00  0.00    -0.328 N 
ATOM     17  H   UNL     1      11.621   1.988  -0.899  0.00  0.00    +0.145 HD
ATOM     18  H   UNL     1      11.539   2.270  -2.554  0.00  0.00    +0.145 HD
ENDBRANCH   4  14
BRANCH   1  19
ATOM     19  C   UNL     1       6.114   2.482  -0.706  0.00  0.00    +0.019 C 
BRANCH  19  21
ATOM     20  N   UNL     1       3.697   2.447  -1.230  0.00  0.00    -0.287 N 
ATOM     21  C   UNL     1       4.801   1.762  -0.872  0.00  0.00    +0.201 C 
ATOM     22  O   UNL     1       4.737   0.565  -0.685  0.00  0.00    -0.278 OA
ATOM     23  H   UNL     1       3.762   3.389  -1.452  0.00  0.00    +0.155 HD
BRANCH  20  26
ATOM     24  C   UNL     1       0.934   0.159  -0.420  0.00  0.00    +0.003 A 
ATOM     25  C   UNL     1       2.159   0.796  -0.368  0.00  0.00    +0.023 A 
ATOM     26  C   UNL     1       2.457   1.800  -1.280  0.00  0.00    +0.034 A 
ATOM     27  C   UNL     1       1.522   2.161  -2.241  0.00  0.00    +0.038 A 
ATOM     28  C   UNL     1       0.299   1.521  -2.288  0.00  0.00    +0.020 A 
ATOM     29  C   UNL     1       0.005   0.520  -1.378  0.00  0.00    +0.015 A 
ATOM     30 BR   UNL     1      -0.975   2.011  -3.596  0.00  0.00    -0.050 Br
ENDBRANCH  20  26
ENDBRANCH  19  21
ENDBRANCH   1  19
TORSDOF 5
