REMARK  Name = ZINC57841587
REMARK  11 active torsions:
REMARK  status: ('A' for Active; 'I' for Inactive)
REMARK    1  A    between atoms: C_1  and  C_2
REMARK    2  A    between atoms: C_2  and  C_14
REMARK    3  A    between atoms: N_5  and  C_9
REMARK    4  A    between atoms: C_9  and  C_10
REMARK    5  A    between atoms: C_10  and  C_11
REMARK    6  A    between atoms: C_11  and  C_12
REMARK    7  A    between atoms: C_12  and  N_13
REMARK    8  A    between atoms: C_17  and  O_22
REMARK    9  A    between atoms: C_18  and  O_20
REMARK   10  A    between atoms: O_20  and  C_21
REMARK   11  A    between atoms: O_22  and  C_23
REMARK                            x       y       z     vdW  Elec       q    Type
REMARK                         _______ _______ _______ _____ _____    ______ ____
ROOT
ATOM      1  C   UNL     1      -0.019   1.526   0.010  0.00  0.00    +0.047 C 
ATOM      2  C   UNL     1       0.002  -0.004   0.002  0.00  0.00    +0.135 C 
ATOM      3  C   UNL     1      -1.403  -0.557   0.139  0.00  0.00    +0.251 C 
ATOM      4  O   UNL     1      -2.332  -0.392  -0.621  0.00  0.00    -0.272 OA
ATOM      5  N   UNL     1      -1.403  -1.272   1.282  0.00  0.00    -0.224 N 
ATOM      6  C   UNL     1      -0.206  -1.247   1.879  0.00  0.00    +0.310 C 
ATOM      7  O   UNL     1       0.040  -1.819   2.924  0.00  0.00    -0.252 OA
ATOM      8  N   UNL     1       0.695  -0.520   1.195  0.00  0.00    -0.281 N 
ATOM      9  H   UNL     1       1.621  -0.365   1.440  0.00  0.00    +0.152 HD
ENDROOT
BRANCH   2  10
ATOM     10  C   UNL     1       0.657  -0.517  -1.255  0.00  0.00    -0.012 A 
ATOM     11  C   UNL     1      -0.109  -0.771  -2.377  0.00  0.00    +0.010 A 
ATOM     12  C   UNL     1       0.487  -1.242  -3.532  0.00  0.00    +0.050 A 
ATOM     13  C   UNL     1       1.855  -1.459  -3.567  0.00  0.00    +0.162 A 
ATOM     14  C   UNL     1       2.626  -1.203  -2.437  0.00  0.00    +0.162 A 
ATOM     15  C   UNL     1       2.023  -0.727  -1.284  0.00  0.00    +0.055 A 
BRANCH  14  16
ATOM     16  O   UNL     1       3.969  -1.414  -2.466  0.00  0.00    -0.491 OA
ATOM     17  C   UNL     1       4.697  -1.129  -1.270  0.00  0.00    +0.277 C 
ENDBRANCH  14  16
BRANCH  13  18
ATOM     18  O   UNL     1       2.443  -1.923  -4.702  0.00  0.00    -0.491 OA
ATOM     19  C   UNL     1       1.589  -2.164  -5.823  0.00  0.00    +0.277 C 
ENDBRANCH  13  18
ENDBRANCH   2  10
BRANCH   5  20
ATOM     20  C   UNL     1      -2.569  -1.986   1.805  0.00  0.00    +0.118 C 
BRANCH  20  21
ATOM     21  C   UNL     1      -2.585  -3.413   1.252  0.00  0.00    +0.018 C 
BRANCH  21  22
ATOM     22  C   UNL     1      -3.803  -4.159   1.798  0.00  0.00    -0.018 C 
BRANCH  22  23
ATOM     23  C   UNL     1      -3.819  -5.585   1.244  0.00  0.00    -0.086 C 
BRANCH  23  24
ATOM     24  N   UNL     1      -4.989  -6.302   1.769  0.00  0.00    +0.378 N 
ATOM     25  H   UNL     1      -4.940  -6.333   2.777  0.00  0.00    -0.090 HD
ATOM     26  H   UNL     1      -5.831  -5.822   1.488  0.00  0.00    -0.090 HD
ATOM     27  H   UNL     1      -4.999  -7.242   1.404  0.00  0.00    -0.090 HD
ENDBRANCH  23  24
ENDBRANCH  22  23
ENDBRANCH  21  22
ENDBRANCH  20  21
ENDBRANCH   5  20
TORSDOF 8
