REMARK  Name = ZINC02786107
REMARK  4 active torsions:
REMARK  status: ('A' for Active; 'I' for Inactive)
REMARK    1  A    between atoms: C_1  and  N_2
REMARK    2  A    between atoms: C_5  and  C_7
REMARK    3  A    between atoms: C_15  and  C_26
REMARK    4  A    between atoms: C_18  and  C_20
REMARK                            x       y       z     vdW  Elec       q    Type
REMARK                         _______ _______ _______ _____ _____    ______ ____
ROOT
ATOM      1  C   UNL     1      -0.750   2.594   4.621  0.00  0.00    +0.274 C 
ATOM      2  O   UNL     1      -0.982   2.178   3.502  0.00  0.00    -0.268 OA
ATOM      3  N   UNL     1       0.518   2.636   5.075  0.00  0.00    -0.243 N 
ATOM      4  C   UNL     1       1.609   2.323   4.258  0.00  0.00    +0.127 A 
ATOM      5  C   UNL     1       1.665   2.178   2.915  0.00  0.00    +0.065 A 
ATOM      6  C   UNL     1       2.990   1.875   2.577  0.00  0.00    +0.136 A 
ATOM      7  N   UNL     1       3.704   1.843   3.677  0.00  0.00    -0.177 NA
ATOM      8  N   UNL     1       2.863   2.123   4.753  0.00  0.00    -0.238 N 
ATOM      9  C   UNL     1       3.196   2.198   6.178  0.00  0.00    +0.215 C 
ATOM     10  C   UNL     1       1.908   2.048   6.997  0.00  0.00    +0.063 C 
ATOM     11  C   UNL     1       0.838   3.009   6.468  0.00  0.00    +0.115 C 
ENDROOT
BRANCH   1  16
ATOM     12  C   UNL     1      -3.163   4.538   8.428  0.00  0.00    +0.172 C 
ATOM     13  N   UNL     1      -2.910   3.899   7.135  0.00  0.00    -0.273 N 
ATOM     14  C   UNL     1      -3.871   3.502   6.264  0.00  0.00    +0.124 A 
ATOM     15  C   UNL     1      -3.241   2.962   5.193  0.00  0.00    +0.068 A 
ATOM     16  C   UNL     1      -1.858   3.054   5.482  0.00  0.00    +0.161 A 
ATOM     17  N   UNL     1      -1.746   3.627   6.664  0.00  0.00    -0.166 NA
ATOM     18 BR   UNL     1      -4.041   2.234   3.642  0.00  0.00    -0.046 Br
ENDBRANCH   1  16
BRANCH  11  19
ATOM     19  C   UNL     1       1.359   4.423   6.505  0.00  0.00    -0.027 A 
ATOM     20  C   UNL     1       2.222   4.868   5.521  0.00  0.00    +0.005 A 
ATOM     21  C   UNL     1       2.696   6.166   5.554  0.00  0.00    +0.000 A 
ATOM     22  C   UNL     1       2.316   7.016   6.575  0.00  0.00    +0.000 A 
ATOM     23  C   UNL     1       1.456   6.569   7.562  0.00  0.00    +0.000 A 
ATOM     24  C   UNL     1       0.979   5.273   7.527  0.00  0.00    +0.005 A 
ENDBRANCH  11  19
BRANCH   9  25
ATOM     25  C   UNL     1       4.165   1.070   6.538  0.00  0.00    +0.412 C 
ATOM     26  F   UNL     1       3.573  -0.164   6.251  0.00  0.00    -0.168 F 
ATOM     27  F   UNL     1       5.340   1.209   5.790  0.00  0.00    -0.168 F 
ATOM     28  F   UNL     1       4.471   1.135   7.901  0.00  0.00    -0.168 F 
ENDBRANCH   9  25
TORSDOF 3
