REMARK  Name = ZINC65920923
REMARK  5 active torsions:
REMARK  status: ('A' for Active; 'I' for Inactive)
REMARK    1  A    between atoms: N_11  and  C_14
REMARK    2  A    between atoms: C_14  and  C_15
REMARK    3  A    between atoms: C_15  and  C_16
REMARK    4  A    between atoms: N_18  and  N_19
REMARK    5  A    between atoms: N_22  and  C_23
REMARK                            x       y       z     vdW  Elec       q    Type
REMARK                         _______ _______ _______ _____ _____    ______ ____
ROOT
ATOM      1  C   UNL     1       4.091  -5.281   2.235  0.00  0.00    +0.231 C 
ATOM      2  O   UNL     1       3.913  -5.470   3.419  0.00  0.00    -0.274 OA
ATOM      3  N   UNL     1       4.768  -6.187   1.502  0.00  0.00    -0.233 N 
ATOM      4  H   UNL     1       4.910  -6.036   0.554  0.00  0.00    +0.173 HD
ENDROOT
BRANCH   3   5
ATOM      5  N   UNL     1       5.266  -7.347   2.108  0.00  0.00    -0.218 N 
ATOM      6  C   UNL     1       5.943  -8.253   1.375  0.00  0.00    +0.316 C 
ATOM      7  O   UNL     1       6.376  -9.260   1.902  0.00  0.00    -0.251 OA
ATOM      8  N   UNL     1       6.141  -8.043   0.059  0.00  0.00    -0.295 N 
ATOM      9  H   UNL     1       5.124  -7.498   3.056  0.00  0.00    +0.174 HD
ATOM     10  H   UNL     1       5.795  -7.240  -0.361  0.00  0.00    +0.151 HD
BRANCH   8  11
ATOM     11  C   UNL     1       6.876  -9.028  -0.738  0.00  0.00    +0.074 C 
ATOM     12  C   UNL     1       8.389  -8.727  -0.685  0.00  0.00    +0.022 C 
ATOM     13  C   UNL     1       8.893  -9.065  -2.110  0.00  0.00    +0.002 C 
ATOM     14  C   UNL     1       7.733  -8.570  -3.009  0.00  0.00    +0.002 C 
ATOM     15  C   UNL     1       6.460  -8.928  -2.216  0.00  0.00    +0.022 C 
ENDBRANCH   8  11
ENDBRANCH   3   5
BRANCH   1  16
ATOM     16  C   UNL     1       3.555  -4.033   1.582  0.00  0.00    +0.117 C 
BRANCH  16  17
ATOM     17  C   UNL     1       2.833  -3.180   2.628  0.00  0.00    +0.125 C 
BRANCH  17  26
ATOM     18  C   UNL     1      -0.019   1.536   0.011  0.00  0.00    +0.001 C 
ATOM     19  C   UNL     1       1.386   2.129   0.000  0.00  0.00    +0.001 C 
ATOM     20  C   UNL     1       2.260   1.554   1.132  0.00  0.00    +0.013 C 
ATOM     21  C   UNL     1       2.277   0.054   0.932  0.00  0.00    +0.087 C 
ATOM     22  C   UNL     1       0.821  -0.434   1.196  0.00  0.00    +0.087 C 
ATOM     23  C   UNL     1       0.002  -0.004   0.002  0.00  0.00    +0.013 C 
ATOM     24  C   UNL     1       1.072  -1.888   1.438  0.00  0.00    +0.226 C 
ATOM     25  O   UNL     1       0.324  -2.809   1.189  0.00  0.00    -0.275 OA
ATOM     26  N   UNL     1       2.312  -1.967   1.993  0.00  0.00    -0.241 N 
ATOM     27  C   UNL     1       3.036  -0.807   1.892  0.00  0.00    +0.226 C 
ATOM     28  O   UNL     1       4.069  -0.529   2.462  0.00  0.00    -0.275 OA
ENDBRANCH  17  26
ENDBRANCH  16  17
ENDBRANCH   1  16
TORSDOF 5
