REMARK  Name = ZINC23358774
REMARK  11 active torsions:
REMARK  status: ('A' for Active; 'I' for Inactive)
REMARK    1  A    between atoms: C_1  and  O_2
REMARK    2  A    between atoms: O_2  and  C_3
REMARK    3  A    between atoms: C_7  and  O_32
REMARK    4  A    between atoms: C_8  and  C_9
REMARK    5  A    between atoms: C_9  and  N_10
REMARK    6  A    between atoms: N_10  and  C_11
REMARK    7  A    between atoms: N_10  and  C_19
REMARK    8  A    between atoms: C_11  and  C_12
REMARK    9  A    between atoms: C_12  and  N_13
REMARK   10  A    between atoms: C_19  and  C_20
REMARK   11  A    between atoms: N_25  and  C_27
REMARK                            x       y       z     vdW  Elec       q    Type
REMARK                         _______ _______ _______ _____ _____    ______ ____
ROOT
ATOM      1  N   UNL     1      -1.512  -3.221  -0.483  0.00  0.00    +0.383 N 
ATOM      2  H   UNL     1      -1.926  -2.313  -0.632  0.00  0.00    -0.081 HD
ENDROOT
BRANCH   1   3
ATOM      3  C   UNL     1      -0.141  -3.058   0.019  0.00  0.00    -0.036 C 
BRANCH   3   9
ATOM      4  C   UNL     1       1.220  -5.008  -0.774  0.00  0.00    +0.125 A 
ATOM      5  C   UNL     1       1.795  -6.254  -0.571  0.00  0.00    +0.046 A 
ATOM      6  C   UNL     1       1.626  -6.905   0.636  0.00  0.00    +0.007 A 
ATOM      7  C   UNL     1       0.883  -6.318   1.643  0.00  0.00    +0.046 A 
ATOM      8  C   UNL     1       0.306  -5.072   1.444  0.00  0.00    +0.122 A 
ATOM      9  C   UNL     1       0.479  -4.414   0.236  0.00  0.00    +0.019 A 
BRANCH   4  11
ATOM     10  C   UNL     1       2.108  -5.065  -2.979  0.00  0.00    +0.277 C 
ATOM     11  O   UNL     1       1.387  -4.367  -1.961  0.00  0.00    -0.495 OA
ENDBRANCH   4  11
BRANCH   8  12
ATOM     12  O   UNL     1      -0.425  -4.495   2.434  0.00  0.00    -0.506 OA
ATOM     13  H   UNL     1       0.094  -3.941   3.033  0.00  0.00    +0.292 HD
ENDBRANCH   8  12
ENDBRANCH   3   9
ENDBRANCH   1   3
BRANCH   1  14
ATOM     14  C   UNL     1      -2.308  -3.967   0.500  0.00  0.00    -0.063 C 
BRANCH  14  15
ATOM     15  C   UNL     1      -2.500  -3.112   1.755  0.00  0.00    +0.066 C 
BRANCH  15  16
ATOM     16  N   UNL     1      -3.178  -3.905   2.788  0.00  0.00    -0.304 NA
ATOM     17  C   UNL     1      -4.547  -4.245   2.378  0.00  0.00    +0.084 C 
ATOM     18  C   UNL     1      -5.170  -5.189   3.409  0.00  0.00    +0.015 C 
ATOM     19  C   UNL     1      -5.183  -4.505   4.778  0.00  0.00    +0.002 C 
ATOM     20  C   UNL     1      -3.752  -4.119   5.160  0.00  0.00    +0.015 C 
ATOM     21  C   UNL     1      -3.169  -3.205   4.079  0.00  0.00    +0.084 C 
ENDBRANCH  15  16
ENDBRANCH  14  15
ENDBRANCH   1  14
BRANCH   1  22
ATOM     22  C   UNL     1      -1.483  -3.961  -1.752  0.00  0.00    -0.077 C 
BRANCH  22  23
ATOM     23  C   UNL     1      -0.839  -3.091  -2.834  0.00  0.00    -0.044 C 
ATOM     24  C   UNL     1      -1.639  -1.795  -2.992  0.00  0.00    -0.002 C 
ATOM     25  C   UNL     1      -1.033  -0.968  -4.130  0.00  0.00    -0.018 C 
ATOM     26  C   UNL     1      -1.025  -1.804  -5.412  0.00  0.00    -0.078 C 
ATOM     27  N   UNL     1      -0.223  -3.016  -5.205  0.00  0.00    +0.382 N 
ATOM     28  C   UNL     1      -0.837  -3.849  -4.164  0.00  0.00    -0.077 C 
ATOM     29  H   UNL     1       0.709  -2.757  -4.919  0.00  0.00    -0.081 HD
BRANCH  27  30
ATOM     30  C   UNL     1      -0.154  -3.776  -6.460  0.00  0.00    -0.069 C 
ATOM     31  C   UNL     1       0.633  -5.085  -6.243  0.00  0.00    -0.015 C 
ATOM     32  C   UNL     1       1.434  -5.270  -7.556  0.00  0.00    -0.002 C 
ATOM     33  C   UNL     1       1.845  -3.819  -7.912  0.00  0.00    -0.002 C 
ATOM     34  C   UNL     1       0.617  -2.971  -7.521  0.00  0.00    -0.015 C 
ENDBRANCH  27  30
ENDBRANCH  22  23
ENDBRANCH   1  22
TORSDOF 10
