REMARK  Name = ZINC43259362
REMARK  10 active torsions:
REMARK  status: ('A' for Active; 'I' for Inactive)
REMARK    1  A    between atoms: C_1  and  C_2
REMARK    2  A    between atoms: C_2  and  C_3
REMARK    3  A    between atoms: C_3  and  C_5
REMARK    4  A    between atoms: C_3  and  N_23
REMARK    5  A    between atoms: C_5  and  C_7
REMARK    6  A    between atoms: C_5  and  N_13
REMARK    7  A    between atoms: N_13  and  C_14
REMARK    8  A    between atoms: N_13  and  C_15
REMARK    9  A    between atoms: C_15  and  C_16
REMARK   10  A    between atoms: C_19  and  C_22
REMARK                            x       y       z     vdW  Elec       q    Type
REMARK                         _______ _______ _______ _____ _____    ______ ____
ROOT
ATOM      1  C   UNL     1       0.692  -1.954   1.146  0.00  0.00    +0.079 C 
ENDROOT
BRANCH   1   2
ATOM      2  C   UNL     1       1.225  -2.206   2.533  0.00  0.00    +0.006 A 
ATOM      3  C   UNL     1       0.567  -2.642   3.634  0.00  0.00    +0.014 A 
ATOM      4  C   UNL     1       1.268  -2.803   4.815  0.00  0.00    +0.023 A 
ATOM      5  C   UNL     1       2.594  -2.519   4.835  0.00  0.00    +0.055 A 
ATOM      6  S   UNL     1       2.890  -2.015   3.149  0.00  0.00    -0.085 S 
ATOM      7 BR   UNL     1       3.814  -2.635   6.275  0.00  0.00    -0.043 Br
ENDBRANCH   1   2
BRANCH   1   8
ATOM      8  N   UNL     1       1.532  -2.653   0.164  0.00  0.00    -0.295 NA
ATOM      9  C   UNL     1       1.419  -4.109   0.316  0.00  0.00    +0.105 C 
BRANCH   8  10
ATOM     10  C   UNL     1       2.932  -2.220   0.266  0.00  0.00    +0.119 C 
BRANCH  10  11
ATOM     11  C   UNL     1       3.675  -2.625  -0.981  0.00  0.00    -0.033 A 
ATOM     12  C   UNL     1       4.297  -3.858  -1.045  0.00  0.00    +0.005 A 
ATOM     13  C   UNL     1       4.979  -4.230  -2.188  0.00  0.00    +0.003 A 
ATOM     14  C   UNL     1       5.038  -3.369  -3.268  0.00  0.00    -0.050 A 
ATOM     15  C   UNL     1       4.415  -2.136  -3.205  0.00  0.00    +0.003 A 
ATOM     16  C   UNL     1       3.730  -1.766  -2.063  0.00  0.00    +0.005 A 
ATOM     17  C   UNL     1       5.782  -3.774  -4.515  0.00  0.00    +0.044 C 
ENDBRANCH  10  11
ENDBRANCH   8  10
ENDBRANCH   1   8
BRANCH   1  18
ATOM     18  C   UNL     1       0.711  -0.452   0.857  0.00  0.00    -0.053 C 
BRANCH  18  19
ATOM     19  N   UNL     1      -0.229   0.232   1.755  0.00  0.00    +0.381 N 
ATOM     20  H   UNL     1       0.043   0.070   2.713  0.00  0.00    -0.090 HD
ATOM     21  H   UNL     1      -0.216   1.222   1.565  0.00  0.00    -0.090 HD
ATOM     22  H   UNL     1      -1.159  -0.128   1.605  0.00  0.00    -0.090 HD
ENDBRANCH  18  19
BRANCH  18  24
ATOM     23  C   UNL     1       0.455   1.279  -0.926  0.00  0.00    +0.002 C 
ATOM     24  C   UNL     1       0.299  -0.206  -0.596  0.00  0.00    -0.018 C 
ENDBRANCH  18  24
ENDBRANCH   1  18
TORSDOF 7
