REMARK  Name = ZINC65284130
REMARK  7 active torsions:
REMARK  status: ('A' for Active; 'I' for Inactive)
REMARK    1  A    between atoms: C_1  and  C_2
REMARK    2  A    between atoms: C_4  and  C_9
REMARK    3  A    between atoms: C_5  and  C_8
REMARK    4  A    between atoms: C_9  and  C_10
REMARK    5  A    between atoms: C_10  and  C_11
REMARK    6  A    between atoms: N_13  and  C_14
REMARK    7  A    between atoms: C_22  and  C_24
REMARK                            x       y       z     vdW  Elec       q    Type
REMARK                         _______ _______ _______ _____ _____    ______ ____
ROOT
ATOM      1  C   UNL     1      -6.225   2.289  -2.428  0.00  0.00    +0.053 C 
ATOM      2  C   UNL     1      -6.433   1.293  -3.301  0.00  0.00    +0.024 C 
ATOM      3  C   UNL     1      -7.532   1.332  -4.273  0.00  0.00    +0.018 C 
ATOM      4  C   UNL     1      -8.142   2.511  -4.537  0.00  0.00    +0.094 C 
ATOM      5  N   UNL     1      -7.671   3.597  -3.822  0.00  0.00    -0.231 N 
ATOM      6  C   UNL     1      -7.146   3.485  -2.440  0.00  0.00    +0.232 C 
ATOM      7  N   UNL     1      -6.397   4.733  -2.261  0.00  0.00    -0.351 N 
ATOM      8  C   UNL     1      -6.654   5.510  -3.261  0.00  0.00    +0.089 C 
ATOM      9  N   UNL     1      -7.505   4.933  -4.169  0.00  0.00    -0.251 N 
ATOM     10  H   UNL     1      -7.925   5.382  -4.919  0.00  0.00    +0.171 HD
ATOM     11  H   UNL     1      -5.808   4.941  -1.519  0.00  0.00    +0.163 HD
ENDROOT
BRANCH   1  14
ATOM     12  C   UNL     1      -5.424   2.298  -0.195  0.00  0.00    +0.217 C 
ATOM     13  O   UNL     1      -6.550   2.518   0.198  0.00  0.00    -0.275 OA
ATOM     14  N   UNL     1      -5.175   2.218  -1.517  0.00  0.00    -0.286 N 
ATOM     15  H   UNL     1      -4.265   2.111  -1.834  0.00  0.00    +0.155 HD
BRANCH  12  16
ATOM     16  C   UNL     1      -4.303   2.113   0.795  0.00  0.00    +0.100 C 
BRANCH  16  17
ATOM     17  C   UNL     1      -4.851   2.251   2.217  0.00  0.00    +0.044 C 
BRANCH  17  20
ATOM     18  C   UNL     1      -2.618  -0.114   2.657  0.00  0.00    +0.039 C 
ATOM     19  C   UNL     1      -3.186   0.765   3.773  0.00  0.00    +0.153 C 
ATOM     20  C   UNL     1      -3.730   2.066   3.207  0.00  0.00    -0.021 C 
ATOM     21  C   UNL     1      -2.984   3.006   3.791  0.00  0.00    +0.061 C 
ATOM     22  N   UNL     1      -2.074   2.451   4.622  0.00  0.00    -0.159 NA
ATOM     23  N   UNL     1      -2.114   1.216   4.677  0.00  0.00    -0.180 NA
ATOM     24  C   UNL     1      -3.136   4.487   3.554  0.00  0.00    +0.067 C 
ENDBRANCH  17  20
ENDBRANCH  16  17
ENDBRANCH  12  16
ENDBRANCH   1  14
BRANCH   8  25
ATOM     25  C   UNL     1      -6.075   6.892  -3.419  0.00  0.00    +0.052 C 
ATOM     26  C   UNL     1      -7.094   8.018  -3.180  0.00  0.00    +0.011 C 
ATOM     27  C   UNL     1      -6.445   8.751  -4.366  0.00  0.00    +0.001 C 
ATOM     28  C   UNL     1      -6.009   7.368  -4.880  0.00  0.00    +0.011 C 
ENDBRANCH   8  25
TORSDOF 5
