REMARK  Name = ZINC44686865
REMARK  5 active torsions:
REMARK  status: ('A' for Active; 'I' for Inactive)
REMARK    1  A    between atoms: C_2  and  N_22
REMARK    2  A    between atoms: C_6  and  S_7
REMARK    3  A    between atoms: S_7  and  N_10
REMARK    4  A    between atoms: N_10  and  C_11
REMARK    5  A    between atoms: N_15  and  C_17
REMARK                            x       y       z     vdW  Elec       q    Type
REMARK                         _______ _______ _______ _____ _____    ______ ____
ROOT
ATOM      1  S   UNL     1      -1.618  -1.010   0.062  0.00  0.00    +0.060 S 
ATOM      2  O   UNL     1      -2.685  -0.079  -0.053  0.00  0.00    -0.153 OA
ATOM      3  O   UNL     1      -0.309  -0.624   0.457  0.00  0.00    -0.153 OA
ENDROOT
BRANCH   1   9
ATOM      4  C   UNL     1      -1.323  -2.608   2.254  0.00  0.00    +0.055 A 
ATOM      5  C   UNL     1      -1.739  -3.578   3.156  0.00  0.00    +0.062 A 
ATOM      6  C   UNL     1      -2.985  -4.178   3.003  0.00  0.00    +0.145 A 
ATOM      7  C   UNL     1      -3.804  -3.806   1.953  0.00  0.00    +0.062 A 
ATOM      8  C   UNL     1      -3.385  -2.839   1.056  0.00  0.00    +0.070 A 
ATOM      9  C   UNL     1      -2.147  -2.241   1.207  0.00  0.00    +0.125 A 
ATOM     10 CL   UNL     1      -4.416  -2.375  -0.262  0.00  0.00    -0.081 Cl
ATOM     11  F   UNL     1      -3.393  -5.122   3.878  0.00  0.00    -0.204 F 
BRANCH   5  12
ATOM     12  N   UNL     1      -0.907  -3.952   4.217  0.00  0.00    -0.356 N 
ATOM     13  H   UNL     1      -0.038  -3.533   4.322  0.00  0.00    +0.142 HD
ATOM     14  H   UNL     1      -1.199  -4.630   4.847  0.00  0.00    +0.142 HD
ENDBRANCH   5  12
ENDBRANCH   1   9
BRANCH   1  15
ATOM     15  N   UNL     1      -1.470  -1.746  -1.414  0.00  0.00    -0.189 NA
ATOM     16  H   UNL     1      -2.033  -1.468  -2.153  0.00  0.00    +0.148 HD
BRANCH  15  17
ATOM     17  C   UNL     1      -0.489  -2.817  -1.603  0.00  0.00    +0.058 C 
ATOM     18  C   UNL     1       0.788  -2.262  -2.276  0.00  0.00    -0.000 C 
ATOM     19  C   UNL     1       1.183  -3.394  -3.257  0.00  0.00    -0.077 C 
ATOM     20  N   UNL     1      -0.128  -3.886  -3.753  0.00  0.00    +0.383 N 
ATOM     21  C   UNL     1      -1.034  -3.875  -2.581  0.00  0.00    -0.058 C 
ATOM     22  H   UNL     1      -0.481  -3.273  -4.472  0.00  0.00    -0.081 HD
BRANCH  20  23
ATOM     23  C   UNL     1       0.008  -5.254  -4.273  0.00  0.00    -0.069 C 
ATOM     24  C   UNL     1      -0.181  -5.459  -5.777  0.00  0.00    -0.017 C 
ATOM     25  C   UNL     1      -1.255  -5.939  -4.799  0.00  0.00    -0.017 C 
ENDBRANCH  20  23
ENDBRANCH  15  17
ENDBRANCH   1  15
TORSDOF 5
