REMARK  Name = ZINC02269165
REMARK  8 active torsions:
REMARK  status: ('A' for Active; 'I' for Inactive)
REMARK    1  A    between atoms: C_1  and  C_2
REMARK    2  A    between atoms: C_2  and  O_3
REMARK    3  A    between atoms: O_3  and  C_4
REMARK    4  A    between atoms: C_4  and  C_6
REMARK    5  A    between atoms: C_7  and  N_17
REMARK    6  A    between atoms: C_18  and  C_20
REMARK    7  A    between atoms: C_20  and  C_21
REMARK    8  A    between atoms: C_21  and  N_54
REMARK                            x       y       z     vdW  Elec       q    Type
REMARK                         _______ _______ _______ _____ _____    ______ ____
ROOT
ATOM      1  N   UNL     1       0.557   0.466  -5.290  0.00  0.00    -0.283 N 
ATOM      2  C   UNL     1       1.061  -0.458  -4.448  0.00  0.00    +0.215 C 
ATOM      3  O   UNL     1       0.554  -0.627  -3.359  0.00  0.00    -0.276 OA
ATOM      4  H   UNL     1       0.916   0.552  -6.187  0.00  0.00    +0.155 HD
ENDROOT
BRANCH   1   6
ATOM      5  C   UNL     1      -0.692   2.604  -5.253  0.00  0.00    +0.147 A 
ATOM      6  C   UNL     1      -0.480   1.294  -4.873  0.00  0.00    +0.073 A 
ATOM      7  C   UNL     1      -1.559   0.947  -3.945  0.00  0.00    +0.023 A 
ATOM      8  C   UNL     1      -1.882  -0.213  -3.236  0.00  0.00    +0.027 A 
ATOM      9  C   UNL     1      -2.982  -0.231  -2.426  0.00  0.00    +0.019 A 
ATOM     10  C   UNL     1      -3.784   0.898  -2.302  0.00  0.00    +0.017 A 
ATOM     11  C   UNL     1      -3.485   2.051  -2.992  0.00  0.00    +0.027 A 
ATOM     12  C   UNL     1      -2.367   2.093  -3.823  0.00  0.00    +0.049 A 
ATOM     13  N   UNL     1      -1.826   3.080  -4.613  0.00  0.00    -0.348 N 
ATOM     14  H   UNL     1      -2.186   3.976  -4.710  0.00  0.00    +0.166 HD
ATOM     15 BR   UNL     1      -3.417  -1.801  -1.467  0.00  0.00    -0.050 Br
BRANCH   5  16
ATOM     16  C   UNL     1       0.121   3.344  -6.149  0.00  0.00    +0.358 C 
ATOM     17  O   UNL     1       1.155   2.861  -6.573  0.00  0.00    -0.243 OA
BRANCH  16  18
ATOM     18  O   UNL     1      -0.251   4.584  -6.530  0.00  0.00    -0.460 OA
BRANCH  18  20
ATOM     19  C   UNL     1       0.034   6.651  -7.749  0.00  0.00    +0.048 C 
ATOM     20  C   UNL     1       0.616   5.272  -7.434  0.00  0.00    +0.229 C 
ENDBRANCH  18  20
ENDBRANCH  16  18
ENDBRANCH   5  16
ENDBRANCH   1   6
BRANCH   2  21
ATOM     21  C   UNL     1       2.254  -1.282  -4.860  0.00  0.00    +0.077 C 
BRANCH  21  22
ATOM     22  C   UNL     1       2.621  -2.247  -3.732  0.00  0.00    -0.069 C 
BRANCH  22  32
ATOM     23  C   UNL     1       4.313  -3.818  -2.995  0.00  0.00    -0.074 C 
ATOM     24  C   UNL     1       5.260  -4.892  -3.531  0.00  0.00    +0.017 C 
ATOM     25  C   UNL     1       6.259  -4.271  -4.475  0.00  0.00    -0.048 A 
ATOM     26  C   UNL     1       7.404  -4.988  -4.791  0.00  0.00    +0.004 A 
ATOM     27  C   UNL     1       8.342  -4.458  -5.654  0.00  0.00    +0.000 A 
ATOM     28  C   UNL     1       8.139  -3.207  -6.206  0.00  0.00    +0.000 A 
ATOM     29  C   UNL     1       7.002  -2.493  -5.891  0.00  0.00    +0.002 A 
ATOM     30  C   UNL     1       6.058  -3.023  -5.023  0.00  0.00    -0.061 A 
ATOM     31  C   UNL     1       4.835  -2.203  -4.706  0.00  0.00    -0.043 C 
ATOM     32  N   UNL     1       3.781  -3.068  -4.150  0.00  0.00    +0.383 N 
ATOM     33  H   UNL     1       3.477  -3.733  -4.870  0.00  0.00    -0.081 HD
ENDBRANCH  22  32
ENDBRANCH  21  22
ENDBRANCH   2  21
TORSDOF 7
