REMARK  Name = ZINC00957735
REMARK  7 active torsions:
REMARK  status: ('A' for Active; 'I' for Inactive)
REMARK    1  A    between atoms: C_1  and  C_2
REMARK    2  A    between atoms: C_5  and  N_9
REMARK    3  A    between atoms: C_7  and  C_8
REMARK    4  A    between atoms: C_10  and  C_12
REMARK    5  A    between atoms: C_13  and  C_23
REMARK    6  A    between atoms: C_18  and  C_22
REMARK    7  A    between atoms: N_25  and  C_26
REMARK                            x       y       z     vdW  Elec       q    Type
REMARK                         _______ _______ _______ _____ _____    ______ ____
ROOT
ATOM      1  C   UNL     1       3.557  -1.593  -0.073  0.00  0.00    +0.149 A 
ATOM      2  C   UNL     1       3.294  -2.793  -0.673  0.00  0.00    +0.108 A 
ATOM      3  S   UNL     1       1.535  -2.952  -0.409  0.00  0.00    -0.042 S 
ATOM      4  C   UNL     1       1.288  -1.425   0.471  0.00  0.00    +0.198 A 
ATOM      5  N   UNL     1       2.542  -0.878   0.518  0.00  0.00    -0.202 N 
ATOM      6  N   UNL     1       2.671   0.374   1.174  0.00  0.00    -0.164 NA
ATOM      7  C   UNL     1       1.637   0.958   1.698  0.00  0.00    +0.125 A 
ATOM      8  C   UNL     1       0.320   0.319   1.613  0.00  0.00    +0.295 A 
ATOM      9  O   UNL     1      -0.668   0.853   2.096  0.00  0.00    -0.264 OA
ATOM     10  N   UNL     1       0.226  -0.861   0.990  0.00  0.00    -0.181 NA
ATOM     11  C   UNL     1       1.788   2.287   2.392  0.00  0.00    +0.073 C 
ENDROOT
BRANCH   1  13
ATOM     12  N   UNL     1       5.305  -0.139  -0.964  0.00  0.00    -0.280 N 
ATOM     13  C   UNL     1       4.931  -1.065  -0.060  0.00  0.00    +0.268 C 
ATOM     14  O   UNL     1       5.728  -1.466   0.767  0.00  0.00    -0.268 OA
ATOM     15  H   UNL     1       4.647   0.253  -1.559  0.00  0.00    +0.155 HD
BRANCH  12  20
ATOM     16  C   UNL     1      10.734   1.472  -1.291  0.00  0.00    +0.044 C 
ATOM     17  C   UNL     1       9.292   1.044  -1.204  0.00  0.00    -0.047 A 
ATOM     18  C   UNL     1       8.806   0.489  -0.034  0.00  0.00    +0.005 A 
ATOM     19  C   UNL     1       7.484   0.101   0.051  0.00  0.00    +0.023 A 
ATOM     20  C   UNL     1       6.643   0.259  -1.044  0.00  0.00    +0.034 A 
ATOM     21  C   UNL     1       7.134   0.817  -2.218  0.00  0.00    +0.027 A 
ATOM     22  C   UNL     1       8.457   1.208  -2.294  0.00  0.00    -0.046 A 
ATOM     23  C   UNL     1       8.990   1.814  -3.566  0.00  0.00    +0.044 C 
ENDBRANCH  12  20
ENDBRANCH   1  13
BRANCH   2  24
ATOM     24  C   UNL     1       4.221  -3.715  -1.359  0.00  0.00    +0.257 C 
ATOM     25  O   UNL     1       5.380  -3.394  -1.531  0.00  0.00    -0.269 OA
ATOM     26  N   UNL     1       3.780  -4.912  -1.794  0.00  0.00    -0.281 N 
ATOM     27  H   UNL     1       2.833  -5.118  -1.772  0.00  0.00    +0.155 HD
BRANCH  26  28
ATOM     28  C   UNL     1       4.690  -5.857  -2.279  0.00  0.00    +0.036 A 
ATOM     29  C   UNL     1       4.307  -6.742  -3.279  0.00  0.00    +0.043 A 
ATOM     30  C   UNL     1       5.210  -7.672  -3.759  0.00  0.00    +0.044 A 
ATOM     31  C   UNL     1       6.490  -7.729  -3.237  0.00  0.00    +0.040 A 
ATOM     32  C   UNL     1       6.872  -6.852  -2.237  0.00  0.00    +0.044 A 
ATOM     33  C   UNL     1       5.976  -5.916  -1.757  0.00  0.00    +0.043 A 
ATOM     34 CL   UNL     1       8.480  -6.926  -1.586  0.00  0.00    -0.083 Cl
ATOM     35 CL   UNL     1       4.734  -8.774  -5.013  0.00  0.00    -0.083 Cl
ENDBRANCH  26  28
ENDBRANCH   2  24
TORSDOF 4
