REMARK  Name = ZINC49192991
REMARK  11 active torsions:
REMARK  status: ('A' for Active; 'I' for Inactive)
REMARK    1  A    between atoms: C_1  and  C_2
REMARK    2  A    between atoms: C_2  and  C_3
REMARK    3  A    between atoms: C_2  and  C_4
REMARK    4  A    between atoms: C_4  and  C_6
REMARK    5  A    between atoms: C_4  and  N_10
REMARK    6  A    between atoms: C_6  and  N_7
REMARK    7  A    between atoms: N_7  and  C_8
REMARK    8  A    between atoms: N_7  and  C_9
REMARK    9  A    between atoms: N_10  and  S_11
REMARK   10  A    between atoms: S_11  and  C_14
REMARK   11  A    between atoms: C_17  and  N_21
REMARK                            x       y       z     vdW  Elec       q    Type
REMARK                         _______ _______ _______ _____ _____    ______ ____
ROOT
ATOM      1  S   UNL     1      -3.323   0.151  -1.458  0.00  0.00    +0.061 S 
ATOM      2  O   UNL     1      -3.929   0.100  -2.743  0.00  0.00    -0.153 OA
ATOM      3  O   UNL     1      -3.981  -0.312  -0.287  0.00  0.00    -0.153 OA
ENDROOT
BRANCH   1   4
ATOM      4  C   UNL     1      -2.904   1.838  -1.166  0.00  0.00    +0.133 A 
ATOM      5  C   UNL     1      -2.896   2.333   0.125  0.00  0.00    +0.047 A 
ATOM      6  C   UNL     1      -2.568   3.656   0.357  0.00  0.00    +0.040 A 
ATOM      7  C   UNL     1      -2.245   4.487  -0.707  0.00  0.00    +0.027 A 
ATOM      8  C   UNL     1      -2.252   3.986  -2.003  0.00  0.00    +0.040 A 
ATOM      9  C   UNL     1      -2.576   2.662  -2.228  0.00  0.00    +0.047 A 
ATOM     10 BR   UNL     1      -2.580   1.977  -3.991  0.00  0.00    -0.048 Br
ATOM     11 BR   UNL     1      -3.336   1.201   1.574  0.00  0.00    -0.048 Br
BRANCH   7  12
ATOM     12  N   UNL     1      -1.913   5.824  -0.476  0.00  0.00    -0.358 N 
ATOM     13  H   UNL     1      -1.908   6.173   0.429  0.00  0.00    +0.142 HD
ATOM     14  H   UNL     1      -1.687   6.403  -1.220  0.00  0.00    +0.142 HD
ENDBRANCH   7  12
ENDBRANCH   1   4
BRANCH   1  15
ATOM     15  N   UNL     1      -1.904  -0.694  -1.571  0.00  0.00    -0.188 NA
ATOM     16  H   UNL     1      -1.644  -1.096  -2.414  0.00  0.00    +0.148 HD
BRANCH  15  17
ATOM     17  C   UNL     1      -1.040  -0.835  -0.396  0.00  0.00    +0.063 C 
BRANCH  17  19
ATOM     18  C   UNL     1       0.140   1.308  -0.903  0.00  0.00    +0.009 C 
ATOM     19  C   UNL     1       0.320  -0.195  -0.682  0.00  0.00    -0.000 C 
ATOM     20  C   UNL     1       1.254  -0.428   0.507  0.00  0.00    +0.009 C 
ENDBRANCH  17  19
BRANCH  17  21
ATOM     21  C   UNL     1      -0.849  -2.320  -0.079  0.00  0.00    -0.059 C 
BRANCH  21  22
ATOM     22  N   UNL     1      -2.160  -2.948   0.132  0.00  0.00    +0.377 N 
ATOM     23  C   UNL     1      -1.990  -4.401   0.272  0.00  0.00    -0.097 C 
ATOM     24  C   UNL     1      -2.772  -2.407   1.353  0.00  0.00    -0.097 C 
ATOM     25  H   UNL     1      -2.757  -2.754  -0.658  0.00  0.00    -0.083 HD
ENDBRANCH  21  22
ENDBRANCH  17  21
ENDBRANCH  15  17
ENDBRANCH   1  15
TORSDOF 7
