REMARK  Name = ZINC12580316
REMARK  6 active torsions:
REMARK  status: ('A' for Active; 'I' for Inactive)
REMARK    1  A    between atoms: C_3  and  C_5
REMARK    2  A    between atoms: C_5  and  N_6
REMARK    3  A    between atoms: C_10  and  C_13
REMARK    4  A    between atoms: C_10  and  O_24
REMARK    5  A    between atoms: C_13  and  N_58
REMARK    6  A    between atoms: C_14  and  N_58
REMARK                            x       y       z     vdW  Elec       q    Type
REMARK                         _______ _______ _______ _____ _____    ______ ____
ROOT
ATOM      1  N   UNL     1      -2.825   3.069   6.195  0.00  0.00    -0.299 N 
ATOM      2  C   UNL     1      -1.726   3.702   6.914  0.00  0.00    +0.108 C 
ATOM      3  C   UNL     1      -0.823   4.466   5.945  0.00  0.00    +0.022 C 
ATOM      4  C   UNL     1      -1.697   5.381   5.078  0.00  0.00    +0.044 C 
ATOM      5  C   UNL     1      -2.560   4.504   4.167  0.00  0.00    +0.127 C 
ATOM      6  C   UNL     1      -3.223   3.425   4.973  0.00  0.00    +0.245 C 
ATOM      7  O   UNL     1      -4.174   2.849   4.489  0.00  0.00    -0.273 OA
ENDROOT
BRANCH   5   8
ATOM      8  O   UNL     1      -1.736   3.902   3.167  0.00  0.00    -0.381 OA
ATOM      9  H   UNL     1      -2.216   3.332   2.552  0.00  0.00    +0.211 HD
ENDBRANCH   5   8
BRANCH   1  10
ATOM     10  C   UNL     1      -3.534   1.969   6.855  0.00  0.00    +0.111 C 
BRANCH  10  13
ATOM     11  C   UNL     1      -6.749   2.174   8.099  0.00  0.00    +0.001 C 
ATOM     12  C   UNL     1      -5.442   1.468   8.498  0.00  0.00    +0.005 C 
ATOM     13  C   UNL     1      -4.704   2.530   7.666  0.00  0.00    +0.006 C 
ATOM     14  C   UNL     1      -6.003   2.681   6.854  0.00  0.00    +0.005 C 
ENDBRANCH  10  13
ENDBRANCH   1  10
BRANCH   5  15
ATOM     15  C   UNL     1      -3.628   5.368   3.493  0.00  0.00    -0.037 C 
BRANCH  15  16
ATOM     16  N   UNL     1      -2.968   6.444   2.729  0.00  0.00    +0.385 N 
ATOM     17  H   UNL     1      -2.383   6.029   1.995  0.00  0.00    -0.085 HD
ATOM     18  H   UNL     1      -2.379   6.997   3.363  0.00  0.00    -0.085 HD
BRANCH  16  19
ATOM     19  C   UNL     1      -3.976   7.324   2.109  0.00  0.00    -0.067 C 
ATOM     20  C   UNL     1      -4.854   6.509   1.157  0.00  0.00    -0.009 C 
ATOM     21  C   UNL     1      -5.893   7.427   0.510  0.00  0.00    -0.012 C 
ATOM     22  C   UNL     1      -5.180   8.531  -0.274  0.00  0.00    +0.007 C 
ATOM     23  C   UNL     1      -4.302   9.346   0.678  0.00  0.00    -0.012 C 
ATOM     24  C   UNL     1      -3.263   8.428   1.325  0.00  0.00    -0.009 C 
ATOM     25  C   UNL     1      -5.175   9.975   1.765  0.00  0.00    +0.007 C 
ATOM     26  C   UNL     1      -5.888   8.871   2.549  0.00  0.00    -0.012 C 
ATOM     27  C   UNL     1      -6.766   8.056   1.598  0.00  0.00    +0.007 C 
ATOM     28  C   UNL     1      -4.849   7.953   3.196  0.00  0.00    -0.009 C 
ENDBRANCH  16  19
ENDBRANCH  15  16
ENDBRANCH   5  15
TORSDOF 6
