REMARK  Name = ZINC36000429
REMARK  8 active torsions:
REMARK  status: ('A' for Active; 'I' for Inactive)
REMARK    1  A    between atoms: C_1  and  C_2
REMARK    2  A    between atoms: C_2  and  C_3
REMARK    3  A    between atoms: C_2  and  C_4
REMARK    4  A    between atoms: N_6  and  C_7
REMARK    5  A    between atoms: C_7  and  C_8
REMARK    6  A    between atoms: C_8  and  N_9
REMARK    7  A    between atoms: N_14  and  C_25
REMARK    8  A    between atoms: C_17  and  C_19
REMARK                            x       y       z     vdW  Elec       q    Type
REMARK                         _______ _______ _______ _____ _____    ______ ____
ROOT
ATOM      1  N   UNL     1       0.979  -0.668   6.086  0.00  0.00    -0.327 N 
ATOM      2  C   UNL     1       0.514  -0.347   7.346  0.00  0.00    +0.133 A 
ATOM      3  C   UNL     1       1.186  -0.800   8.499  0.00  0.00    +0.079 A 
ATOM      4  C   UNL     1       2.337  -1.583   8.735  0.00  0.00    +0.148 A 
ATOM      5  N   UNL     1       2.505  -1.693  10.022  0.00  0.00    -0.172 NA
ATOM      6  N   UNL     1       1.490  -1.000  10.692  0.00  0.00    -0.212 N 
ATOM      7  C   UNL     1       0.665  -0.441   9.758  0.00  0.00    +0.169 A 
ATOM      8  N   UNL     1      -0.435   0.307   9.808  0.00  0.00    -0.212 NA
ATOM      9  C   UNL     1      -1.027   0.706   8.704  0.00  0.00    +0.137 A 
ATOM     10  N   UNL     1      -0.573   0.400   7.501  0.00  0.00    -0.216 NA
ATOM     11  H   UNL     1       1.774  -1.214   5.986  0.00  0.00    +0.148 HD
ENDROOT
BRANCH   6  12
ATOM     12  C   UNL     1       1.345  -0.897  12.082  0.00  0.00    +0.086 A 
ATOM     13  C   UNL     1       0.284  -0.180  12.620  0.00  0.00    +0.029 A 
ATOM     14  C   UNL     1       0.143  -0.081  13.990  0.00  0.00    +0.002 A 
ATOM     15  C   UNL     1       1.057  -0.694  14.827  0.00  0.00    +0.002 A 
ATOM     16  C   UNL     1       2.115  -1.408  14.296  0.00  0.00    +0.022 A 
ATOM     17  C   UNL     1       2.259  -1.516  12.925  0.00  0.00    +0.066 A 
ATOM     18 CL   UNL     1       3.583  -2.419  12.259  0.00  0.00    -0.081 Cl
ENDBRANCH   6  12
BRANCH   9  19
ATOM     19  C   UNL     1      -2.270   1.552   8.814  0.00  0.00    +0.057 C 
ATOM     20  C   UNL     1      -3.437   0.833   8.136  0.00  0.00    +0.011 C 
ATOM     21  C   UNL     1      -4.699   1.691   8.248  0.00  0.00    +0.001 C 
ATOM     22  C   UNL     1      -4.462   3.038   7.562  0.00  0.00    +0.000 C 
ATOM     23  C   UNL     1      -3.294   3.757   8.241  0.00  0.00    +0.001 C 
ATOM     24  C   UNL     1      -2.033   2.899   8.129  0.00  0.00    +0.011 C 
ENDBRANCH   9  19
BRANCH   1  25
ATOM     25  C   UNL     1       0.270  -0.182   4.899  0.00  0.00    +0.121 C 
BRANCH  25  26
ATOM     26  C   UNL     1       0.986  -0.676   3.640  0.00  0.00    +0.123 C 
BRANCH  26  29
ATOM     27  C   UNL     1       0.731  -0.503   1.223  0.00  0.00    +0.216 C 
ATOM     28  O   UNL     1       1.725  -1.187   1.099  0.00  0.00    -0.276 OA
ATOM     29  N   UNL     1       0.278  -0.191   2.453  0.00  0.00    -0.314 N 
ATOM     30  H   UNL     1      -0.517   0.356   2.553  0.00  0.00    +0.149 HD
BRANCH  27  32
ATOM     31  C   UNL     1      -0.019   1.526   0.010  0.00  0.00    +0.017 C 
ATOM     32  C   UNL     1       0.002  -0.004   0.002  0.00  0.00    +0.069 C 
ATOM     33  C   UNL     1       0.718  -0.497  -1.257  0.00  0.00    +0.017 C 
ENDBRANCH  27  32
ENDBRANCH  26  29
ENDBRANCH  25  26
ENDBRANCH   1  25
TORSDOF 6
