REMARK  Name = ZINC34789435
REMARK  5 active torsions:
REMARK  status: ('A' for Active; 'I' for Inactive)
REMARK    1  A    between atoms: C_4  and  C_7
REMARK    2  A    between atoms: C_15  and  N_21
REMARK    3  A    between atoms: N_19  and  N_20
REMARK    4  A    between atoms: N_21  and  N_22
REMARK    5  A    between atoms: C_23  and  C_26
REMARK                            x       y       z     vdW  Elec       q    Type
REMARK                         _______ _______ _______ _____ _____    ______ ____
ROOT
ATOM      1  C   UNL     1       4.408  -0.632  -0.765  0.00  0.00    +0.081 C 
ATOM      2  C   UNL     1       4.530  -1.802  -1.735  0.00  0.00    +0.054 C 
ATOM      3  C   UNL     1       5.602  -2.779  -1.304  0.00  0.00    -0.033 C 
ATOM      4  C   UNL     1       6.122  -2.935  -0.096  0.00  0.00    -0.043 C 
ATOM      5  C   UNL     1       7.158  -4.044  -0.145  0.00  0.00    +0.086 C 
ATOM      6  C   UNL     1       7.174  -4.509  -1.565  0.00  0.00    +0.033 A 
ATOM      7  C   UNL     1       6.227  -3.728  -2.239  0.00  0.00    +0.039 A 
ATOM      8  C   UNL     1       6.006  -3.930  -3.616  0.00  0.00    +0.145 A 
ATOM      9  N   UNL     1       6.748  -4.887  -4.182  0.00  0.00    -0.198 NA
ATOM     10  C   UNL     1       7.630  -5.598  -3.501  0.00  0.00    +0.209 A 
ATOM     11  N   UNL     1       7.868  -5.436  -2.197  0.00  0.00    -0.329 N 
ATOM     12  N   UNL     1       8.350  -6.566  -4.179  0.00  0.00    -0.253 N 
ATOM     13  C   UNL     1       5.795  -2.165   1.165  0.00  0.00    +0.103 C 
ATOM     14  S   UNL     1       4.217  -1.296   0.919  0.00  0.00    -0.140 S 
ATOM     15  H   UNL     1       9.004  -7.103  -3.707  0.00  0.00    +0.169 HD
ATOM     16  H   UNL     1       8.525  -5.978  -1.733  0.00  0.00    +0.168 HD
ENDROOT
BRANCH   1  20
ATOM     17  C   UNL     1       0.993   1.725  -1.779  0.00  0.00    +0.000 A 
ATOM     18  C   UNL     1       2.251   2.297  -1.777  0.00  0.00    +0.000 A 
ATOM     19  C   UNL     1       3.357   1.534  -1.448  0.00  0.00    +0.005 A 
ATOM     20  C   UNL     1       3.203   0.200  -1.122  0.00  0.00    -0.034 A 
ATOM     21  C   UNL     1       1.945  -0.372  -1.124  0.00  0.00    +0.005 A 
ATOM     22  C   UNL     1       0.840   0.390  -1.454  0.00  0.00    +0.000 A 
ENDBRANCH   1  20
BRANCH  13  23
ATOM     23  C   UNL     1       6.889  -1.167   1.447  0.00  0.00    -0.030 A 
ATOM     24  C   UNL     1       7.470  -1.114   2.700  0.00  0.00    +0.005 A 
ATOM     25  C   UNL     1       8.473  -0.198   2.958  0.00  0.00    +0.000 A 
ATOM     26  C   UNL     1       8.895   0.664   1.963  0.00  0.00    +0.000 A 
ATOM     27  C   UNL     1       8.314   0.610   0.710  0.00  0.00    +0.000 A 
ATOM     28  C   UNL     1       7.314  -0.308   0.450  0.00  0.00    +0.005 A 
ENDBRANCH  13  23
BRANCH  12  29
ATOM     29  N   UNL     1       8.138  -6.764  -5.514  0.00  0.00    -0.254 NA
ATOM     30  H   UNL     1       8.731  -7.499  -5.869  0.00  0.00    +0.140 HD
ATOM     31  H   UNL     1       7.166  -6.963  -5.700  0.00  0.00    +0.140 HD
ENDBRANCH  12  29
BRANCH   8  32
ATOM     32  N   UNL     1       5.084  -3.189  -4.333  0.00  0.00    -0.267 N 
ATOM     33  H   UNL     1       4.461  -2.608  -3.868  0.00  0.00    +0.167 HD
BRANCH  32  34
ATOM     34  N   UNL     1       5.050  -3.275  -5.696  0.00  0.00    -0.255 NA
ATOM     35  H   UNL     1       4.927  -4.230  -5.995  0.00  0.00    +0.140 HD
ATOM     36  H   UNL     1       4.329  -2.680  -6.078  0.00  0.00    +0.140 HD
ENDBRANCH  32  34
ENDBRANCH   8  32
TORSDOF 5
