REMARK  Name = ZINC49570670
REMARK  3 active torsions:
REMARK  status: ('A' for Active; 'I' for Inactive)
REMARK    1  A    between atoms: CA_4  and  C_18
REMARK    2  A    between atoms: C_6  and  N_7
REMARK    3  A    between atoms: N_7  and  C_8
REMARK                            x       y       z     vdW  Elec       q    Type
REMARK                         _______ _______ _______ _____ _____    ______ ____
ROOT
ATOM      1  N   UNL     1      -1.183  -0.734   0.010  0.00  0.00    -0.342 N 
ATOM      2  H   UNL     1      -1.156  -1.703   0.004  0.00  0.00    +0.146 HD
ENDROOT
BRANCH   1   3
ATOM      3  C   UNL     1      -2.472  -0.037   0.026  0.00  0.00    +0.055 C 
ATOM      4  C   UNL     1      -2.913   0.250   1.476  0.00  0.00    +0.002 C 
ATOM      5  C   UNL     1      -4.444   0.114   1.449  0.00  0.00    -0.077 C 
ATOM      6  N   UNL     1      -4.806  -0.640   0.243  0.00  0.00    +0.383 N 
ATOM      7  C   UNL     1      -3.583  -0.945  -0.534  0.00  0.00    -0.048 C 
ATOM      8  C   UNL     1      -3.238  -2.413  -0.183  0.00  0.00    -0.015 C 
ATOM      9  C   UNL     1      -4.644  -3.047  -0.025  0.00  0.00    -0.020 C 
ATOM     10  C   UNL     1      -5.471  -1.902   0.606  0.00  0.00    -0.078 C 
ATOM     11  H   UNL     1      -5.423  -0.086  -0.330  0.00  0.00    -0.081 HD
ENDBRANCH   1   3
BRANCH   1  17
ATOM     12  C   UNL     1      -0.017   1.389   0.010  0.00  0.00    +0.040 A 
ATOM     13  C   UNL     1       1.181   2.082   0.002  0.00  0.00    +0.085 A 
ATOM     14  N   UNL     1       2.332   1.446  -0.013  0.00  0.00    -0.355 N 
ATOM     15  CA  UNL     1       2.399   0.118  -0.021  0.00  0.00    +0.130 A 
ATOM     16  C   UNL     1       1.239  -0.649  -0.013  0.00  0.00    +0.056 A 
ATOM     17  C   UNL     1       0.002  -0.004   0.002  0.00  0.00    +0.031 A 
ATOM     18  H   UNL     1       3.155   1.959  -0.019  0.00  0.00    +0.166 HD
BRANCH  15  19
ATOM     19  C   UNL     1       3.719  -0.549  -0.038  0.00  0.00    +0.402 C 
ATOM     20  O   UNL     1       4.742   0.120  -0.045  0.00  0.00    -0.239 OA
ATOM     21  OXT UNL     1       3.787  -1.770  -0.045  0.00  0.00    -0.239 OA
ENDBRANCH  15  19
ENDBRANCH   1  17
TORSDOF 3
