REMARK  Name = ZINC23109071
REMARK  4 active torsions:
REMARK  status: ('A' for Active; 'I' for Inactive)
REMARK    1  A    between atoms: C_1  and  C_2
REMARK    2  A    between atoms: C_3  and  C_7
REMARK    3  A    between atoms: N_9  and  N_10
REMARK    4  A    between atoms: C_16  and  C_19
REMARK                            x       y       z     vdW  Elec       q    Type
REMARK                         _______ _______ _______ _____ _____    ______ ____
ROOT
ATOM      1  N   UNL     1      -4.267  -0.185   0.019  0.00  0.00    -0.218 N 
ATOM      2  C   UNL     1      -4.577  -1.494   0.115  0.00  0.00    +0.319 C 
ATOM      3  O   UNL     1      -5.741  -1.844   0.118  0.00  0.00    -0.251 OA
ATOM      4  N   UNL     1      -3.596  -2.413   0.208  0.00  0.00    -0.280 N 
ATOM      5  C   UNL     1      -3.895  -3.856   0.205  0.00  0.00    +0.114 C 
ATOM      6  C   UNL     1      -3.226  -4.474  -1.025  0.00  0.00    +0.054 C 
ATOM      7  C   UNL     1      -1.818  -3.976  -1.160  0.00  0.00    -0.041 C 
ATOM      8  C   UNL     1      -1.356  -2.895  -0.580  0.00  0.00    -0.004 C 
ATOM      9  C   UNL     1      -2.184  -2.017   0.310  0.00  0.00    +0.137 C 
ATOM     10  H   UNL     1      -3.216   0.126  -0.068  0.00  0.00    +0.174 HD
ENDROOT
BRANCH   7  11
ATOM     11  C   UNL     1      -0.888  -4.758  -2.003  0.00  0.00    -0.022 A 
ATOM     12  C   UNL     1      -1.116  -4.874  -3.375  0.00  0.00    +0.008 A 
ATOM     13  C   UNL     1      -0.242  -5.600  -4.157  0.00  0.00    +0.001 A 
ATOM     14  C   UNL     1       0.852  -6.222  -3.582  0.00  0.00    +0.000 A 
ATOM     15  C   UNL     1       1.081  -6.115  -2.222  0.00  0.00    +0.001 A 
ATOM     16  C   UNL     1       0.217  -5.387  -1.430  0.00  0.00    +0.008 A 
ENDBRANCH   7  11
BRANCH   1  19
ATOM     17  C   UNL     1      -4.971   2.089   0.034  0.00  0.00    +0.263 C 
ATOM     18  O   UNL     1      -3.805   2.435   0.030  0.00  0.00    -0.269 OA
ATOM     19  N   UNL     1      -5.284   0.778   0.029  0.00  0.00    -0.229 N 
ATOM     20  H   UNL     1      -6.339   0.465   0.032  0.00  0.00    +0.173 HD
BRANCH  17  23
ATOM     21  C   UNL     1      -4.582   5.202   0.040  0.00  0.00    +0.087 C 
ATOM     22  C   UNL     1      -5.893   4.458   0.046  0.00  0.00    +0.114 A 
ATOM     23  C   UNL     1      -6.041   3.102   0.044  0.00  0.00    +0.079 A 
ATOM     24  C   UNL     1      -7.492   2.863   0.050  0.00  0.00    +0.054 A 
ATOM     25  C   UNL     1      -8.065   4.076   0.065  0.00  0.00    +0.196 A 
ATOM     26  O   UNL     1      -7.107   5.016   0.063  0.00  0.00    -0.467 OA
ENDBRANCH  17  23
ENDBRANCH   1  19
TORSDOF 3
