REMARK  Name = ZINC56937899
REMARK  9 active torsions:
REMARK  status: ('A' for Active; 'I' for Inactive)
REMARK    1  A    between atoms: C_1  and  N_2
REMARK    2  A    between atoms: N_2  and  C_3
REMARK    3  A    between atoms: N_2  and  C_4
REMARK    4  A    between atoms: C_4  and  C_6
REMARK    5  A    between atoms: C_4  and  C_22
REMARK    6  A    between atoms: C_6  and  N_7
REMARK    7  A    between atoms: N_10  and  N_11
REMARK    8  A    between atoms: C_12  and  C_14
REMARK    9  A    between atoms: C_14  and  C_15
REMARK                            x       y       z     vdW  Elec       q    Type
REMARK                         _______ _______ _______ _____ _____    ______ ____
ROOT
ATOM      1  N   UNL     1      -0.717  -2.158  -0.242  0.00  0.00    -0.299 N 
ATOM      2  C   UNL     1      -1.012  -3.439   0.054  0.00  0.00    +0.316 C 
ATOM      3  O   UNL     1      -0.128  -4.273   0.092  0.00  0.00    -0.251 OA
ATOM      4  N   UNL     1      -2.286  -3.796   0.309  0.00  0.00    -0.218 N 
ATOM      5  H   UNL     1      -1.422  -1.492  -0.272  0.00  0.00    +0.150 HD
ATOM      6  H   UNL     1      -2.499  -4.718   0.522  0.00  0.00    +0.174 HD
ENDROOT
BRANCH   4   7
ATOM      7  N   UNL     1      -3.305  -2.835   0.265  0.00  0.00    -0.233 N 
ATOM      8  C   UNL     1      -4.579  -3.192   0.520  0.00  0.00    +0.233 C 
ATOM      9  O   UNL     1      -4.845  -4.345   0.787  0.00  0.00    -0.274 OA
ATOM     10  H   UNL     1      -3.093  -1.913   0.052  0.00  0.00    +0.173 HD
BRANCH   8  11
ATOM     11  C   UNL     1      -5.675  -2.158   0.473  0.00  0.00    +0.132 C 
BRANCH  11  12
ATOM     12  C   UNL     1      -6.995  -2.810   0.793  0.00  0.00    -0.038 A 
ATOM     13  C   UNL     1      -7.766  -3.345  -0.223  0.00  0.00    +0.005 A 
ATOM     14  C   UNL     1      -8.977  -3.943   0.070  0.00  0.00    +0.020 A 
ATOM     15  C   UNL     1      -9.418  -4.007   1.380  0.00  0.00    +0.041 A 
ATOM     16  C   UNL     1      -8.646  -3.472   2.396  0.00  0.00    +0.020 A 
ATOM     17  C   UNL     1      -7.433  -2.879   2.103  0.00  0.00    +0.005 A 
ATOM     18 CL   UNL     1     -10.939  -4.758   1.748  0.00  0.00    -0.084 Cl
ENDBRANCH  11  12
ENDBRANCH   8  11
ENDBRANCH   4   7
BRANCH   1  19
ATOM     19  C   UNL     1       0.668  -1.770  -0.519  0.00  0.00    +0.095 C 
BRANCH  19  20
ATOM     20  C   UNL     1       0.711  -0.303  -0.949  0.00  0.00    -0.021 C 
BRANCH  20  21
ATOM     21  C   UNL     1      -0.014  -0.142  -2.261  0.00  0.00    -0.059 A 
ATOM     22  C   UNL     1       0.617  -0.478  -3.444  0.00  0.00    +0.005 A 
ATOM     23  C   UNL     1      -0.047  -0.332  -4.648  0.00  0.00    +0.038 A 
ATOM     24  C   UNL     1      -1.344   0.150  -4.668  0.00  0.00    +0.123 A 
ATOM     25  C   UNL     1      -1.976   0.486  -3.482  0.00  0.00    +0.038 A 
ATOM     26  C   UNL     1      -1.312   0.334  -2.279  0.00  0.00    +0.005 A 
ATOM     27  F   UNL     1      -1.994   0.294  -5.843  0.00  0.00    -0.205 F 
ENDBRANCH  20  21
BRANCH  20  29
ATOM     28  C   UNL     1       2.148   1.515  -1.569  0.00  0.00    -0.096 C 
ATOM     29  N   UNL     1       2.108   0.121  -1.107  0.00  0.00    +0.382 N 
ATOM     30  C   UNL     1       2.802   0.013   0.183  0.00  0.00    -0.096 C 
ATOM     31  H   UNL     1       2.565  -0.471  -1.785  0.00  0.00    -0.082 HD
ENDBRANCH  20  29
ENDBRANCH  19  20
ENDBRANCH   1  19
TORSDOF 7
