REMARK  Name = ZINC66705564
REMARK  5 active torsions:
REMARK  status: ('A' for Active; 'I' for Inactive)
REMARK    1  A    between atoms: C_1  and  C_2
REMARK    2  A    between atoms: C_5  and  N_8
REMARK    3  A    between atoms: C_9  and  C_30
REMARK    4  A    between atoms: C_10  and  C_13
REMARK    5  A    between atoms: C_19  and  C_22
REMARK                            x       y       z     vdW  Elec       q    Type
REMARK                         _______ _______ _______ _____ _____    ______ ____
ROOT
ATOM      1  C   UNL     1       0.939  -7.475   1.152  0.00  0.00    +0.269 C 
ATOM      2  O   UNL     1       1.734  -7.380   2.068  0.00  0.00    -0.268 OA
ATOM      3  N   UNL     1       0.541  -8.692   0.730  0.00  0.00    -0.291 N 
ATOM      4  C   UNL     1       0.928  -9.910   1.458  0.00  0.00    +0.136 C 
ATOM      5  C   UNL     1       1.514 -10.908   0.453  0.00  0.00    +0.179 C 
ATOM      6  O   UNL     1       0.596 -11.080  -0.630  0.00  0.00    -0.369 OA
ATOM      7  C   UNL     1       0.350  -9.890  -1.383  0.00  0.00    +0.166 C 
ATOM      8  C   UNL     1      -0.300  -8.839  -0.469  0.00  0.00    +0.144 C 
ENDROOT
BRANCH   7   9
ATOM      9  C   UNL     1      -0.577 -10.202  -2.529  0.00  0.00    -0.015 A 
ATOM     10  C   UNL     1      -1.645 -11.060  -2.340  0.00  0.00    +0.009 A 
ATOM     11  C   UNL     1      -2.497 -11.348  -3.389  0.00  0.00    +0.041 A 
ATOM     12  C   UNL     1      -2.282 -10.777  -4.631  0.00  0.00    +0.158 A 
ATOM     13  C   UNL     1      -1.212  -9.916  -4.821  0.00  0.00    +0.159 A 
ATOM     14  C   UNL     1      -0.363  -9.626  -3.767  0.00  0.00    +0.047 A 
ATOM     15  F   UNL     1      -1.000  -9.358  -6.033  0.00  0.00    -0.202 F 
ATOM     16  F   UNL     1      -3.114 -11.058  -5.658  0.00  0.00    -0.202 F 
ENDBRANCH   7   9
BRANCH   1  19
ATOM     17  N   UNL     1       0.091  -4.175  -0.050  0.00  0.00    -0.216 N 
ATOM     18  C   UNL     1       0.824  -4.981   0.749  0.00  0.00    +0.074 A 
ATOM     19  C   UNL     1       0.412  -6.260   0.503  0.00  0.00    +0.170 A 
ATOM     20  N   UNL     1      -0.555  -6.224  -0.430  0.00  0.00    -0.124 NA
ATOM     21  N   UNL     1      -0.775  -5.004  -0.776  0.00  0.00    -0.060 NA
ATOM     22  C   UNL     1       1.891  -4.552   1.723  0.00  0.00    +0.068 C 
BRANCH  17  27
ATOM     23  C   UNL     1       0.436   1.481  -0.383  0.00  0.00    +0.044 C 
ATOM     24  C   UNL     1       0.344  -0.021  -0.295  0.00  0.00    -0.050 A 
ATOM     25  C   UNL     1       0.063  -0.763  -1.427  0.00  0.00    +0.005 A 
ATOM     26  C   UNL     1      -0.021  -2.139  -1.349  0.00  0.00    +0.028 A 
ATOM     27  C   UNL     1       0.177  -2.777  -0.132  0.00  0.00    +0.067 A 
ATOM     28  C   UNL     1       0.458  -2.030   1.003  0.00  0.00    +0.028 A 
ATOM     29  C   UNL     1       0.546  -0.654   0.918  0.00  0.00    +0.005 A 
ENDBRANCH  17  27
ENDBRANCH   1  19
TORSDOF 3
