REMARK  Name = ZINC15038144
REMARK  9 active torsions:
REMARK  status: ('A' for Active; 'I' for Inactive)
REMARK    1  A    between atoms: C_1  and  C_2
REMARK    2  A    between atoms: C_2  and  C_4
REMARK    3  A    between atoms: C_2  and  N_51
REMARK    4  A    between atoms: N_9  and  C_10
REMARK    5  A    between atoms: C_10  and  C_11
REMARK    6  A    between atoms: C_17  and  N_51
REMARK    7  A    between atoms: C_18  and  C_19
REMARK    8  A    between atoms: C_18  and  N_51
REMARK    9  A    between atoms: N_21  and  C_22
REMARK                            x       y       z     vdW  Elec       q    Type
REMARK                         _______ _______ _______ _____ _____    ______ ____
ROOT
ATOM      1  C   UNL     1       0.857  -3.531   4.316  0.00  0.00    -0.004 C 
ATOM      2  C   UNL     1       0.142  -4.003   3.049  0.00  0.00    +0.017 C 
ENDROOT
BRANCH   2   3
ATOM      3  C   UNL     1       0.966  -3.640   1.841  0.00  0.00    +0.207 C 
ATOM      4  O   UNL     1       1.469  -4.513   1.166  0.00  0.00    -0.277 OA
ATOM      5  N   UNL     1       1.145  -2.346   1.512  0.00  0.00    -0.242 N 
ATOM      6  C   UNL     1       1.882  -2.021   0.431  0.00  0.00    +0.306 C 
ATOM      7  O   UNL     1       2.386  -2.895  -0.246  0.00  0.00    -0.252 OA
ATOM      8  N   UNL     1       2.061  -0.726   0.102  0.00  0.00    -0.295 N 
ATOM      9  H   UNL     1       0.742  -1.648   2.052  0.00  0.00    +0.159 HD
ATOM     10  H   UNL     1       1.658  -0.028   0.642  0.00  0.00    +0.151 HD
BRANCH   8  11
ATOM     11  C   UNL     1       2.862  -0.373  -1.073  0.00  0.00    +0.141 C 
BRANCH  11  12
ATOM     12  C   UNL     1       2.906   1.126  -1.219  0.00  0.00    -0.030 A 
ATOM     13  C   UNL     1       1.946   1.775  -1.973  0.00  0.00    +0.005 A 
ATOM     14  C   UNL     1       1.983   3.151  -2.103  0.00  0.00    +0.000 A 
ATOM     15  C   UNL     1       2.985   3.877  -1.487  0.00  0.00    +0.000 A 
ATOM     16  C   UNL     1       3.948   3.227  -0.738  0.00  0.00    +0.000 A 
ATOM     17  C   UNL     1       3.908   1.852  -0.603  0.00  0.00    +0.005 A 
ENDBRANCH  11  12
ENDBRANCH   8  11
ENDBRANCH   2   3
BRANCH   2  19
ATOM     18  C   UNL     1      -1.108  -5.828   4.034  0.00  0.00    -0.094 C 
ATOM     19  N   UNL     1      -0.043  -5.470   3.075  0.00  0.00    +0.391 N 
ATOM     20  H   UNL     1      -0.317  -5.788   2.138  0.00  0.00    -0.080 HD
BRANCH  19  21
ATOM     21  C   UNL     1       1.223  -6.131   3.455  0.00  0.00    +0.020 C 
BRANCH  21  22
ATOM     22  C   UNL     1       1.072  -7.618   3.261  0.00  0.00    +0.201 C 
ATOM     23  O   UNL     1       0.020  -8.074   2.866  0.00  0.00    -0.278 OA
ATOM     24  N   UNL     1       2.106  -8.441   3.526  0.00  0.00    -0.285 N 
ATOM     25  H   UNL     1       2.963  -8.073   3.793  0.00  0.00    +0.155 HD
BRANCH  24  26
ATOM     26  C   UNL     1       1.944  -9.827   3.416  0.00  0.00    +0.070 A 
ATOM     27  C   UNL     1       0.791 -10.434   3.898  0.00  0.00    +0.064 A 
ATOM     28  C   UNL     1       0.632 -11.803   3.784  0.00  0.00    +0.022 A 
ATOM     29  C   UNL     1       1.623 -12.569   3.198  0.00  0.00    +0.003 A 
ATOM     30  C   UNL     1       2.775 -11.969   2.722  0.00  0.00    +0.022 A 
ATOM     31  C   UNL     1       2.938 -10.600   2.829  0.00  0.00    +0.064 A 
ATOM     32 CL   UNL     1       4.384  -9.848   2.231  0.00  0.00    -0.082 Cl
ATOM     33 CL   UNL     1      -0.452  -9.474   4.638  0.00  0.00    -0.082 Cl
ENDBRANCH  24  26
ENDBRANCH  21  22
ENDBRANCH  19  21
ENDBRANCH   2  19
TORSDOF 7
