REMARK  Name = ZINC12218616
REMARK  13 active torsions:
REMARK  status: ('A' for Active; 'I' for Inactive)
REMARK    1  A    between atoms: C_1  and  C_2
REMARK    2  A    between atoms: C_2  and  C_3
REMARK    3  A    between atoms: C_2  and  C_4
REMARK    4  A    between atoms: C_4  and  C_5
REMARK    5  A    between atoms: C_5  and  N_6
REMARK    6  A    between atoms: C_7  and  C_9
REMARK    7  A    between atoms: N_11  and  C_28
REMARK    8  A    between atoms: C_13  and  C_16
REMARK    9  A    between atoms: N_18  and  C_19
REMARK   10  A    between atoms: C_19  and  C_20
REMARK   11  A    between atoms: C_20  and  C_21
REMARK   12  A    between atoms: C_20  and  C_22
REMARK   13  A    between atoms: C_20  and  N_73
REMARK                            x       y       z     vdW  Elec       q    Type
REMARK                         _______ _______ _______ _____ _____    ______ ____
ROOT
ATOM      1  C   UNL     1       2.533   0.259  -1.304  0.00  0.00    +0.100 A 
ATOM      2  C   UNL     1       2.669  -1.102  -1.132  0.00  0.00    +0.102 A 
ATOM      3  N   UNL     1       3.856  -1.655  -0.832  0.00  0.00    -0.349 N 
ATOM      4  C   UNL     1       4.984  -0.942  -0.677  0.00  0.00    +0.102 A 
ATOM      5  C   UNL     1       4.993   0.428  -0.819  0.00  0.00    +0.100 A 
ATOM      6  C   UNL     1       3.729   1.104  -1.155  0.00  0.00    +0.206 A 
ATOM      7  O   UNL     1       3.674   2.314  -1.300  0.00  0.00    -0.286 OA
ENDROOT
BRANCH   3   8
ATOM      8  C   UNL     1       3.923  -3.108  -0.665  0.00  0.00    +0.087 C 
ATOM      9  C   UNL     1       3.438  -3.811  -1.950  0.00  0.00    +0.025 C 
ATOM     10  C   UNL     1       2.667  -5.052  -1.435  0.00  0.00    +0.002 C 
ATOM     11  C   UNL     1       1.950  -4.511  -0.173  0.00  0.00    +0.002 C 
ATOM     12  C   UNL     1       2.978  -3.554   0.465  0.00  0.00    +0.025 C 
ENDBRANCH   3   8
BRANCH   1  14
ATOM     13  N   UNL     1       0.142   0.060  -1.770  0.00  0.00    -0.311 N 
ATOM     14  C   UNL     1       1.225   0.851  -1.633  0.00  0.00    +0.249 C 
ATOM     15  O   UNL     1       1.123   2.054  -1.781  0.00  0.00    -0.270 OA
ATOM     16  H   UNL     1       0.224  -0.899  -1.652  0.00  0.00    +0.149 HD
BRANCH  13  17
ATOM     17  C   UNL     1      -1.157   0.649  -2.104  0.00  0.00    +0.105 C 
BRANCH  17  18
ATOM     18  C   UNL     1      -2.207  -0.459  -2.207  0.00  0.00    +0.022 C 
BRANCH  18  20
ATOM     19  C   UNL     1      -4.587  -0.959  -2.780  0.00  0.00    +0.007 C 
ATOM     20  C   UNL     1      -3.564   0.156  -2.555  0.00  0.00    -0.016 C 
ATOM     21  C   UNL     1      -4.030   1.050  -1.404  0.00  0.00    +0.007 C 
ENDBRANCH  18  20
ENDBRANCH  17  18
ENDBRANCH  13  17
ENDBRANCH   1  14
BRANCH   5  22
ATOM     22  C   UNL     1       6.238   1.197  -0.646  0.00  0.00    +0.249 C 
ATOM     23  O   UNL     1       6.229   2.406  -0.776  0.00  0.00    -0.270 OA
ATOM     24  N   UNL     1       7.387   0.560  -0.345  0.00  0.00    -0.312 N 
ATOM     25  H   UNL     1       7.394  -0.405  -0.242  0.00  0.00    +0.149 HD
BRANCH  24  26
ATOM     26  C   UNL     1       8.625   1.324  -0.173  0.00  0.00    +0.092 C 
BRANCH  26  27
ATOM     27  C   UNL     1       9.794   0.360   0.036  0.00  0.00    -0.055 C 
ATOM     28  C   UNL     1      10.011  -0.463  -1.236  0.00  0.00    -0.008 C 
ATOM     29  C   UNL     1      11.062   1.157   0.349  0.00  0.00    -0.008 C 
BRANCH  27  35
ATOM     30  C   UNL     1       9.225   0.221   2.386  0.00  0.00    -0.049 C 
ATOM     31  C   UNL     1       8.858  -0.751   3.511  0.00  0.00    +0.141 C 
ATOM     32  O   UNL     1       9.915  -1.698   3.680  0.00  0.00    -0.383 OA
ATOM     33  C   UNL     1      10.201  -2.457   2.502  0.00  0.00    +0.141 C 
ATOM     34  C   UNL     1      10.583  -1.503   1.367  0.00  0.00    -0.049 C 
ATOM     35  N   UNL     1       9.470  -0.554   1.152  0.00  0.00    +0.387 N 
ATOM     36  H   UNL     1       8.622  -1.082   0.915  0.00  0.00    -0.081 HD
ENDBRANCH  27  35
ENDBRANCH  26  27
ENDBRANCH  24  26
ENDBRANCH   5  22
TORSDOF 9
