REMARK  Name = ZINC42561629
REMARK  11 active torsions:
REMARK  status: ('A' for Active; 'I' for Inactive)
REMARK    1  A    between atoms: C_1  and  C_2
REMARK    2  A    between atoms: C_2  and  C_4
REMARK    3  A    between atoms: C_2  and  N_8
REMARK    4  A    between atoms: C_4  and  C_5
REMARK    5  A    between atoms: C_5  and  C_6
REMARK    6  A    between atoms: C_5  and  C_7
REMARK    7  A    between atoms: N_8  and  C_9
REMARK    8  A    between atoms: N_8  and  C_10
REMARK    9  A    between atoms: C_10  and  C_11
REMARK   10  A    between atoms: N_13  and  C_14
REMARK   11  A    between atoms: C_15  and  N_22
REMARK                            x       y       z     vdW  Elec       q    Type
REMARK                         _______ _______ _______ _____ _____    ______ ____
ROOT
ATOM      1  C   UNL     1       2.112  -1.313   3.098  0.00  0.00    +0.201 C 
ATOM      2  O   UNL     1       2.649  -0.322   3.547  0.00  0.00    -0.278 OA
ATOM      3  N   UNL     1       2.061  -2.443   3.831  0.00  0.00    -0.284 N 
ATOM      4  H   UNL     1       1.677  -3.249   3.454  0.00  0.00    +0.155 HD
ENDROOT
BRANCH   3   5
ATOM      5  C   UNL     1       2.564  -2.452   5.141  0.00  0.00    +0.073 A 
ATOM      6  C   UNL     1       3.348  -3.518   5.581  0.00  0.00    +0.049 A 
ATOM      7  C   UNL     1       3.843  -3.522   6.876  0.00  0.00    +0.044 A 
ATOM      8  C   UNL     1       3.559  -2.469   7.728  0.00  0.00    +0.044 A 
ATOM      9  C   UNL     1       2.781  -1.412   7.292  0.00  0.00    +0.042 A 
ATOM     10  C   UNL     1       2.288  -1.398   5.999  0.00  0.00    +0.065 A 
ATOM     11 CL   UNL     1       1.318  -0.066   5.454  0.00  0.00    -0.082 Cl
ATOM     12 CL   UNL     1       4.179  -2.476   9.350  0.00  0.00    -0.083 Cl
BRANCH   6  13
ATOM     13  N   UNL     1       3.635  -4.581   4.718  0.00  0.00    -0.356 N 
ATOM     14  H   UNL     1       3.287  -4.578   3.812  0.00  0.00    +0.142 HD
ATOM     15  H   UNL     1       4.180  -5.322   5.025  0.00  0.00    +0.142 HD
ENDBRANCH   6  13
ENDBRANCH   3   5
BRANCH   1  16
ATOM     16  C   UNL     1       1.503  -1.282   1.720  0.00  0.00    +0.019 C 
BRANCH  16  17
ATOM     17  N   UNL     1       1.689   0.052   1.133  0.00  0.00    +0.385 N 
ATOM     18  C   UNL     1       3.119   0.289   0.897  0.00  0.00    -0.095 C 
ATOM     19  H   UNL     1       1.332   0.751   1.767  0.00  0.00    -0.081 HD
BRANCH  17  21
ATOM     20  C   UNL     1       1.519  -0.914  -1.111  0.00  0.00    -0.013 C 
ATOM     21  C   UNL     1       0.963   0.132  -0.142  0.00  0.00    -0.071 C 
BRANCH  21  22
ATOM     22  C   UNL     1       1.138   1.528  -0.742  0.00  0.00    -0.013 C 
BRANCH  22  23
ATOM     23  C   UNL     1       0.502   2.566   0.185  0.00  0.00    -0.019 C 
ATOM     24  C   UNL     1       0.801   3.971  -0.341  0.00  0.00    +0.007 C 
ATOM     25  C   UNL     1      -1.012   2.349   0.230  0.00  0.00    +0.007 C 
ENDBRANCH  22  23
ENDBRANCH  21  22
ENDBRANCH  17  21
ENDBRANCH  16  17
ENDBRANCH   1  16
TORSDOF 7
