REMARK  Name = ZINC36544763
REMARK  13 active torsions:
REMARK  status: ('A' for Active; 'I' for Inactive)
REMARK    1  A    between atoms: C_1  and  C_2
REMARK    2  A    between atoms: C_2  and  C_3
REMARK    3  A    between atoms: C_2  and  C_4
REMARK    4  A    between atoms: C_2  and  N_5
REMARK    5  A    between atoms: C_6  and  C_8
REMARK    6  A    between atoms: C_8  and  C_10
REMARK    7  A    between atoms: C_8  and  N_19
REMARK    8  A    between atoms: C_11  and  O_18
REMARK    9  A    between atoms: C_13  and  O_17
REMARK   10  A    between atoms: C_15  and  O_16
REMARK   11  A    between atoms: N_19  and  C_20
REMARK   12  A    between atoms: C_27  and  C_29
REMARK   13  A    between atoms: C_30  and  C_31
REMARK                            x       y       z     vdW  Elec       q    Type
REMARK                         _______ _______ _______ _____ _____    ______ ____
ROOT
ATOM      1  C   UNL     1       2.975  -0.436  -2.995  0.00  0.00    +0.205 C 
ENDROOT
BRANCH   1   2
ATOM      2  C   UNL     1       2.803  -1.918  -3.209  0.00  0.00    +0.065 A 
ATOM      3  C   UNL     1       3.502  -2.819  -2.420  0.00  0.00    +0.129 A 
ATOM      4  C   UNL     1       3.344  -4.182  -2.616  0.00  0.00    +0.091 A 
ATOM      5  C   UNL     1       2.486  -4.645  -3.602  0.00  0.00    +0.124 A 
ATOM      6  C   UNL     1       1.785  -3.745  -4.391  0.00  0.00    +0.091 A 
ATOM      7  C   UNL     1       1.940  -2.381  -4.191  0.00  0.00    +0.129 A 
BRANCH   7   8
ATOM      8  O   UNL     1       1.251  -1.499  -4.961  0.00  0.00    -0.506 OA
ATOM      9  H   UNL     1       1.713  -1.236  -5.768  0.00  0.00    +0.292 HD
ENDBRANCH   7   8
BRANCH   5  10
ATOM     10  O   UNL     1       2.331  -5.981  -3.796  0.00  0.00    -0.507 OA
ATOM     11  H   UNL     1       1.622  -6.376  -3.270  0.00  0.00    +0.292 HD
ENDBRANCH   5  10
BRANCH   3  12
ATOM     12  O   UNL     1       4.344  -2.365  -1.454  0.00  0.00    -0.506 OA
ATOM     13  H   UNL     1       3.945  -2.320  -0.574  0.00  0.00    +0.292 HD
ENDBRANCH   3  12
ENDBRANCH   1   2
BRANCH   1  15
ATOM     14  N   UNL     1       1.045   0.499  -1.763  0.00  0.00    -0.309 N 
ATOM     15  C   UNL     1       2.284  -0.029  -1.719  0.00  0.00    +0.239 C 
ATOM     16  O   UNL     1       2.843  -0.177  -0.653  0.00  0.00    -0.273 OA
ATOM     17  H   UNL     1       0.598   0.617  -2.615  0.00  0.00    +0.149 HD
BRANCH  14  19
ATOM     18  C   UNL     1       1.205   1.962   0.190  0.00  0.00    +0.031 C 
ATOM     19  C   UNL     1       0.373   0.894  -0.522  0.00  0.00    +0.026 C 
ATOM     20  C   UNL     1       0.223  -0.326   0.388  0.00  0.00    +0.031 C 
ATOM     21  C   UNL     1      -1.010   1.460  -0.850  0.00  0.00    +0.031 C 
ENDBRANCH  14  19
ENDBRANCH   1  15
BRANCH   1  22
ATOM     22  N   UNL     1       4.402  -0.119  -2.900  0.00  0.00    -0.243 N 
ATOM     23  C   UNL     1       5.266  -0.626  -3.802  0.00  0.00    +0.297 C 
ATOM     24  O   UNL     1       4.861  -1.347  -4.695  0.00  0.00    -0.260 OA
BRANCH  22  25
ATOM     25  C   UNL     1       4.868   0.709  -1.873  0.00  0.00    +0.057 A 
ATOM     26  C   UNL     1       5.496   0.157  -0.765  0.00  0.00    +0.025 A 
ATOM     27  C   UNL     1       5.955   0.977   0.247  0.00  0.00    +0.002 A 
ATOM     28  C   UNL     1       5.789   2.348   0.158  0.00  0.00    +0.002 A 
ATOM     29  C   UNL     1       5.164   2.901  -0.944  0.00  0.00    +0.022 A 
ATOM     30  C   UNL     1       4.707   2.087  -1.963  0.00  0.00    +0.062 A 
ATOM     31 CL   UNL     1       3.929   2.783  -3.350  0.00  0.00    -0.082 Cl
ENDBRANCH  22  25
BRANCH  23  32
ATOM     32  C   UNL     1       6.662  -0.316  -3.709  0.00  0.00    -0.002 C 
ATOM     33  C   UNL     1       7.805  -0.062  -3.632  0.00  0.00    -0.057 C 
BRANCH  33  34
ATOM     34  C   UNL     1       9.200   0.248  -3.540  0.00  0.00    +0.025 A 
ATOM     35  C   UNL     1       9.670   1.071  -2.511  0.00  0.00    +0.017 A 
ATOM     36  C   UNL     1      11.015   1.365  -2.429  0.00  0.00    +0.001 A 
ATOM     37  C   UNL     1      11.899   0.847  -3.360  0.00  0.00    +0.000 A 
ATOM     38  C   UNL     1      11.441   0.032  -4.380  0.00  0.00    +0.001 A 
ATOM     39  C   UNL     1      10.100  -0.275  -4.473  0.00  0.00    +0.017 A 
ENDBRANCH  33  34
ENDBRANCH  23  32
ENDBRANCH   1  22
TORSDOF 10
