REMARK  Name = ZINC32521175
REMARK  7 active torsions:
REMARK  status: ('A' for Active; 'I' for Inactive)
REMARK    1  A    between atoms: C_1  and  C_2
REMARK    2  A    between atoms: C_2  and  N_3
REMARK    3  A    between atoms: C_9  and  C_11
REMARK    4  A    between atoms: C_11  and  S_12
REMARK    5  A    between atoms: S_12  and  C_13
REMARK    6  A    between atoms: C_16  and  C_21
REMARK    7  A    between atoms: N_19  and  N_20
REMARK                            x       y       z     vdW  Elec       q    Type
REMARK                         _______ _______ _______ _____ _____    ______ ____
ROOT
ATOM      1  S   UNL     1      -2.705   0.130   0.041  0.00  0.00    -0.075 S 
ENDROOT
BRANCH   1   2
ATOM      2  C   UNL     1      -1.160  -0.717   0.015  0.00  0.00    +0.210 A 
ATOM      3  N   UNL     1      -1.135  -2.039   0.003  0.00  0.00    -0.122 NA
ATOM      4  N   UNL     1      -0.033  -2.699  -0.011  0.00  0.00    -0.146 NA
ATOM      5  C   UNL     1       1.130  -2.090  -0.019  0.00  0.00    +0.126 A 
ATOM      6  C   UNL     1       1.174  -0.679  -0.013  0.00  0.00    +0.293 A 
ATOM      7  O   UNL     1       2.240  -0.086  -0.020  0.00  0.00    -0.264 OA
ATOM      8  N   UNL     1       0.002  -0.004   0.002  0.00  0.00    -0.206 N 
ATOM      9  C   UNL     1       2.407  -2.891  -0.036  0.00  0.00    +0.073 C 
BRANCH   8  10
ATOM     10  N   UNL     1      -0.016   1.362   0.009  0.00  0.00    -0.293 N 
ATOM     11  H   UNL     1       0.929   1.925  -0.001  0.00  0.00    +0.163 HD
ATOM     12  H   UNL     1      -0.976   1.899   0.026  0.00  0.00    +0.163 HD
ENDBRANCH   8  10
ENDBRANCH   1   2
BRANCH   1  13
ATOM     13  C   UNL     1      -3.837  -1.283   0.050  0.00  0.00    +0.173 C 
BRANCH  13  20
ATOM     14  N   UNL     1      -8.238  -3.373   1.095  0.00  0.00    -0.300 NA
ATOM     15  C   UNL     1      -8.409  -1.921   1.244  0.00  0.00    +0.103 C 
ATOM     16  C   UNL     1      -7.676  -1.204   0.105  0.00  0.00    +0.123 C 
ATOM     17  N   UNL     1      -6.280  -1.667   0.083  0.00  0.00    -0.298 N 
ATOM     18  C   UNL     1      -6.028  -3.116   0.066  0.00  0.00    +0.123 C 
ATOM     19  C   UNL     1      -6.825  -3.758   1.213  0.00  0.00    +0.103 C 
ATOM     20  C   UNL     1      -5.260  -0.787   0.073  0.00  0.00    +0.226 C 
ATOM     21  O   UNL     1      -5.486   0.404   0.082  0.00  0.00    -0.275 OA
BRANCH  14  23
ATOM     22  C   UNL     1      -9.057  -5.594   1.723  0.00  0.00    +0.020 C 
ATOM     23  C   UNL     1      -9.065  -4.103   2.066  0.00  0.00    +0.081 C 
ENDBRANCH  14  23
ENDBRANCH  13  20
ENDBRANCH   1  13
TORSDOF 5
