REMARK  Name = ZINC65818537
REMARK  10 active torsions:
REMARK  status: ('A' for Active; 'I' for Inactive)
REMARK    1  A    between atoms: C_1  and  C_2
REMARK    2  A    between atoms: C_5  and  C_7
REMARK    3  A    between atoms: C_7  and  N_8
REMARK    4  A    between atoms: N_8  and  C_9
REMARK    5  A    between atoms: C_9  and  C_10
REMARK    6  A    between atoms: C_9  and  C_11
REMARK    7  A    between atoms: N_14  and  C_15
REMARK    8  A    between atoms: C_19  and  C_21
REMARK    9  A    between atoms: C_21  and  N_22
REMARK   10  A    between atoms: C_26  and  C_27
REMARK                            x       y       z     vdW  Elec       q    Type
REMARK                         _______ _______ _______ _____ _____    ______ ____
ROOT
ATOM      1  C   UNL     1       1.465  -6.094  -4.223  0.00  0.00    +0.035 A 
ATOM      2  C   UNL     1       0.203  -6.580  -3.906  0.00  0.00    +0.023 A 
ATOM      3  C   UNL     1      -0.386  -7.539  -4.706  0.00  0.00    +0.002 A 
ATOM      4  C   UNL     1       0.278  -8.015  -5.822  0.00  0.00    +0.002 A 
ATOM      5  C   UNL     1       1.534  -7.533  -6.140  0.00  0.00    -0.062 A 
ATOM      6  C   UNL     1       2.127  -6.569  -5.347  0.00  0.00    +0.025 A 
ENDROOT
BRANCH   1  10
ATOM      7  N   UNL     1       2.308  -4.108  -1.326  0.00  0.00    -0.276 N 
ATOM      8  C   UNL     1       1.845  -5.121  -2.086  0.00  0.00    +0.307 C 
ATOM      9  O   UNL     1       1.228  -6.034  -1.571  0.00  0.00    -0.252 OA
ATOM     10  N   UNL     1       2.065  -5.121  -3.415  0.00  0.00    -0.269 N 
ATOM     11  H   UNL     1       2.640  -4.448  -3.812  0.00  0.00    +0.156 HD
BRANCH   7  12
ATOM     12  C   UNL     1       2.946  -2.951  -1.959  0.00  0.00    +0.072 C 
ATOM     13  C   UNL     1       2.252  -1.669  -1.493  0.00  0.00    +0.028 C 
ATOM     14  C   UNL     1       4.423  -2.903  -1.565  0.00  0.00    +0.028 C 
ENDBRANCH   7  12
BRANCH   7  15
ATOM     15  C   UNL     1       2.175  -4.165   0.131  0.00  0.00    +0.183 C 
BRANCH  15  20
ATOM     16  C   UNL     1      -1.229  -0.726   1.555  0.00  0.00    +0.086 C 
ATOM     17  C   UNL     1      -0.614  -2.044   1.160  0.00  0.00    +0.102 A 
ATOM     18  C   UNL     1      -1.261  -3.220   1.071  0.00  0.00    +0.045 A 
ATOM     19  C   UNL     1      -0.307  -4.184   0.672  0.00  0.00    +0.046 A 
ATOM     20  C   UNL     1       0.867  -3.539   0.541  0.00  0.00    +0.122 A 
ATOM     21  O   UNL     1       0.674  -2.243   0.832  0.00  0.00    -0.463 OA
ENDBRANCH  15  20
ENDBRANCH   7  15
ENDBRANCH   1  10
BRANCH   5  22
ATOM     22  C   UNL     1       2.255  -8.056  -7.356  0.00  0.00    -0.042 C 
BRANCH  22  23
ATOM     23  N   UNL     1       1.912  -7.229  -8.521  0.00  0.00    +0.390 N 
ATOM     24  C   UNL     1       2.496  -5.871  -8.376  0.00  0.00    -0.077 C 
ATOM     25  C   UNL     1       2.548  -5.350  -9.834  0.00  0.00    -0.020 C 
ATOM     26  C   UNL     1       2.926  -6.614 -10.639  0.00  0.00    -0.008 C 
ATOM     27  C   UNL     1       2.515  -7.799  -9.745  0.00  0.00    +0.019 C 
ATOM     28  H   UNL     1       0.910  -7.169  -8.622  0.00  0.00    -0.080 HD
BRANCH  27  29
ATOM     29  C   UNL     1       1.506  -8.658 -10.463  0.00  0.00    +0.197 C 
ATOM     30  O   UNL     1       0.390  -8.790 -10.008  0.00  0.00    -0.278 OA
ATOM     31  N   UNL     1       1.844  -9.279 -11.610  0.00  0.00    -0.331 N 
ATOM     32  H   UNL     1       2.737  -9.173 -11.974  0.00  0.00    +0.145 HD
ATOM     33  H   UNL     1       1.195  -9.832 -12.072  0.00  0.00    +0.145 HD
ENDBRANCH  27  29
ENDBRANCH  22  23
ENDBRANCH   5  22
TORSDOF 7
