REMARK  Name = ZINC32579205
REMARK  8 active torsions:
REMARK  status: ('A' for Active; 'I' for Inactive)
REMARK    1  A    between atoms: C_1  and  C_2
REMARK    2  A    between atoms: C_2  and  N_3
REMARK    3  A    between atoms: C_9  and  N_14
REMARK    4  A    between atoms: C_10  and  C_11
REMARK    5  A    between atoms: N_17  and  C_18
REMARK    6  A    between atoms: C_22  and  C_23
REMARK    7  A    between atoms: C_23  and  O_25
REMARK    8  A    between atoms: O_25  and  C_26
REMARK                            x       y       z     vdW  Elec       q    Type
REMARK                         _______ _______ _______ _____ _____    ______ ____
ROOT
ATOM      1  N   UNL     1       7.367   8.901  -0.338  0.00  0.00    +0.383 N 
ATOM      2  C   UNL     1       8.365   8.235  -1.186  0.00  0.00    -0.074 C 
ATOM      3  C   UNL     1       8.610   6.807  -0.688  0.00  0.00    +0.018 C 
ATOM      4  C   UNL     1       7.260   6.114  -0.549  0.00  0.00    -0.027 A 
ATOM      5  C   UNL     1       6.124   6.846  -0.502  0.00  0.00    -0.021 A 
ATOM      6  S   UNL     1       4.826   5.654  -0.343  0.00  0.00    -0.079 S 
ATOM      7  C   UNL     1       5.776   4.205  -0.338  0.00  0.00    +0.086 A 
ATOM      8  C   UNL     1       7.077   4.678  -0.454  0.00  0.00    +0.068 A 
ATOM      9  C   UNL     1       6.024   8.337  -0.571  0.00  0.00    -0.035 C 
ATOM     10  H   UNL     1       7.639   8.721   0.713  0.00  0.00    -0.081 HD
ENDROOT
BRANCH   7  11
ATOM     11  N   UNL     1       5.344   2.892  -0.236  0.00  0.00    -0.263 N 
ATOM     12  C   UNL     1       4.028   2.623  -0.124  0.00  0.00    +0.309 C 
ATOM     13  O   UNL     1       3.220   3.531  -0.112  0.00  0.00    -0.252 OA
ATOM     14  N   UNL     1       3.607   1.346  -0.025  0.00  0.00    -0.268 N 
ATOM     15  H   UNL     1       6.074   2.069  -0.247  0.00  0.00    +0.157 HD
ATOM     16  H   UNL     1       4.340   0.530   0.060  0.00  0.00    +0.156 HD
BRANCH  14  17
ATOM     17  C   UNL     1       2.242   1.059  -0.030  0.00  0.00    +0.056 A 
ATOM     18  C   UNL     1       1.326   1.914  -0.607  0.00  0.00    +0.032 A 
ATOM     19  C   UNL     1       0.009   1.587  -0.584  0.00  0.00    +0.048 A 
ATOM     20  S   UNL     1      -0.013   0.065   0.245  0.00  0.00    -0.088 S 
ATOM     21  C   UNL     1       1.737  -0.106   0.547  0.00  0.00    +0.117 A 
BRANCH  21  22
ATOM     22  C   UNL     1       2.431  -1.150   1.201  0.00  0.00    +0.347 C 
ATOM     23  O   UNL     1       3.642  -1.098   1.315  0.00  0.00    -0.244 OA
BRANCH  22  24
ATOM     24  O   UNL     1       1.751  -2.205   1.698  0.00  0.00    -0.464 OA
ATOM     25  C   UNL     1       2.516  -3.223   2.346  0.00  0.00    +0.280 C 
ENDBRANCH  22  24
ENDBRANCH  21  22
ENDBRANCH  14  17
ENDBRANCH   7  11
BRANCH   8  26
ATOM     26  C   UNL     1       8.221   3.761  -0.483  0.00  0.00    +0.244 C 
ATOM     27  O   UNL     1       8.623   3.324  -1.546  0.00  0.00    -0.270 OA
ATOM     28  N   UNL     1       8.827   3.403   0.666  0.00  0.00    -0.325 N 
ATOM     29  H   UNL     1       9.685   2.715   0.644  0.00  0.00    +0.145 HD
ATOM     30  H   UNL     1       8.464   3.798   1.626  0.00  0.00    +0.145 HD
ENDBRANCH   8  26
BRANCH   1  32
ATOM     31  C   UNL     1       7.109  10.646  -2.036  0.00  0.00    -0.017 C 
ATOM     32  C   UNL     1       7.374  10.353  -0.558  0.00  0.00    -0.082 C 
ENDBRANCH   1  32
TORSDOF 6
