REMARK  Name = ZINC08922615
REMARK  13 active torsions:
REMARK  status: ('A' for Active; 'I' for Inactive)
REMARK    1  A    between atoms: C_1  and  C_2
REMARK    2  A    between atoms: C_2  and  N_59
REMARK    3  A    between atoms: C_3  and  C_4
REMARK    4  A    between atoms: C_3  and  N_59
REMARK    5  A    between atoms: C_5  and  C_6
REMARK    6  A    between atoms: C_5  and  N_59
REMARK    7  A    between atoms: C_6  and  C_7
REMARK    8  A    between atoms: C_7  and  N_8
REMARK    9  A    between atoms: C_9  and  C_25
REMARK   10  A    between atoms: C_12  and  C_13
REMARK   11  A    between atoms: C_12  and  O_20
REMARK   12  A    between atoms: C_14  and  C_19
REMARK   13  A    between atoms: C_16  and  C_18
REMARK                            x       y       z     vdW  Elec       q    Type
REMARK                         _______ _______ _______ _____ _____    ______ ____
ROOT
ATOM      1  N   UNL     1      -1.093   1.782  -0.162  0.00  0.00    -0.284 N 
ATOM      2  C   UNL     1      -0.642   3.175  -0.234  0.00  0.00    +0.144 C 
ATOM      3  C   UNL     1       0.853   3.134  -0.454  0.00  0.00    +0.072 C 
ATOM      4  C   UNL     1       1.705   4.221  -0.589  0.00  0.00    +0.141 C 
ATOM      5  C   UNL     1       1.204   1.782  -0.493  0.00  0.00    +0.249 C 
ATOM      6  O   UNL     1       2.329   1.341  -0.655  0.00  0.00    -0.282 OA
ATOM      7  C   UNL     1      -0.029   0.973  -0.305  0.00  0.00    +0.288 C 
ATOM      8  O   UNL     1      -0.070  -0.240  -0.288  0.00  0.00    -0.266 OA
ENDROOT
BRANCH   4   9
ATOM      9  C   UNL     1       3.106   4.019  -0.652  0.00  0.00    +0.077 A 
ATOM     10  C   UNL     1       4.019   4.407  -1.630  0.00  0.00    +0.056 A 
ATOM     11  N   UNL     1       5.274   4.092  -1.444  0.00  0.00    -0.249 NA
ATOM     12  C   UNL     1       5.675   3.433  -0.377  0.00  0.00    +0.076 A 
ATOM     13  S   UNL     1       4.197   3.203   0.505  0.00  0.00    -0.069 S 
ATOM     14  C   UNL     1       7.069   2.994  -0.009  0.00  0.00    +0.073 C 
ATOM     15  C   UNL     1       3.576   5.162  -2.857  0.00  0.00    +0.067 C 
ENDBRANCH   4   9
BRANCH   2  16
ATOM     16  C   UNL     1      -0.956   3.893   1.053  0.00  0.00    -0.022 A 
ATOM     17  C   UNL     1      -0.815   3.237   2.262  0.00  0.00    +0.007 A 
ATOM     18  C   UNL     1      -1.098   3.897   3.443  0.00  0.00    +0.015 A 
ATOM     19  C   UNL     1      -1.532   5.210   3.415  0.00  0.00    +0.018 A 
ATOM     20  C   UNL     1      -1.677   5.864   2.205  0.00  0.00    +0.015 A 
ATOM     21  C   UNL     1      -1.389   5.205   1.024  0.00  0.00    +0.007 A 
ATOM     22 BR   UNL     1      -1.925   6.111   5.030  0.00  0.00    -0.050 Br
ENDBRANCH   2  16
BRANCH   4  23
ATOM     23  O   UNL     1       1.198   5.472  -0.661  0.00  0.00    -0.505 OA
ATOM     24  H   UNL     1       1.946   6.129  -0.756  0.00  0.00    +0.292 HD
ENDBRANCH   4  23
BRANCH   1  25
ATOM     25  C   UNL     1      -2.476   1.343   0.038  0.00  0.00    +0.107 C 
BRANCH  25  26
ATOM     26  C   UNL     1      -2.756   1.204   1.536  0.00  0.00    +0.000 C 
BRANCH  26  27
ATOM     27  C   UNL     1      -4.200   0.745   1.744  0.00  0.00    -0.077 C 
BRANCH  27  28
ATOM     28  N   UNL     1      -4.482   0.712   3.195  0.00  0.00    +0.379 N 
ATOM     29  H   UNL     1      -3.673   0.309   3.682  0.00  0.00    -0.082 HD
BRANCH  28  31
ATOM     30  C   UNL     1      -4.776   2.045   5.225  0.00  0.00    -0.017 C 
ATOM     31  C   UNL     1      -4.710   2.084   3.696  0.00  0.00    -0.082 C 
ENDBRANCH  28  31
BRANCH  28  32
ATOM     32  C   UNL     1      -5.670  -0.127   3.460  0.00  0.00    -0.082 C 
ATOM     33  C   UNL     1      -5.261  -1.598   3.368  0.00  0.00    -0.017 C 
ENDBRANCH  28  32
ENDBRANCH  27  28
ENDBRANCH  26  27
ENDBRANCH  25  26
ENDBRANCH   1  25
TORSDOF 9
