REMARK  Name = ZINC56611911
REMARK  10 active torsions:
REMARK  status: ('A' for Active; 'I' for Inactive)
REMARK    1  A    between atoms: C_1  and  C_2
REMARK    2  A    between atoms: C_5  and  C_29
REMARK    3  A    between atoms: N_8  and  C_10
REMARK    4  A    between atoms: C_10  and  C_11
REMARK    5  A    between atoms: C_11  and  C_13
REMARK    6  A    between atoms: C_11  and  N_14
REMARK    7  A    between atoms: N_17  and  C_18
REMARK    8  A    between atoms: C_23  and  C_24
REMARK    9  A    between atoms: C_24  and  C_25
REMARK   10  A    between atoms: N_27  and  C_28
REMARK                            x       y       z     vdW  Elec       q    Type
REMARK                         _______ _______ _______ _____ _____    ______ ____
ROOT
ATOM      1  N   UNL     1       2.099   1.673   3.475  0.00  0.00    -0.298 N 
ATOM      2  C   UNL     1       1.171   2.413   4.112  0.00  0.00    +0.304 C 
ATOM      3  O   UNL     1       0.354   1.875   4.834  0.00  0.00    -0.253 OA
ATOM      4  N   UNL     1       1.148   3.751   3.950  0.00  0.00    -0.269 N 
ATOM      5  H   UNL     1       2.751   2.103   2.899  0.00  0.00    +0.150 HD
ATOM      6  H   UNL     1       1.847   4.190   3.441  0.00  0.00    +0.156 HD
ENDROOT
BRANCH   4   7
ATOM      7  C   UNL     1       0.115   4.507   4.515  0.00  0.00    +0.038 A 
ATOM      8  C   UNL     1      -1.114   3.917   4.782  0.00  0.00    +0.023 A 
ATOM      9  C   UNL     1      -2.131   4.666   5.340  0.00  0.00    +0.002 A 
ATOM     10  C   UNL     1      -1.927   6.002   5.634  0.00  0.00    +0.000 A 
ATOM     11  C   UNL     1      -0.705   6.592   5.370  0.00  0.00    +0.006 A 
ATOM     12  C   UNL     1       0.318   5.847   4.817  0.00  0.00    -0.017 A 
BRANCH  12  13
ATOM     13  C   UNL     1       1.652   6.490   4.535  0.00  0.00    +0.132 C 
BRANCH  13  14
ATOM     14  C   UNL     1       1.692   6.955   3.102  0.00  0.00    +0.217 C 
ATOM     15  O   UNL     1       0.732   6.782   2.381  0.00  0.00    -0.275 OA
ATOM     16  N   UNL     1       2.795   7.564   2.622  0.00  0.00    -0.318 N 
ATOM     17  C   UNL     1       2.834   8.017   1.229  0.00  0.00    +0.128 C 
ATOM     18  H   UNL     1       3.562   7.702   3.199  0.00  0.00    +0.148 HD
ENDBRANCH  13  14
ENDBRANCH  12  13
ENDBRANCH   4   7
BRANCH   1  19
ATOM     19  C   UNL     1       2.124   0.219   3.651  0.00  0.00    +0.055 C 
ATOM     20  C   UNL     1       2.922  -0.129   4.910  0.00  0.00    +0.026 C 
BRANCH  19  21
ATOM     21  C   UNL     1       2.783  -0.432   2.433  0.00  0.00    -0.057 C 
BRANCH  21  27
ATOM     22  C   UNL     1      -0.060   1.538   0.016  0.00  0.00    +0.005 C 
ATOM     23  C   UNL     1      -0.044   0.008   0.004  0.00  0.00    -0.031 C 
ATOM     24  C   UNL     1       0.662  -0.486  -1.262  0.00  0.00    +0.003 C 
ATOM     25  C   UNL     1       2.120  -0.018  -1.237  0.00  0.00    -0.031 C 
ATOM     26  C   UNL     1       2.793  -0.529   0.038  0.00  0.00    -0.076 C 
ATOM     27  N   UNL     1       2.088  -0.002   1.213  0.00  0.00    +0.381 N 
ATOM     28  C   UNL     1       0.708  -0.504   1.234  0.00  0.00    -0.076 C 
ATOM     29  C   UNL     1       2.855  -0.571  -2.460  0.00  0.00    +0.005 C 
ATOM     30  H   UNL     1       2.077   1.006   1.172  0.00  0.00    -0.082 HD
ENDBRANCH  21  27
ENDBRANCH  19  21
ENDBRANCH   1  19
TORSDOF 6
