REMARK  Name = ZINC33486528
REMARK  10 active torsions:
REMARK  status: ('A' for Active; 'I' for Inactive)
REMARK    1  A    between atoms: C_1  and  C_2
REMARK    2  A    between atoms: C_6  and  C_21
REMARK    3  A    between atoms: C_7  and  O_8
REMARK    4  A    between atoms: O_8  and  C_9
REMARK    5  A    between atoms: C_9  and  C_10
REMARK    6  A    between atoms: C_10  and  C_11
REMARK    7  A    between atoms: C_14  and  C_18
REMARK    8  A    between atoms: C_21  and  C_22
REMARK    9  A    between atoms: C_21  and  C_23
REMARK   10  A    between atoms: C_21  and  C_24
REMARK                            x       y       z     vdW  Elec       q    Type
REMARK                         _______ _______ _______ _____ _____    ______ ____
ROOT
ATOM      1  O   UNK     1       3.862   2.611   2.240  0.00  0.00    -0.491 OA
ENDROOT
BRANCH   1   8
ATOM      2  C   UNK     1       3.988   5.431   2.338  0.00  0.00    +0.047 C 
ATOM      3  C   UNK     1       5.187   4.554   2.594  0.00  0.00    -0.008 A 
ATOM      4  C   UNK     1       6.410   5.125   2.891  0.00  0.00    +0.007 A 
ATOM      5  C   UNK     1       7.510   4.321   3.127  0.00  0.00    +0.001 A 
ATOM      6  C   UNK     1       7.389   2.945   3.066  0.00  0.00    +0.008 A 
ATOM      7  C   UNK     1       6.168   2.369   2.775  0.00  0.00    -0.000 A 
ATOM      8  C   UNK     1       5.063   3.174   2.532  0.00  0.00    +0.127 A 
BRANCH   7   9
ATOM      9  C   UNK     1       6.035   0.869   2.715  0.00  0.00    -0.009 C 
ATOM     10  C   UNK     1       7.416   0.229   2.874  0.00  0.00    +0.015 C 
ATOM     11  C   UNK     1       5.119   0.393   3.843  0.00  0.00    +0.015 C 
ATOM     12  C   UNK     1       5.438   0.463   1.366  0.00  0.00    +0.015 C 
ENDBRANCH   7   9
ENDBRANCH   1   8
BRANCH   1  13
ATOM     13  C   UNK     1       2.864   2.645   3.263  0.00  0.00    +0.228 C 
BRANCH  13  14
ATOM     14  C   UNK     1       1.645   1.835   2.813  0.00  0.00    +0.036 C 
BRANCH  14  15
ATOM     15  C   UNK     1       0.577   1.872   3.908  0.00  0.00    -0.008 C 
ATOM     16  N   UNK     1      -0.623   1.097   3.508  0.00  0.00    +0.396 N 
ATOM     17  C   UNK     1      -1.257   0.302   4.552  0.00  0.00    +0.055 C 
ATOM     18  C   UNK     1      -0.555   0.379   5.930  0.00  0.00    +0.063 C 
ATOM     19  S   UNK     1       1.126   0.938   5.404  0.00  0.00    -0.178 S 
ATOM     20  H   UNK     1      -1.398   1.784   3.139  0.00  0.00    -0.083 HD
ATOM     21  H   UNK     1      -0.352   0.388   2.712  0.00  0.00    -0.083 HD
BRANCH  17  22
ATOM     22  C   UNK     1      -2.680   0.773   4.714  0.00  0.00    +0.343 C 
ATOM     23  O   UNK     1      -3.100   1.673   4.025  0.00  0.00    -0.248 OA
ATOM     24  O   UNK     1      -3.480   0.193   5.622  0.00  0.00    -0.248 OA
ENDBRANCH  17  22
ENDBRANCH  14  15
ENDBRANCH  13  14
ENDBRANCH   1  13
TORSDOF 6
