REMARK  Name = ZINC09128774
REMARK  5 active torsions:
REMARK  status: ('A' for Active; 'I' for Inactive)
REMARK    1  A    between atoms: C_1  and  C_2
REMARK    2  A    between atoms: C_2  and  N_59
REMARK    3  A    between atoms: C_9  and  N_35
REMARK    4  A    between atoms: N_22  and  C_25
REMARK    5  A    between atoms: C_29  and  C_31
REMARK                            x       y       z     vdW  Elec       q    Type
REMARK                         _______ _______ _______ _____ _____    ______ ____
ROOT
ATOM      1  C   UNL     1       4.189   6.561   1.042  0.00  0.00    -0.060 C 
ATOM      2  C   UNL     1       2.943   6.013   0.340  0.00  0.00    +0.087 C 
ATOM      3  N   UNL     1       2.854   4.567   0.576  0.00  0.00    -0.329 N 
ATOM      4  C   UNL     1       1.661   4.035   0.096  0.00  0.00    +0.033 A 
ATOM      5  C   UNL     1       0.522   4.841   0.145  0.00  0.00    +0.025 A 
ATOM      6  C   UNL     1      -0.690   4.364  -0.306  0.00  0.00    +0.034 A 
ATOM      7  C   UNL     1      -0.781   3.083  -0.818  0.00  0.00    +0.127 A 
ATOM      8  C   UNL     1       0.342   2.281  -0.868  0.00  0.00    +0.038 A 
ATOM      9  C   UNL     1       1.565   2.753  -0.417  0.00  0.00    -0.023 A 
ATOM     10  C   UNL     1       2.759   1.837  -0.511  0.00  0.00    +0.064 C 
ATOM     11  C   UNL     1       3.898   2.377   0.358  0.00  0.00    +0.144 C 
ATOM     12  C   UNL     1       4.041   3.875   0.069  0.00  0.00    +0.081 C 
ATOM     13  C   UNL     1       5.287   4.418   0.773  0.00  0.00    -0.055 C 
ATOM     14  C   UNL     1       3.564   2.176   1.809  0.00  0.00    +0.238 C 
ATOM     15  O   UNL     1       2.557   2.682   2.257  0.00  0.00    -0.274 OA
ATOM     16  N   UNL     1       4.347   1.453   2.623  0.00  0.00    -0.238 N 
ATOM     17  C   UNL     1       5.471   0.866   2.187  0.00  0.00    +0.319 C 
ATOM     18  O   UNL     1       6.142   0.220   2.967  0.00  0.00    -0.251 OA
ATOM     19  N   UNL     1       5.874   0.974   0.912  0.00  0.00    -0.193 N 
ATOM     20  C   UNL     1       5.177   1.673   0.005  0.00  0.00    +0.245 C 
ATOM     21  O   UNL     1       5.590   1.739  -1.132  0.00  0.00    -0.274 OA
ATOM     22  H   UNL     1       4.092   1.352   3.553  0.00  0.00    +0.159 HD
ATOM     23  N   UNL     1       5.382   5.871   0.510  0.00  0.00    +0.382 N 
ATOM     24  H   UNL     1       5.431   6.023  -0.505  0.00  0.00    -0.082 HD
ENDROOT
BRANCH  19  25
ATOM     25  C   UNL     1       7.059   0.338   0.517  0.00  0.00    +0.046 A 
ATOM     26  C   UNL     1       8.272   1.008   0.607  0.00  0.00    +0.024 A 
ATOM     27  C   UNL     1       9.438   0.379   0.217  0.00  0.00    +0.002 A 
ATOM     28  C   UNL     1       9.398  -0.918  -0.263  0.00  0.00    +0.012 A 
ATOM     29  C   UNL     1       8.192  -1.588  -0.353  0.00  0.00    +0.057 A 
ATOM     30  C   UNL     1       7.023  -0.965   0.040  0.00  0.00    +0.036 A 
BRANCH  29  31
ATOM     31  C   UNL     1       8.153  -3.001  -0.876  0.00  0.00    +0.417 C 
ATOM     32  F   UNL     1       9.450  -3.413  -1.202  0.00  0.00    -0.166 F 
ATOM     33  F   UNL     1       7.628  -3.847   0.106  0.00  0.00    -0.166 F 
ATOM     34  F   UNL     1       7.346  -3.054  -2.017  0.00  0.00    -0.166 F 
ENDBRANCH  29  31
ENDBRANCH  19  25
BRANCH   7  35
ATOM     35  N   UNL     1      -2.080   2.569  -1.306  0.00  0.00    +0.056 N 
ATOM     36  O   UNL     1      -2.160   1.439  -1.752  0.00  0.00    -0.126 OA
ATOM     37  O   UNL     1      -3.070   3.277  -1.261  0.00  0.00    -0.126 OA
ENDBRANCH   7  35
BRANCH  23  39
ATOM     38  C   UNL     1       6.797   7.861   0.665  0.00  0.00    -0.017 C 
ATOM     39  C   UNL     1       6.604   6.418   1.137  0.00  0.00    -0.082 C 
ENDBRANCH  23  39
TORSDOF 4
