REMARK  Name = ZINC35003050
REMARK  13 active torsions:
REMARK  status: ('A' for Active; 'I' for Inactive)
REMARK    1  A    between atoms: C_1  and  C_2
REMARK    2  A    between atoms: C_6  and  N_8
REMARK    3  A    between atoms: N_11  and  C_12
REMARK    4  A    between atoms: N_11  and  C_31
REMARK    5  A    between atoms: C_12  and  C_13
REMARK    6  A    between atoms: C_13  and  C_14
REMARK    7  A    between atoms: C_14  and  C_15
REMARK    8  A    between atoms: C_15  and  C_17
REMARK    9  A    between atoms: C_15  and  N_18
REMARK   10  A    between atoms: N_18  and  C_19
REMARK   11  A    between atoms: C_21  and  O_29
REMARK   12  A    between atoms: O_29  and  C_30
REMARK   13  A    between atoms: C_31  and  C_32
REMARK                            x       y       z     vdW  Elec       q    Type
REMARK                         _______ _______ _______ _____ _____    ______ ____
ROOT
ATOM      1  N   UNL     1       0.051  -2.797   2.393  0.00  0.00    -0.269 N 
ATOM      2  C   UNL     1      -0.032  -4.143   2.386  0.00  0.00    +0.307 C 
ATOM      3  O   UNL     1      -0.029  -4.746   1.330  0.00  0.00    -0.252 OA
ATOM      4  N   UNL     1      -0.119  -4.819   3.548  0.00  0.00    -0.281 N 
ATOM      5  H   UNL     1       0.127  -2.321   3.234  0.00  0.00    +0.156 HD
ENDROOT
BRANCH   1  11
ATOM      6  C   UNL     1      -1.549  -2.371  -2.236  0.00  0.00    +0.044 C 
ATOM      7  C   UNL     1      -0.739  -1.859  -1.074  0.00  0.00    -0.049 A 
ATOM      8  C   UNL     1      -0.015  -0.687  -1.199  0.00  0.00    +0.003 A 
ATOM      9  C   UNL     1       0.730  -0.214  -0.135  0.00  0.00    +0.002 A 
ATOM     10  C   UNL     1       0.754  -0.911   1.058  0.00  0.00    +0.023 A 
ATOM     11  C   UNL     1       0.029  -2.088   1.186  0.00  0.00    +0.035 A 
ATOM     12  C   UNL     1      -0.723  -2.558   0.117  0.00  0.00    +0.026 A 
ENDBRANCH   1  11
BRANCH   4  13
ATOM     13  C   UNL     1      -0.210  -6.281   3.541  0.00  0.00    +0.110 C 
BRANCH  13  14
ATOM     14  C   UNL     1       1.197  -6.879   3.593  0.00  0.00    +0.021 C 
BRANCH  14  15
ATOM     15  C   UNL     1       1.102  -8.406   3.585  0.00  0.00    +0.023 C 
BRANCH  15  16
ATOM     16  C   UNL     1       2.509  -9.005   3.638  0.00  0.00    +0.067 C 
ATOM     17  C   UNL     1       2.422 -10.527   3.504  0.00  0.00    +0.028 C 
BRANCH  16  18
ATOM     18  N   UNL     1       3.138  -8.662   4.916  0.00  0.00    -0.340 N 
ATOM     19  H   UNL     1       2.588  -8.467   5.690  0.00  0.00    +0.146 HD
BRANCH  18  20
ATOM     20  C   UNL     1       4.528  -8.618   5.019  0.00  0.00    +0.057 A 
ATOM     21  C   UNL     1       5.312  -8.889   3.921  0.00  0.00    +0.070 A 
ATOM     22  C   UNL     1       6.705  -8.849   4.010  0.00  0.00    +0.123 A 
ATOM     23  C   UNL     1       7.325  -8.536   5.198  0.00  0.00    +0.055 A 
ATOM     24  C   UNL     1       6.551  -8.254   6.335  0.00  0.00    +0.006 A 
ATOM     25  C   UNL     1       5.138  -8.288   6.250  0.00  0.00    +0.092 A 
ATOM     26  N   UNL     1       4.400  -8.015   7.330  0.00  0.00    -0.253 NA
ATOM     27  C   UNL     1       4.957  -7.707   8.476  0.00  0.00    +0.111 A 
ATOM     28  C   UNL     1       6.340  -7.650   8.627  0.00  0.00    +0.020 A 
ATOM     29  C   UNL     1       7.153  -7.931   7.566  0.00  0.00    +0.011 A 
BRANCH  22  30
ATOM     30  O   UNL     1       7.456  -9.122   2.911  0.00  0.00    -0.495 OA
ATOM     31  C   UNL     1       8.876  -9.065   3.065  0.00  0.00    +0.277 C 
ENDBRANCH  22  30
ENDBRANCH  18  20
ENDBRANCH  16  18
ENDBRANCH  15  16
ENDBRANCH  14  15
ENDBRANCH  13  14
ENDBRANCH   4  13
BRANCH   4  32
ATOM     32  C   UNL     1      -0.123  -4.091   4.820  0.00  0.00    +0.144 C 
BRANCH  32  33
ATOM     33  C   UNL     1      -1.541  -3.753   5.202  0.00  0.00    -0.030 A 
ATOM     34  C   UNL     1      -2.106  -2.564   4.779  0.00  0.00    +0.008 A 
ATOM     35  C   UNL     1      -3.406  -2.254   5.128  0.00  0.00    +0.038 A 
ATOM     36  C   UNL     1      -4.144  -3.134   5.901  0.00  0.00    +0.123 A 
ATOM     37  C   UNL     1      -3.578  -4.325   6.324  0.00  0.00    +0.038 A 
ATOM     38  C   UNL     1      -2.279  -4.636   5.969  0.00  0.00    +0.008 A 
ATOM     39  F   UNL     1      -5.415  -2.832   6.243  0.00  0.00    -0.205 F 
ENDBRANCH  32  33
ENDBRANCH   4  32
TORSDOF 10
