REMARK  Name = ZINC24757942
REMARK  7 active torsions:
REMARK  status: ('A' for Active; 'I' for Inactive)
REMARK    1  A    between atoms: C_1  and  C_2
REMARK    2  A    between atoms: C_2  and  C_4
REMARK    3  A    between atoms: C_2  and  N_15
REMARK    4  A    between atoms: N_6  and  C_7
REMARK    5  A    between atoms: C_8  and  C_12
REMARK    6  A    between atoms: N_18  and  S_21
REMARK    7  A    between atoms: S_21  and  C_24
REMARK                            x       y       z     vdW  Elec       q    Type
REMARK                         _______ _______ _______ _____ _____    ______ ____
ROOT
ATOM      1  N   UNL     1      -2.433   0.975   0.019  0.00  0.00    +0.389 N 
ATOM      2  C   UNL     1      -2.391   0.129  -1.182  0.00  0.00    -0.060 C 
ATOM      3  C   UNL     1      -3.441  -0.980  -1.058  0.00  0.00    +0.091 C 
ATOM      4  N   UNL     1      -4.745  -0.360  -0.779  0.00  0.00    -0.180 NA
ATOM      5  C   UNL     1      -4.834   0.606   0.326  0.00  0.00    +0.091 C 
ATOM      6  C   UNL     1      -3.730   1.653   0.148  0.00  0.00    -0.060 C 
ATOM      7  H   UNL     1      -2.310   0.319   0.894  0.00  0.00    -0.081 HD
ENDROOT
BRANCH   4   8
ATOM      8  S   UNL     1      -6.078  -0.740  -1.686  0.00  0.00    +0.061 S 
ATOM      9  O   UNL     1      -5.838  -2.025  -2.243  0.00  0.00    -0.153 OA
ATOM     10  O   UNL     1      -7.213  -0.461  -0.877  0.00  0.00    -0.153 OA
BRANCH   8  11
ATOM     11  C   UNL     1      -6.131   0.393  -3.035  0.00  0.00    +0.109 A 
ATOM     12  C   UNL     1      -6.818   1.585  -2.907  0.00  0.00    +0.032 A 
ATOM     13  C   UNL     1      -6.859   2.482  -3.960  0.00  0.00    +0.051 A 
ATOM     14  C   UNL     1      -6.218   2.174  -5.148  0.00  0.00    +0.162 A 
ATOM     15  C   UNL     1      -5.533   0.975  -5.279  0.00  0.00    +0.164 A 
ATOM     16  C   UNL     1      -5.489   0.082  -4.221  0.00  0.00    +0.078 A 
ATOM     17  O   UNL     1      -4.903   0.682  -6.453  0.00  0.00    -0.488 OA
ATOM     18  C   UNL     1      -5.755   0.439  -7.575  0.00  0.00    +0.232 C 
ATOM     19  C   UNL     1      -6.154   1.745  -8.243  0.00  0.00    +0.082 C 
ATOM     20  C   UNL     1      -7.003   2.623  -7.337  0.00  0.00    +0.232 C 
ATOM     21  O   UNL     1      -6.254   3.048  -6.196  0.00  0.00    -0.488 OA
ENDBRANCH   8  11
ENDBRANCH   4   8
BRANCH   1  23
ATOM     22  C   UNL     1      -1.429   2.829  -1.225  0.00  0.00    -0.004 C 
ATOM     23  C   UNL     1      -1.330   1.944   0.019  0.00  0.00    +0.017 C 
BRANCH  23  24
ATOM     24  C   UNL     1      -0.014   1.209   0.009  0.00  0.00    +0.204 C 
ATOM     25  O   UNL     1       0.002  -0.004   0.002  0.00  0.00    -0.277 OA
ATOM     26  N   UNL     1       1.143   1.898   0.001  0.00  0.00    -0.281 N 
ATOM     27  H   UNL     1       1.129   2.998   0.007  0.00  0.00    +0.155 HD
BRANCH  26  28
ATOM     28  C   UNL     1       2.354   1.221  -0.014  0.00  0.00    +0.084 A 
ATOM     29  C   UNL     1       3.639   1.750  -0.029  0.00  0.00    +0.065 A 
ATOM     30  C   UNL     1       4.730   0.805  -0.039  0.00  0.00    +0.022 A 
ATOM     31  C   UNL     1       4.410  -0.501  -0.044  0.00  0.00    +0.048 A 
ATOM     32  S   UNL     1       2.630  -0.488  -0.026  0.00  0.00    -0.081 S 
BRANCH  29  33
ATOM     33  C   UNL     1       3.875   3.198  -0.031  0.00  0.00    +0.244 C 
ATOM     34  O   UNL     1       2.932   3.968  -0.019  0.00  0.00    -0.270 OA
ATOM     35  N   UNL     1       5.135   3.675  -0.045  0.00  0.00    -0.325 N 
ATOM     36  H   UNL     1       5.312   4.761  -0.047  0.00  0.00    +0.145 HD
ATOM     37  H   UNL     1       5.987   2.979  -0.057  0.00  0.00    +0.145 HD
ENDBRANCH  29  33
ENDBRANCH  26  28
ENDBRANCH  23  24
ENDBRANCH   1  23
TORSDOF 6
