REMARK  Name = ZINC14472672
REMARK  4 active torsions:
REMARK  status: ('A' for Active; 'I' for Inactive)
REMARK    1  A    between atoms: C_4  and  N_7
REMARK    2  A    between atoms: C_8  and  C_10
REMARK    3  A    between atoms: C_17  and  C_26
REMARK    4  A    between atoms: C_28  and  N_33
REMARK                            x       y       z     vdW  Elec       q    Type
REMARK                         _______ _______ _______ _____ _____    ______ ____
ROOT
ATOM      1  C   UNL     1       4.468   1.283  -3.122  0.00  0.00    +0.058 A 
ATOM      2  C   UNL     1       5.491   2.071  -2.592  0.00  0.00    +0.015 A 
ATOM      3  C   UNL     1       5.355   2.604  -1.330  0.00  0.00    +0.001 A 
ATOM      4  C   UNL     1       4.212   2.361  -0.590  0.00  0.00    +0.006 A 
ATOM      5  C   UNL     1       3.183   1.582  -1.099  0.00  0.00    -0.019 A 
ATOM      6  C   UNL     1       3.305   1.037  -2.365  0.00  0.00    +0.044 A 
ATOM      7  N   UNL     1       2.317   0.246  -2.930  0.00  0.00    -0.336 N 
ATOM      8  C   UNL     1       0.990   0.548  -2.390  0.00  0.00    +0.106 C 
ATOM      9  C   UNL     1       1.002   0.349  -0.873  0.00  0.00    +0.029 C 
ATOM     10  C   UNL     1       1.970   1.372  -0.241  0.00  0.00    +0.049 C 
ATOM     11  C   UNL     1       1.157   2.643  -0.151  0.00  0.00    -0.023 C 
ATOM     12  C   UNL     1      -0.124   2.373  -0.195  0.00  0.00    -0.030 C 
ATOM     13  C   UNL     1      -0.348   0.878  -0.312  0.00  0.00    +0.033 C 
ATOM     14  H   UNL     1       2.534  -0.733  -2.828  0.00  0.00    +0.147 HD
ENDROOT
BRANCH   8  15
ATOM     15  C   UNL     1      -0.027  -0.374  -3.010  0.00  0.00    -0.007 A 
ATOM     16  C   UNL     1      -0.514  -1.450  -2.292  0.00  0.00    +0.039 A 
ATOM     17  C   UNL     1      -1.448  -2.296  -2.860  0.00  0.00    +0.127 A 
ATOM     18  C   UNL     1      -1.895  -2.067  -4.148  0.00  0.00    +0.034 A 
ATOM     19  C   UNL     1      -1.409  -0.992  -4.868  0.00  0.00    +0.022 A 
ATOM     20  C   UNL     1      -0.478  -0.142  -4.297  0.00  0.00    +0.046 A 
ATOM     21 CL   UNL     1       0.128   1.213  -5.198  0.00  0.00    -0.083 Cl
BRANCH  17  22
ATOM     22  N   UNL     1      -1.969  -3.447  -2.090  0.00  0.00    +0.056 N 
ATOM     23  O   UNL     1      -1.575  -3.649  -0.955  0.00  0.00    -0.126 OA
ATOM     24  O   UNL     1      -2.791  -4.193  -2.591  0.00  0.00    -0.126 OA
ENDBRANCH  17  22
ENDBRANCH   8  15
BRANCH   1  26
ATOM     25  N   UNL     1       5.717   0.943  -5.196  0.00  0.00    -0.281 N 
ATOM     26  C   UNL     1       4.604   0.707  -4.472  0.00  0.00    +0.250 C 
ATOM     27  O   UNL     1       3.713   0.021  -4.933  0.00  0.00    -0.270 OA
ATOM     28  H   UNL     1       6.455   1.435  -4.804  0.00  0.00    +0.155 HD
BRANCH  25  32
ATOM     29  C   UNL     1       5.984  -0.444  -9.114  0.00  0.00    +0.000 A 
ATOM     30  C   UNL     1       6.555   0.768  -8.771  0.00  0.00    +0.002 A 
ATOM     31  C   UNL     1       6.468   1.230  -7.472  0.00  0.00    +0.023 A 
ATOM     32  C   UNL     1       5.806   0.477  -6.511  0.00  0.00    +0.034 A 
ATOM     33  C   UNL     1       5.239  -0.742  -6.859  0.00  0.00    +0.023 A 
ATOM     34  C   UNL     1       5.324  -1.196  -8.160  0.00  0.00    +0.002 A 
ENDBRANCH  25  32
ENDBRANCH   1  26
TORSDOF 4
