REMARK  Name = ZINC65421580
REMARK  9 active torsions:
REMARK  status: ('A' for Active; 'I' for Inactive)
REMARK    1  A    between atoms: C_1  and  C_2
REMARK    2  A    between atoms: C_5  and  N_18
REMARK    3  A    between atoms: C_7  and  N_8
REMARK    4  A    between atoms: C_9  and  C_11
REMARK    5  A    between atoms: C_11  and  N_12
REMARK    6  A    between atoms: N_21  and  C_22
REMARK    7  A    between atoms: C_22  and  C_23
REMARK    8  A    between atoms: C_22  and  C_24
REMARK    9  A    between atoms: C_24  and  C_25
REMARK                            x       y       z     vdW  Elec       q    Type
REMARK                         _______ _______ _______ _____ _____    ______ ____
ROOT
ATOM      1  C   UNL     1       0.046   1.738   0.158  0.00  0.00    +0.045 C 
ATOM      2  C   UNL     1       0.129   0.243  -0.008  0.00  0.00    -0.029 A 
ATOM      3  C   UNL     1       0.255  -0.306  -1.270  0.00  0.00    +0.007 A 
ATOM      4  C   UNL     1       0.330  -1.676  -1.426  0.00  0.00    +0.024 A 
ATOM      5  C   UNL     1       0.280  -2.507  -0.314  0.00  0.00    +0.037 A 
ATOM      6  C   UNL     1       0.154  -1.960   0.954  0.00  0.00    +0.047 A 
ATOM      7  C   UNL     1       0.084  -0.583   1.108  0.00  0.00    +0.038 A 
ENDROOT
BRANCH   5   8
ATOM      8  N   UNL     1       0.355  -3.896  -0.473  0.00  0.00    -0.269 N 
ATOM      9  C   UNL     1      -0.200  -4.481  -1.553  0.00  0.00    +0.304 C 
ATOM     10  O   UNL     1      -0.852  -3.818  -2.337  0.00  0.00    -0.253 OA
ATOM     11  N   UNL     1      -0.034  -5.802  -1.763  0.00  0.00    -0.296 N 
ATOM     12  H   UNL     1       0.807  -4.436   0.193  0.00  0.00    +0.156 HD
ATOM     13  H   UNL     1       0.485  -6.331  -1.138  0.00  0.00    +0.151 HD
BRANCH  11  14
ATOM     14  C   UNL     1      -0.638  -6.439  -2.936  0.00  0.00    +0.079 C 
ATOM     15  C   UNL     1      -2.086  -6.820  -2.621  0.00  0.00    +0.028 C 
BRANCH  14  16
ATOM     16  C   UNL     1       0.153  -7.697  -3.298  0.00  0.00    +0.096 C 
BRANCH  16  17
ATOM     17  C   UNL     1       1.545  -7.309  -3.727  0.00  0.00    +0.107 A 
ATOM     18  C   UNL     1       2.614  -7.194  -2.919  0.00  0.00    +0.045 A 
ATOM     19  C   UNL     1       3.704  -6.813  -3.734  0.00  0.00    +0.041 A 
ATOM     20  C   UNL     1       3.237  -6.718  -4.991  0.00  0.00    +0.195 A 
ATOM     21  O   UNL     1       1.929  -7.026  -4.982  0.00  0.00    -0.468 OA
ENDBRANCH  16  17
ENDBRANCH  14  16
ENDBRANCH  11  14
ENDBRANCH   5   8
BRANCH   7  22
ATOM     22  N   UNL     1      -0.037  -0.026   2.386  0.00  0.00    -0.287 N 
ATOM     23  C   UNL     1      -0.588  -0.745   3.385  0.00  0.00    +0.201 C 
ATOM     24  O   UNL     1      -0.912  -1.898   3.195  0.00  0.00    -0.278 OA
ATOM     25  H   UNL     1       0.276   0.877   2.554  0.00  0.00    +0.155 HD
BRANCH  23  26
ATOM     26  C   UNL     1      -0.802  -0.115   4.737  0.00  0.00    +0.019 C 
BRANCH  26  27
ATOM     27  N   UNL     1      -1.411  -1.097   5.644  0.00  0.00    +0.385 N 
ATOM     28  C   UNL     1      -2.750  -1.448   5.154  0.00  0.00    -0.078 C 
ATOM     29  C   UNL     1      -3.357  -2.530   6.048  0.00  0.00    -0.019 C 
ATOM     30  C   UNL     1      -3.459  -2.002   7.482  0.00  0.00    -0.004 C 
ATOM     31  C   UNL     1      -2.069  -1.569   7.957  0.00  0.00    -0.019 C 
ATOM     32  C   UNL     1      -1.509  -0.523   6.991  0.00  0.00    -0.078 C 
ATOM     33  H   UNL     1      -0.838  -1.927   5.674  0.00  0.00    -0.081 HD
ENDBRANCH  26  27
ENDBRANCH  23  26
ENDBRANCH   7  22
TORSDOF 7
