REMARK  Name = ZINC19971300
REMARK  5 active torsions:
REMARK  status: ('A' for Active; 'I' for Inactive)
REMARK    1  A    between atoms: C_1  and  C_2
REMARK    2  A    between atoms: C_4  and  C_11
REMARK    3  A    between atoms: C_6  and  N_8
REMARK    4  A    between atoms: C_11  and  C_13
REMARK    5  A    between atoms: C_11  and  N_20
REMARK                            x       y       z     vdW  Elec       q    Type
REMARK                         _______ _______ _______ _____ _____    ______ ____
ROOT
ATOM      1  C   UNL     1       1.230  -2.186  -0.021  0.00  0.00    -0.012 C 
ENDROOT
BRANCH   1   5
ATOM      2  C   UNL     1      -1.821  -4.101   3.453  0.00  0.00    +0.044 C 
ATOM      3  C   UNL     1      -0.456  -3.614   3.040  0.00  0.00    -0.048 A 
ATOM      4  C   UNL     1      -0.250  -3.139   1.758  0.00  0.00    +0.005 A 
ATOM      5  C   UNL     1       1.004  -2.698   1.378  0.00  0.00    -0.055 A 
ATOM      6  C   UNL     1       2.049  -2.723   2.283  0.00  0.00    +0.035 A 
ATOM      7  C   UNL     1       1.841  -3.193   3.566  0.00  0.00    +0.127 A 
ATOM      8  C   UNL     1       0.589  -3.639   3.945  0.00  0.00    +0.036 A 
BRANCH   7   9
ATOM      9  N   UNL     1       2.961  -3.219   4.534  0.00  0.00    +0.056 N 
ATOM     10  O   UNL     1       4.064  -2.827   4.200  0.00  0.00    -0.126 OA
ATOM     11  O   UNL     1       2.778  -3.633   5.665  0.00  0.00    -0.126 OA
ENDBRANCH   7   9
ENDBRANCH   1   5
BRANCH   1  12
ATOM     12  C   UNL     1       1.209  -0.679  -0.013  0.00  0.00    -0.045 A 
ATOM     13  C   UNL     1       2.396   0.029  -0.021  0.00  0.00    +0.003 A 
ATOM     14  C   UNL     1       2.377   1.411  -0.013  0.00  0.00    +0.000 A 
ATOM     15  C   UNL     1       1.171   2.086   0.002  0.00  0.00    +0.001 A 
ATOM     16  C   UNL     1      -0.017   1.379   0.010  0.00  0.00    +0.014 A 
ATOM     17  C   UNL     1       0.002  -0.004   0.002  0.00  0.00    +0.015 A 
ATOM     18  I   UNL     1      -1.798  -1.076   0.013  0.00  0.00    -0.044 I 
ENDBRANCH   1  12
BRANCH   1  19
ATOM     19  N   UNL     1       2.533  -2.655  -0.510  0.00  0.00    +0.385 N 
ATOM     20  H   UNL     1       2.698  -2.280  -1.531  0.00  0.00    -0.089 HD
ATOM     21  H   UNL     1       2.548  -3.755  -0.515  0.00  0.00    -0.089 HD
ATOM     22  H   UNL     1       3.329  -2.281   0.151  0.00  0.00    -0.089 HD
ENDBRANCH   1  19
TORSDOF 4
