REMARK  Name = ZINC22935207
REMARK  12 active torsions:
REMARK  status: ('A' for Active; 'I' for Inactive)
REMARK    1  A    between atoms: C_1  and  C_2
REMARK    2  A    between atoms: C_5  and  S_8
REMARK    3  A    between atoms: S_8  and  N_11
REMARK    4  A    between atoms: N_11  and  C_12
REMARK    5  A    between atoms: N_11  and  C_26
REMARK    6  A    between atoms: C_12  and  C_13
REMARK    7  A    between atoms: N_15  and  C_16
REMARK    8  A    between atoms: C_16  and  C_17
REMARK    9  A    between atoms: C_17  and  C_18
REMARK   10  A    between atoms: C_18  and  N_19
REMARK   11  A    between atoms: N_22  and  C_25
REMARK   12  A    between atoms: C_30  and  C_32
REMARK                            x       y       z     vdW  Elec       q    Type
REMARK                         _______ _______ _______ _____ _____    ______ ____
ROOT
ATOM      1  N   UNL     1      -0.020   1.652   0.011  0.00  0.00    -0.194 N 
ENDROOT
BRANCH   1   2
ATOM      2  C   UNL     1       1.134   2.401  -0.226  0.00  0.00    +0.052 A 
ATOM      3  C   UNL     1       1.121   3.422  -1.168  0.00  0.00    +0.025 A 
ATOM      4  C   UNL     1       2.264   4.160  -1.400  0.00  0.00    +0.002 A 
ATOM      5  C   UNL     1       3.422   3.885  -0.695  0.00  0.00    +0.012 A 
ATOM      6  C   UNL     1       3.439   2.870   0.243  0.00  0.00    +0.057 A 
ATOM      7  C   UNL     1       2.297   2.130   0.483  0.00  0.00    +0.037 A 
BRANCH   6   8
ATOM      8  C   UNL     1       4.703   2.574   1.009  0.00  0.00    +0.417 C 
ATOM      9  F   UNL     1       5.713   3.451   0.599  0.00  0.00    -0.166 F 
ATOM     10  F   UNL     1       4.468   2.741   2.378  0.00  0.00    -0.166 F 
ATOM     11  F   UNL     1       5.100   1.256   0.761  0.00  0.00    -0.166 F 
ENDBRANCH   6   8
ENDBRANCH   1   2
BRANCH   1  12
ATOM     12  S   UNL     1      -0.004   0.011  -0.215  0.00  0.00    +0.075 S 
ATOM     13  O   UNL     1      -1.324  -0.360  -0.589  0.00  0.00    -0.150 OA
ATOM     14  O   UNL     1       1.126  -0.276  -1.027  0.00  0.00    -0.150 OA
BRANCH  12  19
ATOM     15  C   UNL     1       1.043  -2.522   5.159  0.00  0.00    +0.044 C 
ATOM     16  C   UNL     1       0.781  -1.890   3.817  0.00  0.00    -0.050 A 
ATOM     17  C   UNL     1      -0.517  -1.639   3.412  0.00  0.00    +0.005 A 
ATOM     18  C   UNL     1      -0.756  -1.059   2.180  0.00  0.00    +0.029 A 
ATOM     19  C   UNL     1       0.301  -0.728   1.354  0.00  0.00    +0.109 A 
ATOM     20  C   UNL     1       1.599  -0.983   1.757  0.00  0.00    +0.029 A 
ATOM     21  C   UNL     1       1.839  -1.560   2.990  0.00  0.00    +0.005 A 
ENDBRANCH  12  19
ENDBRANCH   1  12
BRANCH   1  22
ATOM     22  C   UNL     1      -1.247   2.318   0.455  0.00  0.00    +0.227 C 
BRANCH  22  23
ATOM     23  C   UNL     1      -1.221   2.473   1.953  0.00  0.00    +0.232 C 
ATOM     24  O   UNL     1      -0.271   2.067   2.588  0.00  0.00    -0.274 OA
ATOM     25  N   UNL     1      -2.254   3.063   2.588  0.00  0.00    -0.314 N 
ATOM     26  H   UNL     1      -3.115   3.431   2.012  0.00  0.00    +0.149 HD
BRANCH  25  27
ATOM     27  C   UNL     1      -2.228   3.214   4.045  0.00  0.00    +0.105 C 
BRANCH  27  28
ATOM     28  C   UNL     1      -3.510   3.910   4.508  0.00  0.00    +0.034 C 
BRANCH  28  29
ATOM     29  C   UNL     1      -3.483   4.067   6.030  0.00  0.00    +0.086 C 
BRANCH  29  30
ATOM     30  N   UNL     1      -4.714   4.735   6.474  0.00  0.00    -0.306 NA
ATOM     31  C   UNL     1      -4.768   6.120   5.984  0.00  0.00    +0.066 C 
ATOM     32  C   UNL     1      -6.097   6.754   6.400  0.00  0.00    -0.064 C 
ATOM     33  N   UNL     1      -6.220   6.712   7.864  0.00  0.00    +0.379 N 
ATOM     34  C   UNL     1      -6.165   5.327   8.354  0.00  0.00    -0.064 C 
ATOM     35  C   UNL     1      -4.836   4.693   7.938  0.00  0.00    +0.066 C 
ATOM     36  C   UNL     1      -7.450   7.380   8.309  0.00  0.00    -0.096 C 
ATOM     37  H   UNL     1      -5.366   7.258   8.292  0.00  0.00    -0.082 HD
ENDBRANCH  29  30
ENDBRANCH  28  29
ENDBRANCH  27  28
ENDBRANCH  25  27
ENDBRANCH  22  23
ENDBRANCH   1  22
TORSDOF 10
