REMARK  Name = ZINC61963409
REMARK  11 active torsions:
REMARK  status: ('A' for Active; 'I' for Inactive)
REMARK    1  A    between atoms: C_1  and  N_2
REMARK    2  A    between atoms: N_2  and  C_3
REMARK    3  A    between atoms: N_2  and  C_20
REMARK    4  A    between atoms: C_3  and  C_4
REMARK    5  A    between atoms: C_4  and  C_5
REMARK    6  A    between atoms: C_5  and  N_6
REMARK    7  A    between atoms: N_9  and  C_10
REMARK    8  A    between atoms: C_10  and  C_11
REMARK    9  A    between atoms: C_11  and  C_12
REMARK   10  A    between atoms: C_11  and  O_19
REMARK   11  A    between atoms: C_20  and  C_21
REMARK                            x       y       z     vdW  Elec       q    Type
REMARK                         _______ _______ _______ _____ _____    ______ ____
ROOT
ATOM      1  N   UNL     1      -0.082  -0.239   4.890  0.00  0.00    -0.299 N 
ATOM      2  C   UNL     1       0.384  -0.583   6.107  0.00  0.00    +0.300 C 
ATOM      3  O   UNL     1       1.426  -1.202   6.207  0.00  0.00    -0.253 OA
ATOM      4  N   UNL     1      -0.307  -0.242   7.213  0.00  0.00    -0.297 N 
ATOM      5  H   UNL     1      -0.913   0.254   4.810  0.00  0.00    +0.150 HD
ATOM      6  H   UNL     1      -1.138   0.251   7.133  0.00  0.00    +0.150 HD
ENDROOT
BRANCH   1   7
ATOM      7  C   UNL     1       0.669  -0.610   3.687  0.00  0.00    +0.104 C 
BRANCH   7   8
ATOM      8  C   UNL     1      -0.071  -0.103   2.448  0.00  0.00    +0.000 C 
BRANCH   8   9
ATOM      9  C   UNL     1       0.713  -0.491   1.192  0.00  0.00    -0.077 C 
BRANCH   9  11
ATOM     10  C   UNL     1      -0.018   1.465   0.010  0.00  0.00    -0.096 C 
ATOM     11  N   UNL     1       0.002  -0.004   0.002  0.00  0.00    +0.381 N 
ATOM     12  H   UNL     1      -0.945  -0.353   0.009  0.00  0.00    -0.082 HD
BRANCH  11  13
ATOM     13  C   UNL     1       0.690  -0.478  -1.207  0.00  0.00    -0.043 C 
BRANCH  13  14
ATOM     14  C   UNL     1      -0.106  -0.083  -2.424  0.00  0.00    -0.064 A 
ATOM     15  C   UNL     1      -1.079  -0.931  -2.919  0.00  0.00    +0.002 A 
ATOM     16  C   UNL     1      -1.808  -0.569  -4.036  0.00  0.00    +0.000 A 
ATOM     17  C   UNL     1      -1.565   0.641  -4.658  0.00  0.00    +0.000 A 
ATOM     18  C   UNL     1      -0.593   1.490  -4.163  0.00  0.00    +0.000 A 
ATOM     19  C   UNL     1       0.134   1.129  -3.043  0.00  0.00    +0.002 A 
ENDBRANCH  13  14
ENDBRANCH  11  13
ENDBRANCH   9  11
ENDBRANCH   8   9
ENDBRANCH   7   8
ENDBRANCH   1   7
BRANCH   4  20
ATOM     20  C   UNL     1       0.199  -0.616   8.537  0.00  0.00    +0.142 C 
BRANCH  20  21
ATOM     21  C   UNL     1      -0.766  -0.112   9.612  0.00  0.00    +0.164 C 
BRANCH  21  22
ATOM     22  C   UNL     1      -0.187  -0.388  10.976  0.00  0.00    +0.018 A 
ATOM     23  C   UNL     1      -0.540  -1.537  11.657  0.00  0.00    +0.009 A 
ATOM     24  C   UNL     1      -0.009  -1.791  12.908  0.00  0.00    +0.001 A 
ATOM     25  C   UNL     1       0.877  -0.895  13.478  0.00  0.00    +0.003 A 
ATOM     26  C   UNL     1       1.232   0.254  12.799  0.00  0.00    +0.039 A 
ATOM     27  C   UNL     1       0.704   0.507  11.543  0.00  0.00    +0.129 A 
ATOM     28  F   UNL     1       1.054   1.628  10.876  0.00  0.00    -0.205 F 
ENDBRANCH  21  22
BRANCH  21  29
ATOM     29  O   UNL     1      -2.019  -0.786   9.482  0.00  0.00    -0.386 OA
ATOM     30  H   UNL     1      -1.961  -1.747   9.578  0.00  0.00    +0.210 HD
ENDBRANCH  21  29
ENDBRANCH  20  21
ENDBRANCH   4  20
TORSDOF 10
