REMARK  Name = ZINC35920171
REMARK  8 active torsions:
REMARK  status: ('A' for Active; 'I' for Inactive)
REMARK    1  A    between atoms: C_1  and  N_2
REMARK    2  A    between atoms: C_12  and  O_14
REMARK    3  A    between atoms: O_14  and  C_15
REMARK    4  A    between atoms: C_18  and  O_21
REMARK    5  A    between atoms: O_21  and  C_22
REMARK    6  A    between atoms: N_29  and  C_30
REMARK    7  A    between atoms: C_34  and  O_36
REMARK    8  A    between atoms: O_36  and  C_37
REMARK                            x       y       z     vdW  Elec       q    Type
REMARK                         _______ _______ _______ _____ _____    ______ ____
ROOT
ATOM      1  C   UNL     1      -0.891   0.074  -2.724  0.00  0.00    -0.096 C 
ATOM      2  N   UNL     1      -0.722  -1.314  -2.275  0.00  0.00    +0.380 N 
ATOM      3  C   UNL     1       0.185  -2.017  -3.192  0.00  0.00    -0.060 C 
ATOM      4  C   UNL     1       0.272  -3.493  -2.792  0.00  0.00    +0.089 C 
ATOM      5  N   UNL     1       0.661  -3.570  -1.375  0.00  0.00    -0.303 N 
ATOM      6  C   UNL     1      -0.095  -2.765  -0.404  0.00  0.00    +0.089 C 
ATOM      7  C   UNL     1      -0.165  -1.323  -0.917  0.00  0.00    -0.060 C 
ATOM      8  C   UNL     1       1.710  -4.376  -0.969  0.00  0.00    +0.221 A 
ATOM      9  N   UNL     1       2.076  -4.367   0.303  0.00  0.00    -0.219 NA
ATOM     10  C   UNL     1       3.076  -5.129   0.738  0.00  0.00    +0.056 A 
ATOM     11  C   UNL     1       3.729  -5.941  -0.158  0.00  0.00    +0.053 A 
ATOM     12  C   UNL     1       3.327  -5.925  -1.496  0.00  0.00    +0.230 A 
ATOM     13  N   UNL     1       2.320  -5.142  -1.861  0.00  0.00    -0.179 NA
ATOM     14  C   UNL     1       4.853  -6.857   0.248  0.00  0.00    +0.151 C 
ATOM     15  N   UNL     1       5.287  -6.528   1.611  0.00  0.00    -0.280 N 
ATOM     16  C   UNL     1       4.238  -6.292   2.616  0.00  0.00    +0.116 C 
ATOM     17  C   UNL     1       3.447  -5.054   2.194  0.00  0.00    +0.075 C 
ATOM     18  C   UNL     1       6.594  -6.445   1.929  0.00  0.00    +0.307 C 
ATOM     19  O   UNL     1       6.926  -6.101   3.047  0.00  0.00    -0.252 OA
ATOM     20  N   UNL     1       7.532  -6.744   1.009  0.00  0.00    -0.269 N 
ATOM     21  H   UNL     1       7.270  -6.946   0.097  0.00  0.00    +0.156 HD
ATOM     22  H   UNL     1      -1.618  -1.777  -2.273  0.00  0.00    -0.082 HD
ENDROOT
BRANCH  20  23
ATOM     23  C   UNL     1       8.884  -6.764   1.369  0.00  0.00    +0.038 A 
ATOM     24  C   UNL     1       9.257  -7.145   2.652  0.00  0.00    +0.023 A 
ATOM     25  C   UNL     1      10.591  -7.164   3.007  0.00  0.00    +0.005 A 
ATOM     26  C   UNL     1      11.559  -6.803   2.088  0.00  0.00    +0.046 A 
ATOM     27  C   UNL     1      11.192  -6.421   0.805  0.00  0.00    +0.122 A 
ATOM     28  C   UNL     1       9.854  -6.408   0.443  0.00  0.00    +0.069 A 
BRANCH  27  29
ATOM     29  O   UNL     1      12.145  -6.067  -0.097  0.00  0.00    -0.495 OA
ATOM     30  C   UNL     1      13.504  -6.111   0.343  0.00  0.00    +0.277 C 
ENDBRANCH  27  29
ENDBRANCH  20  23
BRANCH  12  31
ATOM     31  O   UNL     1       3.955  -6.704  -2.410  0.00  0.00    -0.438 OA
BRANCH  31  32
ATOM     32  C   UNL     1       3.502  -6.676  -3.692  0.00  0.00    +0.131 A 
ATOM     33  C   UNL     1       2.818  -5.564  -4.162  0.00  0.00    +0.050 A 
ATOM     34  C   UNL     1       2.358  -5.535  -5.463  0.00  0.00    +0.049 A 
ATOM     35  C   UNL     1       2.580  -6.618  -6.301  0.00  0.00    +0.120 A 
ATOM     36  C   UNL     1       3.263  -7.730  -5.832  0.00  0.00    +0.049 A 
ATOM     37  C   UNL     1       3.729  -7.757  -4.532  0.00  0.00    +0.050 A 
BRANCH  35  38
ATOM     38  O   UNL     1       2.127  -6.590  -7.583  0.00  0.00    -0.495 OA
ATOM     39  C   UNL     1       2.391  -7.740  -8.390  0.00  0.00    +0.277 C 
ENDBRANCH  35  38
ENDBRANCH  31  32
ENDBRANCH  12  31
TORSDOF 5
