REMARK  Name = ZINC59914460
REMARK  12 active torsions:
REMARK  status: ('A' for Active; 'I' for Inactive)
REMARK    1  A    between atoms: C_1  and  C_2
REMARK    2  A    between atoms: C_7  and  C_8
REMARK    3  A    between atoms: C_8  and  S_9
REMARK    4  A    between atoms: S_9  and  C_10
REMARK    5  A    between atoms: N_14  and  N_15
REMARK    6  A    between atoms: N_16  and  N_17
REMARK    7  A    between atoms: C_18  and  C_19
REMARK    8  A    between atoms: C_20  and  C_28
REMARK    9  A    between atoms: N_22  and  C_25
REMARK   10  A    between atoms: C_23  and  C_24
REMARK   11  A    between atoms: C_25  and  C_26
REMARK   12  A    between atoms: C_26  and  O_27
REMARK                            x       y       z     vdW  Elec       q    Type
REMARK                         _______ _______ _______ _____ _____    ______ ____
ROOT
ATOM      1  C   UNL     1      -1.513   1.192   4.568  0.00  0.00    +0.210 A 
ATOM      2  N   UNL     1      -0.383   1.542   5.133  0.00  0.00    -0.119 NA
ATOM      3  N   UNL     1      -0.684   2.214   6.325  0.00  0.00    -0.109 NA
ATOM      4  C   UNL     1      -1.989   2.252   6.450  0.00  0.00    +0.254 A 
ATOM      5  N   UNL     1      -2.535   1.627   5.364  0.00  0.00    -0.211 N 
ATOM      6  N   UNL     1      -2.691   2.830   7.497  0.00  0.00    -0.204 N 
ATOM      7  H   UNL     1      -3.661   2.808   7.501  0.00  0.00    +0.177 HD
ENDROOT
BRANCH   5   8
ATOM      8  N   UNL     1      -3.869   1.462   5.119  0.00  0.00    -0.294 N 
ATOM      9  H   UNL     1      -4.207   0.600   5.520  0.00  0.00    +0.163 HD
ATOM     10  H   UNL     1      -4.399   2.251   5.458  0.00  0.00    +0.163 HD
ENDBRANCH   5   8
BRANCH   6  11
ATOM     11  N   UNL     1      -2.000   3.447   8.548  0.00  0.00    -0.187 NA
ATOM     12  C   UNL     1      -2.658   3.988   9.527  0.00  0.00    +0.141 C 
BRANCH  12  13
ATOM     13  C   UNL     1      -1.930   4.638  10.635  0.00  0.00    +0.038 A 
ATOM     14  C   UNL     1      -0.529   4.753  10.762  0.00  0.00    +0.069 A 
ATOM     15  N   UNL     1      -0.272   5.390  11.872  0.00  0.00    -0.176 NA
ATOM     16  N   UNL     1      -1.481   5.708  12.501  0.00  0.00    -0.266 N 
ATOM     17  C   UNL     1      -2.492   5.250  11.734  0.00  0.00    +0.045 A 
ATOM     18  C   UNL     1      -3.964   5.379  12.028  0.00  0.00    +0.066 C 
ATOM     19  C   UNL     1       0.493   4.231   9.785  0.00  0.00    +0.068 C 
BRANCH  16  20
ATOM     20  C   UNL     1      -1.625   6.423  13.772  0.00  0.00    +0.171 C 
BRANCH  20  21
ATOM     21  C   UNL     1      -1.714   7.926  13.504  0.00  0.00    +0.179 C 
BRANCH  21  22
ATOM     22  O   UNL     1      -1.855   8.623  14.743  0.00  0.00    -0.393 OA
ATOM     23  H   UNL     1      -1.917   9.584  14.650  0.00  0.00    +0.209 HD
ENDBRANCH  21  22
ENDBRANCH  20  21
ENDBRANCH  16  20
ENDBRANCH  12  13
ENDBRANCH   6  11
BRANCH   1  24
ATOM     24  S   UNL     1      -1.684   0.321   3.046  0.00  0.00    -0.080 S 
BRANCH  24  25
ATOM     25  C   UNL     1       0.025   0.045   2.504  0.00  0.00    +0.112 C 
BRANCH  25  32
ATOM     26  C   UNL     1      -0.018   1.503   0.010  0.00  0.00    +0.044 C 
ATOM     27  C   UNL     1       0.002  -0.004   0.002  0.00  0.00    -0.046 A 
ATOM     28  C   UNL     1       0.006  -0.689  -1.199  0.00  0.00    +0.003 A 
ATOM     29  C   UNL     1       0.025  -2.071  -1.207  0.00  0.00    +0.000 A 
ATOM     30  C   UNL     1       0.040  -2.768  -0.013  0.00  0.00    +0.000 A 
ATOM     31  C   UNL     1       0.037  -2.084   1.188  0.00  0.00    +0.005 A 
ATOM     32  C   UNL     1       0.023  -0.702   1.195  0.00  0.00    -0.034 A 
ENDBRANCH  25  32
ENDBRANCH  24  25
ENDBRANCH   1  24
TORSDOF 9
