REMARK  Name = ZINC09580135
REMARK  8 active torsions:
REMARK  status: ('A' for Active; 'I' for Inactive)
REMARK    1  A    between atoms: C_3  and  N_11
REMARK    2  A    between atoms: C_5  and  S_7
REMARK    3  A    between atoms: S_7  and  N_10
REMARK    4  A    between atoms: C_12  and  C_14
REMARK    5  A    between atoms: C_17  and  N_20
REMARK    6  A    between atoms: C_21  and  C_23
REMARK    7  A    between atoms: C_23  and  N_57
REMARK    8  A    between atoms: C_27  and  C_29
REMARK                            x       y       z     vdW  Elec       q    Type
REMARK                         _______ _______ _______ _____ _____    ______ ____
ROOT
ATOM      1  C   UNL     1       0.848   2.795   1.490  0.00  0.00    +0.037 A 
ATOM      2  C   UNL     1       0.961   4.188   1.531  0.00  0.00    +0.015 A 
ATOM      3  C   UNL     1       2.182   4.784   1.314  0.00  0.00    +0.024 A 
ATOM      4  C   UNL     1       3.301   4.003   1.042  0.00  0.00    +0.033 A 
ATOM      5  C   UNL     1       3.191   2.617   0.995  0.00  0.00    +0.024 A 
ATOM      6  C   UNL     1       1.974   2.014   1.218  0.00  0.00    +0.015 A 
ENDROOT
BRANCH   1   8
ATOM      7  N   UNL     1      -1.545   2.907   1.986  0.00  0.00    -0.281 N 
ATOM      8  C   UNL     1      -0.459   2.152   1.729  0.00  0.00    +0.248 C 
ATOM      9  O   UNL     1      -0.556   0.941   1.689  0.00  0.00    -0.270 OA
ATOM     10  H   UNL     1      -1.454   3.868   2.088  0.00  0.00    +0.155 HD
BRANCH   7  13
ATOM     11  C   UNL     1      -4.162   0.458   2.801  0.00  0.00    +0.004 A 
ATOM     12  C   UNL     1      -2.919   1.048   2.683  0.00  0.00    +0.023 A 
ATOM     13  C   UNL     1      -2.802   2.306   2.107  0.00  0.00    +0.036 A 
ATOM     14  C   UNL     1      -3.936   2.969   1.655  0.00  0.00    +0.051 A 
ATOM     15  C   UNL     1      -5.175   2.370   1.770  0.00  0.00    +0.107 A 
ATOM     16  C   UNL     1      -5.289   1.117   2.345  0.00  0.00    +0.028 A 
BRANCH  15  17
ATOM     17  S   UNL     1      -6.614   3.206   1.190  0.00  0.00    +0.056 S 
ATOM     18  O   UNL     1      -6.177   4.128   0.201  0.00  0.00    -0.153 OA
ATOM     19  O   UNL     1      -7.586   2.205   0.923  0.00  0.00    -0.153 OA
BRANCH  17  20
ATOM     20  N   UNL     1      -7.197   4.108   2.451  0.00  0.00    -0.204 NA
ATOM     21  H   UNL     1      -6.742   4.096   3.308  0.00  0.00    +0.144 HD
ATOM     22  H   UNL     1      -7.994   4.647   2.333  0.00  0.00    +0.144 HD
ENDBRANCH  17  20
ENDBRANCH  15  17
ENDBRANCH   7  13
ENDBRANCH   1   8
BRANCH   4  23
ATOM     23  N   UNL     1       4.536   4.611   0.817  0.00  0.00    -0.287 N 
ATOM     24  C   UNL     1       4.596   5.800   0.185  0.00  0.00    +0.201 C 
ATOM     25  O   UNL     1       3.574   6.382  -0.111  0.00  0.00    -0.278 OA
ATOM     26  H   UNL     1       5.351   4.179   1.116  0.00  0.00    +0.155 HD
BRANCH  24  27
ATOM     27  C   UNL     1       5.934   6.406  -0.154  0.00  0.00    +0.020 C 
BRANCH  27  32
ATOM     28  C   UNL     1       5.281   7.488  -2.228  0.00  0.00    -0.077 C 
ATOM     29  C   UNL     1       5.911   8.659  -3.022  0.00  0.00    -0.020 C 
ATOM     30  C   UNL     1       7.292   8.800  -2.330  0.00  0.00    -0.012 C 
ATOM     31  C   UNL     1       6.975   8.482  -0.854  0.00  0.00    -0.030 C 
ATOM     32  N   UNL     1       5.721   7.708  -0.839  0.00  0.00    +0.390 N 
ATOM     33  H   UNL     1       5.000   8.238  -0.334  0.00  0.00    -0.080 HD
BRANCH  31  34
ATOM     34  C   UNL     1       8.099   7.684  -0.245  0.00  0.00    -0.024 A 
ATOM     35  C   UNL     1       8.915   8.009   0.787  0.00  0.00    +0.009 A 
ATOM     36  C   UNL     1       9.887   7.109   1.183  0.00  0.00    +0.008 A 
ATOM     37  C   UNL     1      10.001   5.932   0.520  0.00  0.00    +0.045 A 
ATOM     38  S   UNL     1       8.705   6.068  -0.700  0.00  0.00    -0.103 S 
ENDBRANCH  31  34
ENDBRANCH  27  32
ENDBRANCH  24  27
ENDBRANCH   4  23
TORSDOF 8
