REMARK  Name = ZINC05181111
REMARK  3 active torsions:
REMARK  status: ('A' for Active; 'I' for Inactive)
REMARK    1  A    between atoms: C_1  and  O_2
REMARK    2  A    between atoms: O_2  and  C_3
REMARK    3  A    between atoms: C_18  and  C_20
REMARK                            x       y       z     vdW  Elec       q    Type
REMARK                         _______ _______ _______ _____ _____    ______ ____
ROOT
ATOM      1  C   UNL     1       2.188  -4.950  -1.437  0.00  0.00    +0.121 A 
ATOM      2  C   UNL     1       3.387  -4.271  -1.239  0.00  0.00    +0.048 A 
ATOM      3  C   UNL     1       3.414  -2.918  -1.022  0.00  0.00    +0.032 A 
ATOM      4  C   UNL     1       2.218  -2.165  -0.992  0.00  0.00    +0.081 A 
ATOM      5  C   UNL     1       1.020  -2.886  -1.196  0.00  0.00    +0.044 A 
ATOM      6  C   UNL     1       0.997  -4.241  -1.413  0.00  0.00    +0.063 A 
ATOM      7  S   UNL     1      -0.213  -1.611  -1.079  0.00  0.00    -0.052 S 
ATOM      8  C   UNL     1       0.902  -0.246  -0.786  0.00  0.00    +0.162 A 
ATOM      9  N   UNL     1       2.075  -0.835  -0.792  0.00  0.00    -0.225 NA
ATOM     10  N   UNL     1       0.604   1.089  -0.595  0.00  0.00    -0.307 N 
ATOM     11  C   UNL     1      -0.178   1.620  -1.719  0.00  0.00    +0.126 C 
ATOM     12  C   UNL     1      -0.640   3.043  -1.389  0.00  0.00    +0.127 C 
ATOM     13  N   UNL     1       0.537   3.843  -1.018  0.00  0.00    -0.295 N 
ATOM     14  C   UNL     1       1.446   3.309   0.007  0.00  0.00    +0.127 C 
ATOM     15  C   UNL     1       1.827   1.875  -0.379  0.00  0.00    +0.126 C 
ATOM     16  C   UNL     1       0.777   5.033  -1.603  0.00  0.00    +0.247 C 
ATOM     17  O   UNL     1       1.716   5.712  -1.237  0.00  0.00    -0.270 OA
ENDROOT
BRANCH  16  18
ATOM     18  C   UNL     1      -0.102   5.513  -2.691  0.00  0.00    +0.037 A 
ATOM     19  C   UNL     1      -1.490   5.496  -2.534  0.00  0.00    +0.013 A 
ATOM     20  C   UNL     1      -2.295   5.948  -3.554  0.00  0.00    +0.004 A 
ATOM     21  C   UNL     1      -1.744   6.411  -4.743  0.00  0.00    -0.044 A 
ATOM     22  C   UNL     1      -0.375   6.428  -4.905  0.00  0.00    -0.043 A 
ATOM     23  C   UNL     1       0.446   5.980  -3.882  0.00  0.00    +0.017 A 
ATOM     24  C   UNL     1       0.286   6.926  -6.165  0.00  0.00    +0.035 C 
ATOM     25  C   UNL     1      -0.716   6.969  -7.317  0.00  0.00    +0.005 C 
ATOM     26  C   UNL     1      -1.959   7.734  -6.847  0.00  0.00    +0.005 C 
ATOM     27  C   UNL     1      -2.692   6.876  -5.818  0.00  0.00    +0.035 C 
ENDBRANCH  16  18
BRANCH   1  29
ATOM     28  C   UNL     1       3.454  -6.951  -1.660  0.00  0.00    +0.277 C 
ATOM     29  O   UNL     1       2.186  -6.293  -1.650  0.00  0.00    -0.495 OA
ENDBRANCH   1  29
TORSDOF 2
