REMARK  Name = ZINC43620214
REMARK  10 active torsions:
REMARK  status: ('A' for Active; 'I' for Inactive)
REMARK    1  A    between atoms: C_1  and  N_2
REMARK    2  A    between atoms: N_2  and  C_3
REMARK    3  A    between atoms: N_2  and  S_4
REMARK    4  A    between atoms: S_4  and  C_7
REMARK    5  A    between atoms: C_9  and  C_20
REMARK    6  A    between atoms: C_11  and  N_13
REMARK    7  A    between atoms: N_13  and  C_14
REMARK    8  A    between atoms: C_14  and  C_15
REMARK    9  A    between atoms: N_22  and  C_23
REMARK   10  A    between atoms: C_23  and  C_24
REMARK                            x       y       z     vdW  Elec       q    Type
REMARK                         _______ _______ _______ _____ _____    ______ ____
ROOT
ATOM      1  C   UNL     1       1.682  -1.059  -1.905  0.00  0.00    +0.108 A 
ATOM      2  C   UNL     1       2.320  -0.109  -2.676  0.00  0.00    +0.041 A 
ATOM      3  C   UNL     1       3.653  -0.293  -3.048  0.00  0.00    +0.040 A 
ATOM      4  C   UNL     1       4.335  -1.438  -2.639  0.00  0.00    +0.036 A 
ATOM      5  C   UNL     1       3.685  -2.387  -1.865  0.00  0.00    +0.030 A 
ATOM      6  C   UNL     1       2.359  -2.192  -1.495  0.00  0.00    +0.051 A 
ENDROOT
BRANCH   3   7
ATOM      7  C   UNL     1       4.339   0.724  -3.875  0.00  0.00    +0.244 C 
ATOM      8  O   UNL     1       3.742   1.721  -4.231  0.00  0.00    -0.270 OA
ATOM      9  N   UNL     1       5.626   0.544  -4.233  0.00  0.00    -0.311 N 
ATOM     10  H   UNL     1       6.102  -0.252  -3.949  0.00  0.00    +0.149 HD
BRANCH   9  11
ATOM     11  C   UNL     1       6.305   1.551  -5.052  0.00  0.00    +0.106 C 
BRANCH  11  12
ATOM     12  C   UNL     1       7.746   1.107  -5.315  0.00  0.00    -0.008 C 
ATOM     13  C   UNL     1       8.515   1.069  -3.993  0.00  0.00    +0.002 C 
ATOM     14  C   UNL     1       9.970   0.684  -4.284  0.00  0.00    -0.018 C 
ATOM     15  C   UNL     1      10.563   1.699  -5.260  0.00  0.00    -0.078 C 
ATOM     16  N   UNL     1       9.805   1.694  -6.520  0.00  0.00    +0.382 N 
ATOM     17  C   UNL     1       8.416   2.095  -6.275  0.00  0.00    -0.064 C 
ATOM     18  C   UNL     1       7.630   2.089  -7.590  0.00  0.00    -0.015 C 
ATOM     19  C   UNL     1       8.281   3.050  -8.587  0.00  0.00    -0.003 C 
ATOM     20  C   UNL     1       9.740   2.628  -8.793  0.00  0.00    -0.019 C 
ATOM     21  C   UNL     1      10.451   2.639  -7.443  0.00  0.00    -0.078 C 
ATOM     22  H   UNL     1       9.823   0.768  -6.919  0.00  0.00    -0.081 HD
ENDBRANCH  11  12
ENDBRANCH   9  11
ENDBRANCH   3   7
BRANCH   1  23
ATOM     23  S   UNL     1      -0.000  -0.824  -1.437  0.00  0.00    +0.060 S 
ATOM     24  O   UNL     1      -0.531  -2.115  -1.167  0.00  0.00    -0.153 OA
ATOM     25  O   UNL     1      -0.572   0.049  -2.401  0.00  0.00    -0.153 OA
BRANCH  23  27
ATOM     26  C   UNL     1      -0.018   1.461   0.010  0.00  0.00    +0.131 C 
ATOM     27  N   UNL     1       0.002  -0.004   0.002  0.00  0.00    -0.183 NA
ATOM     28  C   UNL     1       0.024  -0.743   1.267  0.00  0.00    +0.131 C 
ENDBRANCH  23  27
ENDBRANCH   1  23
BRANCH   5  29
ATOM     29  N   UNL     1       4.364  -3.537  -1.452  0.00  0.00    -0.340 N 
ATOM     30  H   UNL     1       3.909  -4.200  -0.910  0.00  0.00    +0.146 HD
BRANCH  29  31
ATOM     31  C   UNL     1       5.762  -3.740  -1.838  0.00  0.00    +0.137 C 
BRANCH  31  32
ATOM     32  C   UNL     1       6.255  -5.045  -1.270  0.00  0.00    -0.023 A 
ATOM     33  C   UNL     1       6.835  -5.091  -0.016  0.00  0.00    +0.013 A 
ATOM     34  C   UNL     1       7.268  -6.281   0.466  0.00  0.00    +0.045 A 
ATOM     35  S   UNL     1       6.859  -7.391  -0.872  0.00  0.00    -0.105 S 
ATOM     36  C   UNL     1       6.133  -6.194  -1.979  0.00  0.00    +0.050 A 
ENDBRANCH  31  32
ENDBRANCH  29  31
ENDBRANCH   5  29
TORSDOF 8
