REMARK  Name = ZINC64074579
REMARK  8 active torsions:
REMARK  status: ('A' for Active; 'I' for Inactive)
REMARK    1  A    between atoms: C_1  and  O_2
REMARK    2  A    between atoms: O_2  and  C_3
REMARK    3  A    between atoms: C_6  and  C_9
REMARK    4  A    between atoms: N_11  and  C_12
REMARK    5  A    between atoms: C_12  and  C_13
REMARK    6  A    between atoms: C_13  and  C_14
REMARK    7  A    between atoms: N_22  and  C_25
REMARK    8  A    between atoms: C_25  and  C_26
REMARK                            x       y       z     vdW  Elec       q    Type
REMARK                         _______ _______ _______ _____ _____    ______ ____
ROOT
ATOM      1  C   UNL     1       3.353  -7.196   6.180  0.00  0.00    +0.118 C 
ATOM      2  N   UNL     1       3.802  -6.401   7.078  0.00  0.00    -0.175 NA
ATOM      3  N   UNL     1       4.489  -7.101   8.082  0.00  0.00    -0.247 N 
ATOM      4  C   UNL     1       4.254  -8.513   7.779  0.00  0.00    +0.177 C 
ATOM      5  N   UNL     1       3.700  -8.536   6.435  0.00  0.00    -0.296 N 
ATOM      6  C   UNL     1       3.564  -9.568   5.431  0.00  0.00    +0.123 C 
ATOM      7  C   UNL     1       4.863  -9.653   4.607  0.00  0.00    +0.103 C 
ATOM      8  N   UNL     1       5.929 -10.015   5.506  0.00  0.00    -0.298 NA
ATOM      9  C   UNL     1       6.307  -9.064   6.528  0.00  0.00    +0.088 C 
ATOM     10  C   UNL     1       5.561  -9.332   7.830  0.00  0.00    +0.059 C 
ATOM     11  H   UNL     1       5.005  -6.731   8.816  0.00  0.00    +0.170 HD
ENDROOT
BRANCH   1  12
ATOM     12  C   UNL     1       2.540  -6.750   4.992  0.00  0.00    +0.092 C 
BRANCH  12  13
ATOM     13  C   UNL     1       2.359  -5.231   5.039  0.00  0.00    +0.112 C 
BRANCH  13  16
ATOM     14  C   UNL     1       1.282  -3.491   3.717  0.00  0.00    +0.244 C 
ATOM     15  O   UNL     1       1.678  -2.673   4.525  0.00  0.00    -0.270 OA
ATOM     16  N   UNL     1       1.569  -4.797   3.884  0.00  0.00    -0.311 N 
ATOM     17  H   UNL     1       1.253  -5.449   3.240  0.00  0.00    +0.149 HD
BRANCH  14  21
ATOM     18  C   UNL     1      -1.006  -2.232   0.368  0.00  0.00    +0.120 A 
ATOM     19  C   UNL     1      -0.555  -1.296   1.291  0.00  0.00    +0.046 A 
ATOM     20  C   UNL     1       0.188  -1.700   2.378  0.00  0.00    +0.016 A 
ATOM     21  C   UNL     1       0.486  -3.053   2.553  0.00  0.00    +0.037 A 
ATOM     22  C   UNL     1       0.030  -3.992   1.624  0.00  0.00    +0.016 A 
ATOM     23  C   UNL     1      -0.715  -3.580   0.542  0.00  0.00    +0.046 A 
BRANCH  18  25
ATOM     24  C   UNL     1      -1.999  -0.430  -0.819  0.00  0.00    +0.277 C 
ATOM     25  O   UNL     1      -1.737  -1.830  -0.702  0.00  0.00    -0.495 OA
ENDBRANCH  18  25
ENDBRANCH  14  21
ENDBRANCH  13  16
ENDBRANCH  12  13
ENDBRANCH   1  12
BRANCH   8  26
ATOM     26  C   UNL     1       7.107 -10.485   4.764  0.00  0.00    +0.113 C 
BRANCH  26  27
ATOM     27  C   UNL     1       8.043 -11.235   5.714  0.00  0.00    +0.117 C 
ATOM     28  C   UNL     1       9.151 -11.905   4.933  0.00  0.00    +0.008 C 
ATOM     29  C   UNL     1       9.028 -13.231   5.171  0.00  0.00    -0.004 A 
ATOM     30  C   UNL     1       9.790 -14.398   4.711  0.00  0.00    +0.010 A 
ATOM     31  C   UNL     1       9.419 -15.630   5.130  0.00  0.00    +0.001 A 
ATOM     32  C   UNL     1       8.329 -15.818   5.991  0.00  0.00    +0.002 A 
ATOM     33  C   UNL     1       7.582 -14.795   6.456  0.00  0.00    +0.026 A 
ATOM     34  C   UNL     1       7.882 -13.457   6.080  0.00  0.00    +0.043 A 
ATOM     35  N   UNL     1       7.317 -12.314   6.392  0.00  0.00    -0.377 N 
ATOM     36  H   UNL     1       6.548 -12.201   6.973  0.00  0.00    +0.160 HD
ENDBRANCH  26  27
ENDBRANCH   8  26
TORSDOF 7
