REMARK  Name = ZINC60942432
REMARK  10 active torsions:
REMARK  status: ('A' for Active; 'I' for Inactive)
REMARK    1  A    between atoms: C_1  and  C_2
REMARK    2  A    between atoms: C_5  and  N_8
REMARK    3  A    between atoms: N_8  and  C_9
REMARK    4  A    between atoms: N_8  and  C_10
REMARK    5  A    between atoms: C_10  and  C_11
REMARK    6  A    between atoms: N_13  and  C_14
REMARK    7  A    between atoms: C_14  and  C_15
REMARK    8  A    between atoms: C_15  and  C_16
REMARK    9  A    between atoms: C_19  and  S_22
REMARK   10  A    between atoms: S_22  and  N_25
REMARK                            x       y       z     vdW  Elec       q    Type
REMARK                         _______ _______ _______ _____ _____    ______ ____
ROOT
ATOM      1  C   UNL     1      -4.217   0.003   4.904  0.00  0.00    +0.196 C 
ATOM      2  O   UNL     1      -3.654   0.767   5.658  0.00  0.00    -0.278 OA
ATOM      3  N   UNL     1      -5.508  -0.325   5.117  0.00  0.00    -0.317 N 
ATOM      4  H   UNL     1      -5.958  -0.936   4.514  0.00  0.00    +0.149 HD
ENDROOT
BRANCH   1   5
ATOM      5  C   UNL     1      -3.475  -0.582   3.730  0.00  0.00    +0.019 C 
BRANCH   5   6
ATOM      6  N   UNL     1      -2.097  -0.073   3.720  0.00  0.00    +0.385 N 
ATOM      7  C   UNL     1      -1.387  -0.560   4.910  0.00  0.00    -0.095 C 
ATOM      8  H   UNL     1      -2.111   0.936   3.725  0.00  0.00    -0.081 HD
BRANCH   6  13
ATOM      9  C   UNL     1      -0.019   1.526   0.010  0.00  0.00    +0.007 C 
ATOM     10  C   UNL     1       0.002  -0.004   0.002  0.00  0.00    -0.014 C 
ATOM     11  C   UNL     1      -1.433  -0.534   0.013  0.00  0.00    +0.002 C 
ATOM     12  C   UNL     1      -2.149  -0.040   1.272  0.00  0.00    -0.015 C 
ATOM     13  C   UNL     1      -1.409  -0.547   2.511  0.00  0.00    -0.068 C 
ATOM     14  C   UNL     1       0.026  -0.018   2.500  0.00  0.00    -0.015 C 
ATOM     15  C   UNL     1       0.742  -0.511   1.242  0.00  0.00    +0.002 C 
ENDBRANCH   6  13
ENDBRANCH   5   6
ENDBRANCH   1   5
BRANCH   3  16
ATOM     16  C   UNL     1      -6.229   0.244   6.258  0.00  0.00    +0.109 C 
BRANCH  16  17
ATOM     17  C   UNL     1      -7.664  -0.286   6.269  0.00  0.00    +0.054 C 
BRANCH  17  18
ATOM     18  C   UNL     1      -8.406   0.298   7.443  0.00  0.00    -0.046 A 
ATOM     19  C   UNL     1      -8.396  -0.354   8.662  0.00  0.00    +0.005 A 
ATOM     20  C   UNL     1      -9.077   0.182   9.739  0.00  0.00    +0.029 A 
ATOM     21  C   UNL     1      -9.768   1.371   9.597  0.00  0.00    +0.105 A 
ATOM     22  C   UNL     1      -9.777   2.024   8.379  0.00  0.00    +0.029 A 
ATOM     23  C   UNL     1      -9.093   1.490   7.303  0.00  0.00    +0.005 A 
BRANCH  21  24
ATOM     24  S   UNL     1     -10.636   2.054  10.970  0.00  0.00    +0.056 S 
ATOM     25  O   UNL     1     -11.652   2.890  10.433  0.00  0.00    -0.153 OA
ATOM     26  O   UNL     1     -10.924   0.973  11.847  0.00  0.00    -0.153 OA
BRANCH  24  27
ATOM     27  N   UNL     1      -9.582   3.046  11.772  0.00  0.00    -0.204 NA
ATOM     28  H   UNL     1      -8.673   3.152  11.448  0.00  0.00    +0.144 HD
ATOM     29  H   UNL     1      -9.872   3.522  12.566  0.00  0.00    +0.144 HD
ENDBRANCH  24  27
ENDBRANCH  21  24
ENDBRANCH  17  18
ENDBRANCH  16  17
ENDBRANCH   3  16
TORSDOF 8
