REMARK  Name = ZINC58279935
REMARK  7 active torsions:
REMARK  status: ('A' for Active; 'I' for Inactive)
REMARK    1  A    between atoms: C_1  and  N_2
REMARK    2  A    between atoms: N_2  and  C_3
REMARK    3  A    between atoms: N_2  and  C_17
REMARK    4  A    between atoms: C_3  and  C_4
REMARK    5  A    between atoms: N_6  and  C_7
REMARK    6  A    between atoms: C_10  and  S_13
REMARK    7  A    between atoms: S_13  and  N_16
REMARK                            x       y       z     vdW  Elec       q    Type
REMARK                         _______ _______ _______ _____ _____    ______ ____
ROOT
ATOM      1  C   UNL     1       2.261  -0.231  -0.969  0.00  0.00    +0.201 C 
ATOM      2  O   UNL     1       2.580   0.509  -0.062  0.00  0.00    -0.278 OA
ATOM      3  N   UNL     1       3.192  -0.674  -1.836  0.00  0.00    -0.287 N 
ATOM      4  H   UNL     1       2.950  -1.319  -2.519  0.00  0.00    +0.155 HD
ENDROOT
BRANCH   3   5
ATOM      5  C   UNL     1       4.507  -0.205  -1.752  0.00  0.00    +0.033 A 
ATOM      6  C   UNL     1       5.253  -0.012  -2.907  0.00  0.00    +0.025 A 
ATOM      7  C   UNL     1       6.551   0.451  -2.820  0.00  0.00    +0.030 A 
ATOM      8  C   UNL     1       7.108   0.723  -1.584  0.00  0.00    +0.105 A 
ATOM      9  C   UNL     1       6.369   0.531  -0.432  0.00  0.00    +0.030 A 
ATOM     10  C   UNL     1       5.068   0.074  -0.512  0.00  0.00    +0.025 A 
BRANCH   8  11
ATOM     11  S   UNL     1       8.765   1.314  -1.478  0.00  0.00    +0.056 S 
ATOM     12  O   UNL     1       9.235   0.974  -0.181  0.00  0.00    -0.153 OA
ATOM     13  O   UNL     1       9.424   0.890  -2.663  0.00  0.00    -0.153 OA
BRANCH  11  14
ATOM     14  N   UNL     1       8.699   2.968  -1.539  0.00  0.00    -0.204 NA
ATOM     15  H   UNL     1       7.843   3.417  -1.619  0.00  0.00    +0.144 HD
ATOM     16  H   UNL     1       9.517   3.487  -1.494  0.00  0.00    +0.144 HD
ENDBRANCH  11  14
ENDBRANCH   8  11
ENDBRANCH   3   5
BRANCH   1  17
ATOM     17  C   UNL     1       0.823  -0.653  -1.125  0.00  0.00    +0.019 C 
BRANCH  17  19
ATOM     18  C   UNL     1      -0.036   1.415  -0.264  0.00  0.00    -0.095 C 
ATOM     19  N   UNL     1       0.014  -0.040  -0.063  0.00  0.00    +0.388 N 
ATOM     20  H   UNL     1       0.428  -0.241   0.834  0.00  0.00    -0.081 HD
BRANCH  19  21
ATOM     21  C   UNL     1      -1.349  -0.587  -0.108  0.00  0.00    -0.037 C 
ATOM     22  C   UNL     1      -1.970  -0.364  -1.503  0.00  0.00    -0.006 C 
ATOM     23  C   UNL     1      -2.832  -1.630  -1.688  0.00  0.00    +0.034 C 
ATOM     24  C   UNL     1      -2.171  -2.689  -0.832  0.00  0.00    -0.046 A 
ATOM     25  C   UNL     1      -1.318  -2.088   0.079  0.00  0.00    -0.058 A 
ATOM     26  C   UNL     1      -0.603  -2.867   0.973  0.00  0.00    +0.002 A 
ATOM     27  C   UNL     1      -0.737  -4.242   0.960  0.00  0.00    +0.000 A 
ATOM     28  C   UNL     1      -1.589  -4.843   0.052  0.00  0.00    +0.000 A 
ATOM     29  C   UNL     1      -2.304  -4.067  -0.845  0.00  0.00    +0.004 A 
ENDBRANCH  19  21
ENDBRANCH  17  19
ENDBRANCH   1  17
TORSDOF 6
