REMARK  Name = ZINC43137024
REMARK  7 active torsions:
REMARK  status: ('A' for Active; 'I' for Inactive)
REMARK    1  A    between atoms: C_1  and  C_2
REMARK    2  A    between atoms: C_7  and  N_8
REMARK    3  A    between atoms: N_11  and  N_12
REMARK    4  A    between atoms: N_15  and  C_16
REMARK    5  A    between atoms: C_16  and  C_17
REMARK    6  A    between atoms: C_17  and  C_19
REMARK    7  A    between atoms: C_17  and  N_24
REMARK                            x       y       z     vdW  Elec       q    Type
REMARK                         _______ _______ _______ _____ _____    ______ ____
ROOT
ATOM      1  N   UNL     1      -0.409   1.293   4.740  0.00  0.00    -0.217 N 
ATOM      2  C   UNL     1      -0.394   1.982   5.898  0.00  0.00    +0.316 C 
ATOM      3  O   UNL     1      -0.317   3.195   5.883  0.00  0.00    -0.251 OA
ATOM      4  N   UNL     1      -0.464   1.325   7.074  0.00  0.00    -0.299 N 
ATOM      5  H   UNL     1      -0.358   1.765   3.894  0.00  0.00    +0.174 HD
ATOM      6  H   UNL     1      -0.525   0.357   7.086  0.00  0.00    +0.150 HD
ENDROOT
BRANCH   1  10
ATOM      7  N   UNL     1      -0.442  -0.138   2.424  0.00  0.00    -0.268 N 
ATOM      8  C   UNL     1      -0.512  -0.794   3.599  0.00  0.00    +0.320 C 
ATOM      9  O   UNL     1      -0.589  -2.008   3.615  0.00  0.00    -0.251 OA
ATOM     10  N   UNL     1      -0.497  -0.105   4.758  0.00  0.00    -0.217 N 
ATOM     11  H   UNL     1      -0.310   0.823   2.412  0.00  0.00    +0.156 HD
ATOM     12  H   UNL     1      -0.548  -0.578   5.603  0.00  0.00    +0.174 HD
BRANCH   7  19
ATOM     13  C   UNL     1      -1.736   1.141   0.237  0.00  0.00    +0.045 C 
ATOM     14  C   UNL     1      -1.183  -0.257   0.129  0.00  0.00    -0.029 A 
ATOM     15  C   UNL     1      -1.292  -0.953  -1.060  0.00  0.00    +0.005 A 
ATOM     16  C   UNL     1      -0.786  -2.236  -1.159  0.00  0.00    +0.000 A 
ATOM     17  C   UNL     1      -0.169  -2.825  -0.071  0.00  0.00    +0.002 A 
ATOM     18  C   UNL     1      -0.057  -2.134   1.119  0.00  0.00    +0.023 A 
ATOM     19  C   UNL     1      -0.559  -0.844   1.221  0.00  0.00    +0.038 A 
ENDBRANCH   7  19
ENDBRANCH   1  10
BRANCH   4  20
ATOM     20  C   UNL     1      -0.448   2.074   8.332  0.00  0.00    +0.098 C 
BRANCH  20  21
ATOM     21  C   UNL     1      -0.413   1.095   9.508  0.00  0.00    +0.016 C 
BRANCH  21  22
ATOM     22  N   UNL     1      -1.530   0.148   9.389  0.00  0.00    +0.387 N 
ATOM     23  C   UNL     1      -2.792   0.892   9.297  0.00  0.00    -0.078 C 
ATOM     24  C   UNL     1      -3.951  -0.087   9.092  0.00  0.00    -0.019 C 
ATOM     25  C   UNL     1      -4.011  -1.053  10.278  0.00  0.00    -0.004 C 
ATOM     26  C   UNL     1      -2.664  -1.769  10.411  0.00  0.00    -0.019 C 
ATOM     27  C   UNL     1      -1.553  -0.728  10.567  0.00  0.00    -0.078 C 
ATOM     28  H   UNL     1      -1.409  -0.410   8.558  0.00  0.00    -0.081 HD
ENDBRANCH  21  22
BRANCH  21  29
ATOM     29  C   UNL     1       0.890   0.339   9.493  0.00  0.00    +0.093 A 
ATOM     30  C   UNL     1       1.962   0.604  10.262  0.00  0.00    +0.043 A 
ATOM     31  C   UNL     1       2.954  -0.345   9.923  0.00  0.00    +0.041 A 
ATOM     32  C   UNL     1       2.429  -1.132   8.967  0.00  0.00    +0.195 A 
ATOM     33  O   UNL     1       1.177  -0.717   8.715  0.00  0.00    -0.469 OA
ENDBRANCH  21  29
ENDBRANCH  20  21
ENDBRANCH   4  20
TORSDOF 6
