REMARK  Name = ZINC39626999
REMARK  12 active torsions:
REMARK  status: ('A' for Active; 'I' for Inactive)
REMARK    1  A    between atoms: C_1  and  C_2
REMARK    2  A    between atoms: C_2  and  N_3
REMARK    3  A    between atoms: C_4  and  C_10
REMARK    4  A    between atoms: C_6  and  C_8
REMARK    5  A    between atoms: C_14  and  C_23
REMARK    6  A    between atoms: N_25  and  C_26
REMARK    7  A    between atoms: C_26  and  C_27
REMARK    8  A    between atoms: C_27  and  N_28
REMARK    9  A    between atoms: N_28  and  C_29
REMARK   10  A    between atoms: N_28  and  C_31
REMARK   11  A    between atoms: C_29  and  C_30
REMARK   12  A    between atoms: C_31  and  C_32
REMARK                            x       y       z     vdW  Elec       q    Type
REMARK                         _______ _______ _______ _____ _____    ______ ____
ROOT
ATOM      1  C   UNL     1      -0.486  -2.064  -1.113  0.00  0.00    +0.266 C 
ATOM      2  O   UNL     1      -1.285  -2.854  -0.649  0.00  0.00    -0.268 OA
ATOM      3  N   UNL     1       0.462  -1.522  -0.324  0.00  0.00    -0.295 N 
ATOM      4  C   UNL     1       1.565  -0.616  -0.721  0.00  0.00    +0.121 C 
ATOM      5  C   UNL     1       1.660   0.412   0.428  0.00  0.00    +0.100 C 
ATOM      6  C   UNL     1       1.051  -0.304   1.646  0.00  0.00    -0.004 C 
ATOM      7  C   UNL     1       0.633  -1.692   1.139  0.00  0.00    +0.115 C 
ATOM      8  C   UNL     1      -0.172   0.457   2.149  0.00  0.00    -0.010 C 
ATOM      9  C   UNL     1      -0.726  -0.242   3.393  0.00  0.00    -0.082 C 
ATOM     10  N   UNL     1       0.309  -0.287   4.433  0.00  0.00    +0.379 N 
ATOM     11  C   UNL     1       1.444  -1.099   3.976  0.00  0.00    -0.082 C 
ATOM     12  C   UNL     1       2.089  -0.436   2.756  0.00  0.00    -0.010 C 
ATOM     13  H   UNL     1       0.626   0.650   4.631  0.00  0.00    -0.086 HD
ATOM     14  H   UNL     1      -0.076  -0.694   5.272  0.00  0.00    -0.086 HD
ENDROOT
BRANCH   1  16
ATOM     15  N   UNL     1      -1.229  -0.642  -3.082  0.00  0.00    -0.258 N 
ATOM     16  C   UNL     1      -0.555  -1.700  -2.537  0.00  0.00    +0.138 A 
ATOM     17  C   UNL     1       0.051  -2.358  -3.594  0.00  0.00    +0.071 A 
ATOM     18  C   UNL     1      -0.309  -1.635  -4.735  0.00  0.00    +0.075 A 
ATOM     19  N   UNL     1      -1.068  -0.639  -4.356  0.00  0.00    -0.175 NA
ATOM     20  C   UNL     1       0.101  -1.950  -6.150  0.00  0.00    +0.069 C 
ATOM     21 BR   UNL     1       1.133  -3.906  -3.511  0.00  0.00    -0.046 Br
BRANCH  15  23
ATOM     22  C   UNL     1      -3.454  -0.178  -2.178  0.00  0.00    +0.029 C 
ATOM     23  C   UNL     1      -2.019   0.334  -2.328  0.00  0.00    +0.141 C 
ENDBRANCH  15  23
ENDBRANCH   1  16
BRANCH   5  24
ATOM     24  C   UNL     1       3.099   0.772   0.694  0.00  0.00    +0.218 C 
ATOM     25  O   UNL     1       3.970  -0.058   0.538  0.00  0.00    -0.275 OA
ATOM     26  N   UNL     1       3.418   2.015   1.106  0.00  0.00    -0.317 N 
ATOM     27  H   UNL     1       2.717   2.657   1.298  0.00  0.00    +0.149 HD
BRANCH  26  28
ATOM     28  C   UNL     1       4.824   2.396   1.263  0.00  0.00    +0.085 C 
BRANCH  28  29
ATOM     29  C   UNL     1       4.908   3.849   1.737  0.00  0.00    -0.060 C 
BRANCH  29  30
ATOM     30  N   UNL     1       6.318   4.231   1.895  0.00  0.00    +0.380 N 
ATOM     31  H   UNL     1       6.776   3.578   2.513  0.00  0.00    -0.082 HD
BRANCH  30  32
ATOM     32  C   UNL     1       6.981   4.210   0.584  0.00  0.00    -0.082 C 
ATOM     33  C   UNL     1       8.482   4.443   0.767  0.00  0.00    -0.017 C 
ENDBRANCH  30  32
BRANCH  30  34
ATOM     34  C   UNL     1       6.398   5.583   2.463  0.00  0.00    -0.082 C 
ATOM     35  C   UNL     1       5.815   5.577   3.877  0.00  0.00    -0.017 C 
ENDBRANCH  30  34
ENDBRANCH  29  30
ENDBRANCH  28  29
ENDBRANCH  26  28
ENDBRANCH   5  24
TORSDOF 8
