REMARK  Name = ZINC63405433
REMARK  12 active torsions:
REMARK  status: ('A' for Active; 'I' for Inactive)
REMARK    1  A    between atoms: C_1  and  C_2
REMARK    2  A    between atoms: C_2  and  N_3
REMARK    3  A    between atoms: N_3  and  C_4
REMARK    4  A    between atoms: N_3  and  C_19
REMARK    5  A    between atoms: C_4  and  C_5
REMARK    6  A    between atoms: N_7  and  C_8
REMARK    7  A    between atoms: C_8  and  C_9
REMARK    8  A    between atoms: C_9  and  C_10
REMARK    9  A    between atoms: C_19  and  C_20
REMARK   10  A    between atoms: N_22  and  C_23
REMARK   11  A    between atoms: C_27  and  O_29
REMARK   12  A    between atoms: O_29  and  C_30
REMARK                            x       y       z     vdW  Elec       q    Type
REMARK                         _______ _______ _______ _____ _____    ______ ____
ROOT
ATOM      1  N   UNL     1       0.811  -0.488   1.125  0.00  0.00    +0.391 N 
ATOM      2  H   UNL     1       1.681   0.022   1.104  0.00  0.00    -0.080 HD
ENDROOT
BRANCH   1   4
ATOM      3  C   UNL     1      -0.195   1.454   0.025  0.00  0.00    -0.017 C 
ATOM      4  C   UNL     1      -0.031  -0.067  -0.002  0.00  0.00    -0.081 C 
ENDBRANCH   1   4
BRANCH   1   5
ATOM      5  C   UNL     1       1.084  -1.927   1.021  0.00  0.00    +0.019 C 
BRANCH   5   6
ATOM      6  C   UNL     1       1.907  -2.195  -0.213  0.00  0.00    +0.196 C 
ATOM      7  O   UNL     1       2.234  -1.276  -0.934  0.00  0.00    -0.278 OA
ATOM      8  N   UNL     1       2.280  -3.454  -0.514  0.00  0.00    -0.317 N 
ATOM      9  H   UNL     1       2.019  -4.189   0.063  0.00  0.00    +0.149 HD
BRANCH   8  10
ATOM     10  C   UNL     1       3.080  -3.714  -1.714  0.00  0.00    +0.108 C 
BRANCH  10  11
ATOM     11  C   UNL     1       3.365  -5.213  -1.823  0.00  0.00    +0.052 C 
BRANCH  11  12
ATOM     12  C   UNL     1       4.187  -5.480  -3.056  0.00  0.00    -0.040 C 
ATOM     13  C   UNL     1       5.533  -5.592  -3.128  0.00  0.00    -0.001 A 
ATOM     14  C   UNL     1       6.594  -5.501  -2.117  0.00  0.00    +0.010 A 
ATOM     15  C   UNL     1       7.881  -5.660  -2.500  0.00  0.00    +0.001 A 
ATOM     16  C   UNL     1       8.227  -5.909  -3.836  0.00  0.00    +0.002 A 
ATOM     17  C   UNL     1       7.309  -6.006  -4.821  0.00  0.00    +0.026 A 
ATOM     18  C   UNL     1       5.925  -5.856  -4.531  0.00  0.00    +0.043 A 
ATOM     19  N   UNL     1       4.862  -5.906  -5.297  0.00  0.00    -0.380 N 
ATOM     20  C   UNL     1       3.675  -5.684  -4.465  0.00  0.00    +0.144 C 
ATOM     21  H   UNL     1       4.861  -6.066  -6.254  0.00  0.00    +0.160 HD
ENDBRANCH  11  12
ENDBRANCH  10  11
ENDBRANCH   8  10
ENDBRANCH   5   6
ENDBRANCH   1   5
BRANCH   1  22
ATOM     22  C   UNL     1       0.113  -0.212   2.388  0.00  0.00    +0.020 C 
BRANCH  22  23
ATOM     23  C   UNL     1       1.042  -0.477   3.544  0.00  0.00    +0.201 C 
ATOM     24  O   UNL     1       2.151  -0.926   3.341  0.00  0.00    -0.278 OA
ATOM     25  N   UNL     1       0.642  -0.216   4.804  0.00  0.00    -0.287 N 
ATOM     26  H   UNL     1      -0.268   0.075   4.974  0.00  0.00    +0.155 HD
BRANCH  25  27
ATOM     27  C   UNL     1       1.538  -0.367   5.869  0.00  0.00    +0.037 A 
ATOM     28  C   UNL     1       2.884  -0.074   5.691  0.00  0.00    +0.023 A 
ATOM     29  C   UNL     1       3.769  -0.222   6.741  0.00  0.00    +0.005 A 
ATOM     30  C   UNL     1       3.317  -0.662   7.971  0.00  0.00    +0.046 A 
ATOM     31  C   UNL     1       1.974  -0.957   8.154  0.00  0.00    +0.122 A 
ATOM     32  C   UNL     1       1.082  -0.803   7.104  0.00  0.00    +0.069 A 
BRANCH  31  33
ATOM     33  O   UNL     1       1.532  -1.390   9.364  0.00  0.00    -0.495 OA
ATOM     34  C   UNL     1       2.505  -1.520  10.402  0.00  0.00    +0.277 C 
ENDBRANCH  31  33
ENDBRANCH  25  27
ENDBRANCH  22  23
ENDBRANCH   1  22
TORSDOF 10
