REMARK  Name = ZINC63465855
REMARK  10 active torsions:
REMARK  status: ('A' for Active; 'I' for Inactive)
REMARK    1  A    between atoms: C_1  and  C_2
REMARK    2  A    between atoms: C_2  and  C_3
REMARK    3  A    between atoms: C_2  and  N_4
REMARK    4  A    between atoms: N_4  and  C_5
REMARK    5  A    between atoms: N_4  and  C_6
REMARK    6  A    between atoms: C_6  and  C_7
REMARK    7  A    between atoms: N_9  and  C_10
REMARK    8  A    between atoms: C_13  and  N_16
REMARK    9  A    between atoms: N_19  and  C_20
REMARK   10  A    between atoms: C_20  and  C_21
REMARK                            x       y       z     vdW  Elec       q    Type
REMARK                         _______ _______ _______ _____ _____    ______ ____
ROOT
ATOM      1  C   UNL     1      -5.739  -0.420  -1.942  0.00  0.00    +0.033 A 
ATOM      2  C   UNL     1      -6.158  -1.072  -0.790  0.00  0.00    +0.025 A 
ATOM      3  C   UNL     1      -7.487  -1.411  -0.633  0.00  0.00    +0.025 A 
ATOM      4  C   UNL     1      -8.405  -1.100  -1.627  0.00  0.00    +0.035 A 
ATOM      5  C   UNL     1      -7.986  -0.448  -2.779  0.00  0.00    +0.025 A 
ATOM      6  C   UNL     1      -6.658  -0.103  -2.934  0.00  0.00    +0.025 A 
ENDROOT
BRANCH   4   7
ATOM      7  N   UNL     1      -9.754  -1.444  -1.468  0.00  0.00    -0.269 N 
ATOM      8  C   UNL     1     -10.484  -1.820  -2.537  0.00  0.00    +0.304 C 
ATOM      9  O   UNL     1      -9.997  -1.780  -3.650  0.00  0.00    -0.252 OA
ATOM     10  N   UNL     1     -11.754  -2.240  -2.371  0.00  0.00    -0.292 N 
ATOM     11  H   UNL     1     -10.162  -1.413  -0.589  0.00  0.00    +0.156 HD
ATOM     12  H   UNL     1     -12.142  -2.272  -1.483  0.00  0.00    +0.151 HD
BRANCH  10  13
ATOM     13  C   UNL     1     -12.547  -2.648  -3.533  0.00  0.00    +0.180 C 
BRANCH  13  14
ATOM     14  C   UNL     1     -13.921  -3.071  -3.079  0.00  0.00    +0.122 A 
ATOM     15  C   UNL     1     -14.994  -2.268  -2.965  0.00  0.00    +0.046 A 
ATOM     16  C   UNL     1     -16.063  -3.074  -2.511  0.00  0.00    +0.041 A 
ATOM     17  C   UNL     1     -15.579  -4.322  -2.374  0.00  0.00    +0.195 A 
ATOM     18  O   UNL     1     -14.283  -4.315  -2.725  0.00  0.00    -0.466 OA
ENDBRANCH  13  14
ENDBRANCH  10  13
ENDBRANCH   4   7
BRANCH   1  21
ATOM     19  C   UNL     1      -4.056   1.067  -2.732  0.00  0.00    +0.201 C 
ATOM     20  O   UNL     1      -4.918   1.756  -3.236  0.00  0.00    -0.278 OA
ATOM     21  N   UNL     1      -4.390  -0.076  -2.101  0.00  0.00    -0.287 N 
ATOM     22  H   UNL     1      -3.697  -0.661  -1.758  0.00  0.00    +0.155 HD
BRANCH  19  23
ATOM     23  C   UNL     1      -2.612   1.489  -2.813  0.00  0.00    +0.019 C 
BRANCH  23  24
ATOM     24  N   UNL     1      -2.513   2.758  -3.545  0.00  0.00    +0.385 N 
ATOM     25  C   UNL     1      -3.185   3.818  -2.781  0.00  0.00    -0.095 C 
ATOM     26  H   UNL     1      -2.954   2.662  -4.447  0.00  0.00    -0.081 HD
BRANCH  24  28
ATOM     27  C   UNL     1      -0.397   2.006  -4.523  0.00  0.00    -0.014 C 
ATOM     28  C   UNL     1      -1.098   3.109  -3.728  0.00  0.00    -0.075 C 
ATOM     29  C   UNL     1      -0.994   4.431  -4.490  0.00  0.00    -0.014 C 
ENDBRANCH  24  28
ENDBRANCH  23  24
ENDBRANCH  19  23
ENDBRANCH   1  21
TORSDOF 7
