REMARK  Name = ZINC35924689
REMARK  13 active torsions:
REMARK  status: ('A' for Active; 'I' for Inactive)
REMARK    1  A    between atoms: C_1  and  C_2
REMARK    2  A    between atoms: C_2  and  C_3
REMARK    3  A    between atoms: C_3  and  C_4
REMARK    4  A    between atoms: C_4  and  C_5
REMARK    5  A    between atoms: C_9  and  C_18
REMARK    6  A    between atoms: N_11  and  C_12
REMARK    7  A    between atoms: C_19  and  N_21
REMARK    8  A    between atoms: N_24  and  C_27
REMARK    9  A    between atoms: C_27  and  C_28
REMARK   10  A    between atoms: C_31  and  O_36
REMARK   11  A    between atoms: C_33  and  O_34
REMARK   12  A    between atoms: O_34  and  C_35
REMARK   13  A    between atoms: O_36  and  C_37
REMARK                            x       y       z     vdW  Elec       q    Type
REMARK                         _______ _______ _______ _____ _____    ______ ____
ROOT
ATOM      1  C   UNL     1      -4.155  -1.860   0.563  0.00  0.00    +0.134 A 
ATOM      2  N   UNL     1      -3.454  -2.778   1.192  0.00  0.00    -0.212 NA
ATOM      3  C   UNL     1      -3.310  -3.996   0.673  0.00  0.00    +0.169 A 
ATOM      4  C   UNL     1      -3.922  -4.285  -0.562  0.00  0.00    +0.082 A 
ATOM      5  C   UNL     1      -3.612  -5.627  -0.873  0.00  0.00    +0.073 A 
ATOM      6  N   UNL     1      -2.877  -6.115   0.086  0.00  0.00    -0.169 NA
ATOM      7  N   UNL     1      -2.667  -5.136   1.065  0.00  0.00    -0.214 N 
ATOM      8  C   UNL     1      -4.056  -6.370  -2.107  0.00  0.00    +0.068 C 
ATOM      9  C   UNL     1      -4.661  -3.268  -1.195  0.00  0.00    +0.136 A 
ATOM     10  N   UNL     1      -4.750  -2.086  -0.595  0.00  0.00    -0.217 NA
ENDROOT
BRANCH   9  11
ATOM     11  N   UNL     1      -5.282  -3.494  -2.408  0.00  0.00    -0.318 N 
ATOM     12  C   UNL     1      -6.698  -3.886  -2.471  0.00  0.00    +0.088 C 
ATOM     13  C   UNL     1      -7.414  -2.965  -3.465  0.00  0.00    -0.059 C 
ATOM     14  N   UNL     1      -6.716  -3.004  -4.756  0.00  0.00    +0.384 N 
ATOM     15  C   UNL     1      -5.363  -2.453  -4.611  0.00  0.00    -0.059 C 
ATOM     16  C   UNL     1      -4.547  -3.343  -3.674  0.00  0.00    +0.088 C 
ATOM     17  H   UNL     1      -6.656  -3.959  -5.076  0.00  0.00    -0.081 HD
BRANCH  14  18
ATOM     18  C   UNL     1      -7.464  -2.209  -5.739  0.00  0.00    -0.039 C 
BRANCH  18  19
ATOM     19  C   UNL     1      -6.818  -2.347  -7.093  0.00  0.00    -0.022 A 
ATOM     20  C   UNL     1      -5.975  -1.356  -7.561  0.00  0.00    +0.009 A 
ATOM     21  C   UNL     1      -5.381  -1.480  -8.802  0.00  0.00    +0.046 A 
ATOM     22  C   UNL     1      -5.630  -2.601  -9.583  0.00  0.00    +0.124 A 
ATOM     23  C   UNL     1      -6.474  -3.596  -9.116  0.00  0.00    +0.091 A 
ATOM     24  C   UNL     1      -7.064  -3.472  -7.867  0.00  0.00    +0.125 A 
BRANCH  24  25
ATOM     25  O   UNL     1      -7.888  -4.449  -7.404  0.00  0.00    -0.495 OA
ATOM     26  C   UNL     1      -8.097  -5.578  -8.255  0.00  0.00    +0.277 C 
ENDBRANCH  24  25
BRANCH  22  27
ATOM     27  O   UNL     1      -5.046  -2.722 -10.804  0.00  0.00    -0.495 OA
ATOM     28  C   UNL     1      -4.188  -1.658 -11.221  0.00  0.00    +0.277 C 
ENDBRANCH  22  27
ENDBRANCH  18  19
ENDBRANCH  14  18
ENDBRANCH   9  11
BRANCH   7  29
ATOM     29  C   UNL     1      -1.925  -5.297   2.241  0.00  0.00    +0.068 A 
ATOM     30  C   UNL     1      -1.188  -4.236   2.750  0.00  0.00    +0.028 A 
ATOM     31  C   UNL     1      -0.457  -4.398   3.911  0.00  0.00    +0.002 A 
ATOM     32  C   UNL     1      -0.460  -5.615   4.567  0.00  0.00    +0.000 A 
ATOM     33  C   UNL     1      -1.192  -6.674   4.063  0.00  0.00    +0.002 A 
ATOM     34  C   UNL     1      -1.930  -6.517   2.905  0.00  0.00    +0.028 A 
ENDBRANCH   7  29
BRANCH   1  35
ATOM     35  C   UNL     1      -4.289  -0.497   1.191  0.00  0.00    +0.076 C 
BRANCH  35  36
ATOM     36  C   UNL     1      -5.521  -0.472   2.099  0.00  0.00    +0.007 C 
BRANCH  36  38
ATOM     37  C   UNL     1      -6.888   0.936   3.645  0.00  0.00    +0.004 C 
ATOM     38  C   UNL     1      -5.657   0.912   2.737  0.00  0.00    -0.003 C 
ENDBRANCH  36  38
ENDBRANCH  35  36
ENDBRANCH   1  35
TORSDOF 9
