REMARK  Name = ZINC05810460
REMARK  9 active torsions:
REMARK  status: ('A' for Active; 'I' for Inactive)
REMARK    1  A    between atoms: C_1  and  C_2
REMARK    2  A    between atoms: C_3  and  C_10
REMARK    3  A    between atoms: C_5  and  C_7
REMARK    4  A    between atoms: C_7  and  N_9
REMARK    5  A    between atoms: C_10  and  C_12
REMARK    6  A    between atoms: C_13  and  C_14
REMARK    7  A    between atoms: C_18  and  O_21
REMARK    8  A    between atoms: C_19  and  O_20
REMARK    9  A    between atoms: O_21  and  C_22
REMARK                            x       y       z     vdW  Elec       q    Type
REMARK                         _______ _______ _______ _____ _____    ______ ____
ROOT
ATOM      1  C   UNL     1       3.623   3.523   0.089  0.00  0.00    +0.194 C 
ATOM      2  O   UNL     1       3.638   2.320  -0.101  0.00  0.00    -0.287 OA
ENDROOT
BRANCH   1   5
ATOM      3  C   UNL     1       6.494   2.311   0.121  0.00  0.00    +0.067 C 
ATOM      4  C   UNL     1       6.193   3.773   0.328  0.00  0.00    +0.057 A 
ATOM      5  C   UNL     1       4.884   4.250   0.302  0.00  0.00    +0.082 A 
ATOM      6  S   UNL     1       5.164   5.991   0.591  0.00  0.00    -0.062 S 
ATOM      7  C   UNL     1       6.895   5.923   0.723  0.00  0.00    +0.130 A 
ATOM      8  N   UNL     1       7.147   4.634   0.539  0.00  0.00    -0.242 NA
BRANCH   7   9
ATOM      9  C   UNL     1       7.844   7.022   0.971  0.00  0.00    +0.102 C 
ATOM     10  S   UNL     1       9.523   6.700   1.050  0.00  0.00    -0.033 S 
BRANCH   9  11
ATOM     11  N   UNL     1       7.390   8.280   1.134  0.00  0.00    -0.350 N 
ATOM     12  H   UNL     1       6.438   8.462   1.089  0.00  0.00    +0.143 HD
ATOM     13  H   UNL     1       8.015   9.004   1.298  0.00  0.00    +0.143 HD
ENDBRANCH   9  11
ENDBRANCH   7   9
ENDBRANCH   1   5
BRANCH   1  14
ATOM     14  C   UNL     1       2.352   4.245   0.104  0.00  0.00    +0.053 C 
ATOM     15  C   UNL     1       1.207   3.604  -0.220  0.00  0.00    +0.015 C 
BRANCH  15  16
ATOM     16  C   UNL     1       1.259   2.255  -0.797  0.00  0.00    +0.020 A 
ATOM     17  C   UNL     1       2.104   1.984  -1.881  0.00  0.00    +0.012 A 
ATOM     18  C   UNL     1       2.149   0.718  -2.419  0.00  0.00    +0.004 A 
ATOM     19  C   UNL     1       1.361  -0.295  -1.895  0.00  0.00    +0.049 A 
ATOM     20  C   UNL     1       0.519  -0.044  -0.824  0.00  0.00    +0.162 A 
ATOM     21  C   UNL     1       0.461   1.230  -0.268  0.00  0.00    +0.166 A 
BRANCH  21  22
ATOM     22  O   UNL     1      -0.367   1.480   0.779  0.00  0.00    -0.503 OA
ATOM     23  H   UNL     1       0.039   1.337   1.645  0.00  0.00    +0.292 HD
ENDBRANCH  21  22
BRANCH  20  24
ATOM     24  O   UNL     1      -0.251  -1.043  -0.316  0.00  0.00    -0.491 OA
ATOM     25  C   UNL     1      -0.141  -2.326  -0.936  0.00  0.00    +0.277 C 
ENDBRANCH  20  24
ENDBRANCH  15  16
ENDBRANCH   1  14
TORSDOF 7
