REMARK  Name = ZINC16424068
REMARK  8 active torsions:
REMARK  status: ('A' for Active; 'I' for Inactive)
REMARK    1  A    between atoms: C_4  and  O_7
REMARK    2  A    between atoms: O_7  and  C_8
REMARK    3  A    between atoms: C_11  and  N_14
REMARK    4  A    between atoms: N_14  and  C_15
REMARK    5  A    between atoms: C_15  and  C_16
REMARK    6  A    between atoms: C_16  and  C_17
REMARK    7  A    between atoms: C_17  and  N_50
REMARK    8  A    between atoms: N_20  and  C_21
REMARK                            x       y       z     vdW  Elec       q    Type
REMARK                         _______ _______ _______ _____ _____    ______ ____
ROOT
ATOM      1  N   UNL     1      -5.141   7.387   0.266  0.00  0.00    -0.255 N 
ATOM      2  C   UNL     1      -5.306   8.720   0.162  0.00  0.00    +0.311 C 
ATOM      3  O   UNL     1      -4.335   9.450   0.094  0.00  0.00    -0.252 OA
ATOM      4  N   UNL     1      -6.547   9.246   0.133  0.00  0.00    -0.269 N 
ATOM      5  H   UNL     1      -7.319   8.675   0.272  0.00  0.00    +0.156 HD
ENDROOT
BRANCH   4   6
ATOM      6  C   UNL     1      -6.722  10.615  -0.097  0.00  0.00    +0.036 A 
ATOM      7  C   UNL     1      -7.760  11.298   0.524  0.00  0.00    +0.025 A 
ATOM      8  C   UNL     1      -7.927  12.651   0.301  0.00  0.00    +0.023 A 
ATOM      9  C   UNL     1      -7.069  13.324  -0.551  0.00  0.00    +0.059 A 
ATOM     10  C   UNL     1      -6.037  12.645  -1.177  0.00  0.00    +0.061 A 
ATOM     11  C   UNL     1      -5.862  11.292  -0.952  0.00  0.00    +0.044 A 
ATOM     12 CL   UNL     1      -4.963  13.493  -2.244  0.00  0.00    -0.082 Cl
ATOM     13 CL   UNL     1      -7.287  15.023  -0.836  0.00  0.00    -0.082 Cl
ENDBRANCH   4   6
BRANCH   1  17
ATOM     14  C   UNL     1      -1.318   5.736   0.058  0.00  0.00    +0.129 A 
ATOM     15  C   UNL     1      -1.660   6.561   1.120  0.00  0.00    +0.048 A 
ATOM     16  C   UNL     1      -2.924   7.112   1.186  0.00  0.00    +0.027 A 
ATOM     17  C   UNL     1      -3.856   6.832   0.196  0.00  0.00    +0.038 A 
ATOM     18  C   UNL     1      -3.515   6.002  -0.864  0.00  0.00    +0.027 A 
ATOM     19  C   UNL     1      -2.249   5.456  -0.932  0.00  0.00    +0.048 A 
BRANCH  14  20
ATOM     20  O   UNL     1      -0.071   5.197  -0.009  0.00  0.00    -0.456 OA
BRANCH  20  24
ATOM     21  C   UNL     1       2.484   5.820   3.169  0.00  0.00    +0.000 A 
ATOM     22  C   UNL     1       2.765   6.381   1.937  0.00  0.00    +0.004 A 
ATOM     23  C   UNL     1       1.914   6.169   0.870  0.00  0.00    +0.046 A 
ATOM     24  C   UNL     1       0.770   5.402   1.038  0.00  0.00    +0.128 A 
ATOM     25  C   UNL     1       0.487   4.845   2.276  0.00  0.00    +0.046 A 
ATOM     26  C   UNL     1       1.344   5.055   3.339  0.00  0.00    +0.004 A 
ENDBRANCH  20  24
ENDBRANCH  14  20
ENDBRANCH   1  17
BRANCH   1  27
ATOM     27  C   UNL     1      -6.305   6.517   0.452  0.00  0.00    +0.113 C 
BRANCH  27  28
ATOM     28  C   UNL     1      -6.577   6.342   1.948  0.00  0.00    -0.000 C 
BRANCH  28  29
ATOM     29  C   UNL     1      -7.793   5.434   2.142  0.00  0.00    -0.085 C 
BRANCH  29  32
ATOM     30  H   UNL     1      -8.853   4.670   3.733  0.00  0.00    -0.090 HD
ATOM     31  H   UNL     1      -7.239   4.910   4.054  0.00  0.00    -0.090 HD
ATOM     32  N   UNL     1      -8.059   5.290   3.584  0.00  0.00    +0.378 N 
ATOM     33  H   UNL     1      -8.275   6.212   3.981  0.00  0.00    -0.090 HD
ENDBRANCH  29  32
ENDBRANCH  28  29
ENDBRANCH  27  28
ENDBRANCH   1  27
TORSDOF 8
