REMARK  Name = ZINC64229529
REMARK  10 active torsions:
REMARK  status: ('A' for Active; 'I' for Inactive)
REMARK    1  A    between atoms: C_1  and  C_2
REMARK    2  A    between atoms: C_2  and  N_3
REMARK    3  A    between atoms: N_3  and  C_4
REMARK    4  A    between atoms: N_3  and  C_5
REMARK    5  A    between atoms: C_5  and  C_6
REMARK    6  A    between atoms: C_10  and  C_12
REMARK    7  A    between atoms: C_12  and  N_13
REMARK    8  A    between atoms: N_16  and  N_17
REMARK    9  A    between atoms: N_20  and  C_21
REMARK   10  A    between atoms: C_26  and  C_27
REMARK                            x       y       z     vdW  Elec       q    Type
REMARK                         _______ _______ _______ _____ _____    ______ ____
ROOT
ATOM      1  N   UNL     1      -6.345  -2.489  -2.427  0.00  0.00    -0.294 N 
ATOM      2  C   UNL     1      -7.122  -2.576  -3.525  0.00  0.00    +0.316 C 
ATOM      3  O   UNL     1      -7.224  -3.634  -4.115  0.00  0.00    -0.251 OA
ATOM      4  N   UNL     1      -7.787  -1.490  -3.968  0.00  0.00    -0.217 N 
ATOM      5  H   UNL     1      -6.264  -1.645  -1.956  0.00  0.00    +0.151 HD
ATOM      6  H   UNL     1      -8.346  -1.553  -4.758  0.00  0.00    +0.174 HD
ENDROOT
BRANCH   4   7
ATOM      7  N   UNL     1      -7.670  -0.271  -3.287  0.00  0.00    -0.217 N 
ATOM      8  C   UNL     1      -8.335   0.814  -3.730  0.00  0.00    +0.320 C 
ATOM      9  O   UNL     1      -8.234   1.872  -3.139  0.00  0.00    -0.251 OA
ATOM     10  N   UNL     1      -9.112   0.727  -4.828  0.00  0.00    -0.268 N 
ATOM     11  H   UNL     1      -7.111  -0.209  -2.497  0.00  0.00    +0.174 HD
ATOM     12  H   UNL     1      -9.130  -0.093  -5.346  0.00  0.00    +0.156 HD
BRANCH  10  13
ATOM     13  C   UNL     1      -9.894   1.819  -5.220  0.00  0.00    +0.038 A 
ATOM     14  C   UNL     1     -10.289   2.765  -4.282  0.00  0.00    +0.023 A 
ATOM     15  C   UNL     1     -11.061   3.841  -4.672  0.00  0.00    +0.002 A 
ATOM     16  C   UNL     1     -11.441   3.979  -5.995  0.00  0.00    +0.000 A 
ATOM     17  C   UNL     1     -11.049   3.039  -6.931  0.00  0.00    +0.005 A 
ATOM     18  C   UNL     1     -10.272   1.964  -6.548  0.00  0.00    -0.029 A 
ATOM     19  C   UNL     1      -9.839   0.944  -7.570  0.00  0.00    +0.045 C 
ENDBRANCH  10  13
ENDBRANCH   4   7
BRANCH   1  20
ATOM     20  C   UNL     1      -5.623  -3.669  -1.946  0.00  0.00    +0.141 C 
BRANCH  20  25
ATOM     21  C   UNL     1      -2.811  -2.517   0.295  0.00  0.00    -0.064 A 
ATOM     22  C   UNL     1      -3.385  -2.643   1.546  0.00  0.00    +0.002 A 
ATOM     23  C   UNL     1      -4.683  -3.102   1.667  0.00  0.00    +0.001 A 
ATOM     24  C   UNL     1      -5.408  -3.434   0.537  0.00  0.00    +0.005 A 
ATOM     25  C   UNL     1      -4.833  -3.307  -0.714  0.00  0.00    -0.030 A 
ATOM     26  C   UNL     1      -3.536  -2.844  -0.835  0.00  0.00    +0.007 A 
BRANCH  21  27
ATOM     27  C   UNL     1      -1.395  -2.017   0.163  0.00  0.00    -0.043 C 
BRANCH  27  28
ATOM     28  N   UNL     1      -1.402  -0.553   0.043  0.00  0.00    +0.380 N 
ATOM     29  C   UNL     1      -2.069  -0.167  -1.208  0.00  0.00    -0.096 C 
ATOM     30  H   UNL     1      -1.898  -0.154   0.826  0.00  0.00    -0.082 HD
BRANCH  28  32
ATOM     31  C   UNL     1      -0.028   1.474   0.036  0.00  0.00    -0.017 C 
ATOM     32  C   UNL     1      -0.020  -0.056   0.035  0.00  0.00    -0.082 C 
ENDBRANCH  28  32
ENDBRANCH  27  28
ENDBRANCH  21  27
ENDBRANCH  20  25
ENDBRANCH   1  20
TORSDOF 7
