REMARK  Name = ZINC00780167
REMARK  7 active torsions:
REMARK  status: ('A' for Active; 'I' for Inactive)
REMARK    1  A    between atoms: N_7  and  C_23
REMARK    2  A    between atoms: N_9  and  C_10
REMARK    3  A    between atoms: C_10  and  C_11
REMARK    4  A    between atoms: C_11  and  C_13
REMARK    5  A    between atoms: C_11  and  O_22
REMARK    6  A    between atoms: C_23  and  C_24
REMARK    7  A    between atoms: C_24  and  N_59
REMARK                            x       y       z     vdW  Elec       q    Type
REMARK                         _______ _______ _______ _____ _____    ______ ____
ROOT
ATOM      1  C   UNL     1      -1.074  -4.496  -0.014  0.00  0.00    +0.002 A 
ATOM      2  C   UNL     1      -2.397  -4.090   0.002  0.00  0.00    +0.002 A 
ATOM      3  C   UNL     1      -2.712  -2.746   0.013  0.00  0.00    +0.028 A 
ATOM      4  C   UNL     1      -1.699  -1.798   0.009  0.00  0.00    +0.068 A 
ATOM      5  C   UNL     1      -0.365  -2.207  -0.006  0.00  0.00    +0.068 A 
ATOM      6  C   UNL     1      -0.059  -3.560  -0.018  0.00  0.00    +0.028 A 
ATOM      7  N   UNL     1       0.424  -1.057  -0.014  0.00  0.00    -0.313 N 
ATOM      8  C   UNL     1      -0.408   0.033   0.006  0.00  0.00    +0.183 A 
ATOM      9  N   UNL     1      -1.708  -0.403   0.016  0.00  0.00    -0.309 N 
ATOM     10  H   UNL     1       0.897   1.600   0.002  0.00  0.00    +0.159 HD
ATOM     11  N   UNL     1      -0.084   1.321   0.010  0.00  0.00    -0.371 N 
ATOM     12  H   UNL     1      -0.821   2.036   0.021  0.00  0.00    +0.159 HD
ENDROOT
BRANCH   9  13
ATOM     13  C   UNL     1      -2.900   0.448   0.033  0.00  0.00    +0.161 C 
BRANCH  13  14
ATOM     14  C   UNL     1      -3.330   0.753  -1.404  0.00  0.00    +0.164 C 
BRANCH  14  15
ATOM     15  C   UNL     1      -4.624   1.525  -1.388  0.00  0.00    -0.014 A 
ATOM     16  C   UNL     1      -4.605   2.899  -1.242  0.00  0.00    +0.010 A 
ATOM     17  C   UNL     1      -5.790   3.612  -1.228  0.00  0.00    +0.050 A 
ATOM     18  C   UNL     1      -6.999   2.950  -1.361  0.00  0.00    +0.166 A 
ATOM     19  C   UNL     1      -7.018   1.565  -1.507  0.00  0.00    +0.167 A 
ATOM     20  C   UNL     1      -5.827   0.857  -1.526  0.00  0.00    +0.055 A 
ATOM     21  O   UNL     1      -8.316   1.155  -1.617  0.00  0.00    -0.453 OA
ATOM     22  C   UNL     1      -9.108   2.253  -1.128  0.00  0.00    +0.466 C 
ATOM     23  O   UNL     1      -8.285   3.408  -1.379  0.00  0.00    -0.453 OA
ENDBRANCH  14  15
BRANCH  14  24
ATOM     24  O   UNL     1      -2.319   1.530  -2.048  0.00  0.00    -0.385 OA
ATOM     25  H   UNL     1      -2.140   2.377  -1.618  0.00  0.00    +0.210 HD
ENDBRANCH  14  24
ENDBRANCH  13  14
ENDBRANCH   9  13
BRANCH   7  26
ATOM     26  C   UNL     1       1.888  -1.021  -0.035  0.00  0.00    +0.107 C 
BRANCH  26  27
ATOM     27  C   UNL     1       2.419  -1.019   1.400  0.00  0.00    -0.057 C 
BRANCH  27  33
ATOM     28  C   UNL     1       4.436  -2.215   0.799  0.00  0.00    -0.079 C 
ATOM     29  C   UNL     1       5.955  -2.082   0.659  0.00  0.00    -0.019 C 
ATOM     30  C   UNL     1       6.569  -1.827   2.038  0.00  0.00    -0.004 C 
ATOM     31  C   UNL     1       5.946  -0.565   2.640  0.00  0.00    -0.019 C 
ATOM     32  C   UNL     1       4.428  -0.741   2.723  0.00  0.00    -0.079 C 
ATOM     33  N   UNL     1       3.895  -0.959   1.361  0.00  0.00    +0.381 N 
ATOM     34  H   UNL     1       4.181  -0.176   0.762  0.00  0.00    -0.082 HD
ENDBRANCH  27  33
ENDBRANCH  26  27
ENDBRANCH   7  26
TORSDOF 7
