REMARK  Name = ZINC59350302
REMARK  12 active torsions:
REMARK  status: ('A' for Active; 'I' for Inactive)
REMARK    1  A    between atoms: C_1  and  C_2
REMARK    2  A    between atoms: C_2  and  C_3
REMARK    3  A    between atoms: C_3  and  N_4
REMARK    4  A    between atoms: N_4  and  C_5
REMARK    5  A    between atoms: N_4  and  C_20
REMARK    6  A    between atoms: C_5  and  C_6
REMARK    7  A    between atoms: N_8  and  C_9
REMARK    8  A    between atoms: C_9  and  C_10
REMARK    9  A    between atoms: C_13  and  S_16
REMARK   10  A    between atoms: S_16  and  N_19
REMARK   11  A    between atoms: C_20  and  C_22
REMARK   12  A    between atoms: C_20  and  C_23
REMARK                            x       y       z     vdW  Elec       q    Type
REMARK                         _______ _______ _______ _____ _____    ______ ____
ROOT
ATOM      1  C   UNL     1       0.008  -2.836   3.306  0.00  0.00    +0.197 C 
ATOM      2  O   UNL     1      -1.055  -2.308   3.059  0.00  0.00    -0.278 OA
ATOM      3  N   UNL     1       0.221  -3.389   4.516  0.00  0.00    -0.313 N 
ATOM      4  H   UNL     1       1.071  -3.812   4.714  0.00  0.00    +0.149 HD
ENDROOT
BRANCH   1   5
ATOM      5  C   UNL     1       1.092  -2.874   2.260  0.00  0.00    +0.019 C 
BRANCH   5   6
ATOM      6  N   UNL     1       0.617  -2.209   1.038  0.00  0.00    +0.390 N 
ATOM      7  H   UNL     1      -0.247  -2.635   0.738  0.00  0.00    -0.080 HD
BRANCH   6   8
ATOM      8  C   UNL     1       1.626  -2.350  -0.020  0.00  0.00    -0.040 C 
ATOM      9  C   UNL     1       1.142  -1.636  -1.284  0.00  0.00    -0.008 C 
BRANCH   8  10
ATOM     10  C   UNL     1       1.839  -3.812  -0.320  0.00  0.00    -0.060 A 
ATOM     11  C   UNL     1       0.758  -4.673  -0.359  0.00  0.00    +0.003 A 
ATOM     12  C   UNL     1       0.953  -6.014  -0.633  0.00  0.00    +0.021 A 
ATOM     13  C   UNL     1       2.229  -6.494  -0.869  0.00  0.00    +0.059 A 
ATOM     14  C   UNL     1       3.310  -5.631  -0.830  0.00  0.00    +0.059 A 
ATOM     15  C   UNL     1       3.114  -4.288  -0.561  0.00  0.00    +0.023 A 
ATOM     16 CL   UNL     1       4.912  -6.232  -1.125  0.00  0.00    -0.082 Cl
ATOM     17 CL   UNL     1       2.473  -8.178  -1.213  0.00  0.00    -0.082 Cl
ENDBRANCH   8  10
ENDBRANCH   6   8
BRANCH   6  18
ATOM     18  C   UNL     1       0.391  -0.784   1.313  0.00  0.00    -0.078 C 
BRANCH  18  20
ATOM     19  C   UNL     1       1.481   1.363   1.980  0.00  0.00    +0.002 C 
ATOM     20  C   UNL     1       1.722  -0.113   1.654  0.00  0.00    -0.022 C 
ENDBRANCH  18  20
ENDBRANCH   6  18
ENDBRANCH   5   6
ENDBRANCH   1   5
BRANCH   3  21
ATOM     21  C   UNL     1      -0.833  -3.353   5.534  0.00  0.00    +0.139 C 
BRANCH  21  22
ATOM     22  C   UNL     1      -0.345  -4.035   6.786  0.00  0.00    -0.030 A 
ATOM     23  C   UNL     1      -0.542  -5.393   6.955  0.00  0.00    +0.007 A 
ATOM     24  C   UNL     1      -0.095  -6.018   8.104  0.00  0.00    +0.029 A 
ATOM     25  C   UNL     1       0.549  -5.285   9.084  0.00  0.00    +0.105 A 
ATOM     26  C   UNL     1       0.747  -3.927   8.914  0.00  0.00    +0.029 A 
ATOM     27  C   UNL     1       0.303  -3.303   7.763  0.00  0.00    +0.007 A 
BRANCH  25  28
ATOM     28  S   UNL     1       1.118  -6.082  10.549  0.00  0.00    +0.056 S 
ATOM     29  O   UNL     1       1.203  -5.077  11.551  0.00  0.00    -0.153 OA
ATOM     30  O   UNL     1       0.328  -7.252  10.708  0.00  0.00    -0.153 OA
BRANCH  28  31
ATOM     31  N   UNL     1       2.667  -6.593  10.259  0.00  0.00    -0.204 NA
ATOM     32  H   UNL     1       3.303  -6.650  10.989  0.00  0.00    +0.144 HD
ATOM     33  H   UNL     1       2.937  -6.834   9.359  0.00  0.00    +0.144 HD
ENDBRANCH  28  31
ENDBRANCH  25  28
ENDBRANCH  21  22
ENDBRANCH   3  21
TORSDOF 10
