REMARK  Name = ZINC63789304
REMARK  6 active torsions:
REMARK  status: ('A' for Active; 'I' for Inactive)
REMARK    1  A    between atoms: C_7  and  C_10
REMARK    2  A    between atoms: C_10  and  C_11
REMARK    3  A    between atoms: C_11  and  C_12
REMARK    4  A    between atoms: C_12  and  C_13
REMARK    5  A    between atoms: N_15  and  C_16
REMARK    6  A    between atoms: C_18  and  C_27
REMARK                            x       y       z     vdW  Elec       q    Type
REMARK                         _______ _______ _______ _____ _____    ______ ____
ROOT
ATOM      1  C   UNL     1      -0.729  -5.309  -2.876  0.00  0.00    +0.214 C 
ATOM      2  O   UNL     1      -0.183  -4.738  -3.796  0.00  0.00    -0.276 OA
ATOM      3  N   UNL     1      -1.542  -6.356  -3.120  0.00  0.00    -0.302 N 
ATOM      4  H   UNL     1      -1.979  -6.813  -2.385  0.00  0.00    +0.150 HD
ENDROOT
BRANCH   3   5
ATOM      5  C   UNL     1      -1.766  -6.804  -4.497  0.00  0.00    +0.151 C 
ATOM      6  C   UNL     1      -1.793  -8.348  -4.595  0.00  0.00    +0.132 C 
ATOM      7  C   UNL     1      -3.196  -8.889  -4.472  0.00  0.00    -0.046 C 
ATOM      8  C   UNL     1      -4.200  -8.047  -4.685  0.00  0.00    -0.013 C 
ATOM      9  S   UNL     1      -3.489  -6.457  -5.049  0.00  0.00    -0.106 S 
ATOM     10  C   UNL     1      -5.669  -8.361  -4.632  0.00  0.00    +0.042 C 
ATOM     11  C   UNL     1      -5.850  -9.884  -4.652  0.00  0.00    +0.005 C 
ATOM     12  C   UNL     1      -4.895 -10.500  -3.625  0.00  0.00    +0.005 C 
ATOM     13  C   UNL     1      -3.455 -10.351  -4.116  0.00  0.00    +0.032 C 
BRANCH   6  14
ATOM     14  C   UNL     1      -1.222  -8.767  -5.925  0.00  0.00    +0.220 C 
ATOM     15  O   UNL     1      -1.909  -9.379  -6.715  0.00  0.00    -0.275 OA
ATOM     16  N   UNL     1       0.053  -8.462  -6.237  0.00  0.00    -0.329 N 
ATOM     17  H   UNL     1       0.603  -7.972  -5.606  0.00  0.00    +0.145 HD
ATOM     18  H   UNL     1       0.421  -8.731  -7.093  0.00  0.00    +0.145 HD
ENDBRANCH   6  14
ENDBRANCH   3   5
BRANCH   1  19
ATOM     19  C   UNL     1      -0.499  -4.848  -1.460  0.00  0.00    +0.096 C 
BRANCH  19  20
ATOM     20  C   UNL     1       0.457  -3.653  -1.462  0.00  0.00    +0.014 C 
BRANCH  20  21
ATOM     21  C   UNL     1       0.691  -3.186  -0.024  0.00  0.00    +0.033 C 
BRANCH  21  28
ATOM     22  C   UNL     1      -0.016   1.348   0.009  0.00  0.00    +0.001 A 
ATOM     23  C   UNL     1       1.166   2.101   0.002  0.00  0.00    +0.002 A 
ATOM     24  C   UNL     1       2.391   1.535  -0.013  0.00  0.00    +0.026 A 
ATOM     25  C   UNL     1       2.529   0.120  -0.022  0.00  0.00    +0.043 A 
ATOM     26  N   UNL     1       3.587  -0.654  -0.037  0.00  0.00    -0.380 N 
ATOM     27  C   UNL     1       3.143  -2.053  -0.041  0.00  0.00    +0.144 C 
ATOM     28  C   UNL     1       1.631  -2.008  -0.025  0.00  0.00    -0.042 C 
ATOM     29  C   UNL     1       1.295  -0.698  -0.014  0.00  0.00    -0.001 A 
ATOM     30  C   UNL     1       0.002  -0.004   0.002  0.00  0.00    +0.010 A 
ATOM     31  H   UNL     1       4.509  -0.353  -0.045  0.00  0.00    +0.160 HD
ENDBRANCH  21  28
ENDBRANCH  20  21
ENDBRANCH  19  20
ENDBRANCH   1  19
TORSDOF 6
