REMARK  Name = ZINC66246674
REMARK  5 active torsions:
REMARK  status: ('A' for Active; 'I' for Inactive)
REMARK    1  A    between atoms: C_3  and  C_6
REMARK    2  A    between atoms: C_6  and  N_7
REMARK    3  A    between atoms: N_10  and  C_11
REMARK    4  A    between atoms: C_11  and  C_12
REMARK    5  A    between atoms: C_12  and  C_18
REMARK                            x       y       z     vdW  Elec       q    Type
REMARK                         _______ _______ _______ _____ _____    ______ ____
ROOT
ATOM      1  N   UNL     1       8.774  -1.982   0.772  0.00  0.00    -0.351 N 
ATOM      2  C   UNL     1       8.142  -0.941   1.235  0.00  0.00    +0.169 C 
ATOM      3  N   UNL     1       7.506  -0.081   0.370  0.00  0.00    -0.371 N 
ATOM      4  N   UNL     1       8.111  -0.701   2.589  0.00  0.00    -0.357 N 
ATOM      5  H   UNL     1       7.528  -0.250  -0.585  0.00  0.00    +0.159 HD
ATOM      6  H   UNL     1       7.035   0.694   0.715  0.00  0.00    +0.159 HD
ATOM      7  H   UNL     1       8.559  -1.307   3.199  0.00  0.00    +0.162 HD
ATOM      8  H   UNL     1       9.222  -2.588   1.382  0.00  0.00    +0.163 HD
ENDROOT
BRANCH   1   9
ATOM      9  C   UNL     1       8.806  -2.237  -0.670  0.00  0.00    +0.190 C 
BRANCH   9  12
ATOM     10  C   UNL     1      10.177  -5.605  -1.273  0.00  0.00    +0.041 A 
ATOM     11  C   UNL     1       9.093  -4.740  -0.998  0.00  0.00    +0.046 A 
ATOM     12  C   UNL     1       9.595  -3.493  -0.940  0.00  0.00    +0.124 A 
ATOM     13  O   UNL     1      10.917  -3.557  -1.165  0.00  0.00    -0.466 OA
ATOM     14  C   UNL     1      11.276  -4.835  -1.368  0.00  0.00    +0.195 A 
ENDBRANCH   9  12
ENDBRANCH   1   9
BRANCH   4  15
ATOM     15  C   UNL     1       7.400   0.470   3.109  0.00  0.00    +0.127 C 
BRANCH  15  16
ATOM     16  C   UNL     1       7.440   0.451   4.639  0.00  0.00    +0.017 C 
ATOM     17  C   UNL     1       6.668   1.657   5.186  0.00  0.00    +0.041 C 
ATOM     18  C   UNL     1       7.360   2.944   4.730  0.00  0.00    +0.161 C 
ATOM     19  O   UNL     1       8.716   2.940   5.180  0.00  0.00    -0.380 OA
ATOM     20  C   UNL     1       9.499   1.862   4.662  0.00  0.00    +0.161 C 
ATOM     21  C   UNL     1       8.893   0.530   5.115  0.00  0.00    +0.041 C 
BRANCH  16  22
ATOM     22  C   UNL     1       6.812  -0.822   5.144  0.00  0.00    -0.039 A 
ATOM     23  C   UNL     1       7.550  -1.695   5.921  0.00  0.00    +0.005 A 
ATOM     24  C   UNL     1       6.975  -2.863   6.385  0.00  0.00    +0.015 A 
ATOM     25  C   UNL     1       5.661  -3.159   6.072  0.00  0.00    +0.018 A 
ATOM     26  C   UNL     1       4.922  -2.285   5.294  0.00  0.00    +0.015 A 
ATOM     27  C   UNL     1       5.497  -1.115   4.835  0.00  0.00    +0.005 A 
ATOM     28 BR   UNL     1       4.873  -4.757   6.705  0.00  0.00    -0.050 Br
ENDBRANCH  16  22
ENDBRANCH  15  16
ENDBRANCH   4  15
TORSDOF 5
