REMARK  Name = ZINC13123785
REMARK  6 active torsions:
REMARK  status: ('A' for Active; 'I' for Inactive)
REMARK    1  A    between atoms: C_1  and  C_2
REMARK    2  A    between atoms: C_6  and  N_9
REMARK    3  A    between atoms: C_7  and  C_8
REMARK    4  A    between atoms: C_10  and  C_12
REMARK    5  A    between atoms: C_17  and  C_26
REMARK    6  A    between atoms: C_20  and  C_23
REMARK                            x       y       z     vdW  Elec       q    Type
REMARK                         _______ _______ _______ _____ _____    ______ ____
ROOT
ATOM      1  C   UNL     1      -0.129  -4.883   3.659  0.00  0.00    +0.149 A 
ATOM      2  C   UNL     1      -0.217  -6.287   3.797  0.00  0.00    +0.078 A 
ATOM      3  C   UNL     1      -0.287  -6.562   5.115  0.00  0.00    +0.119 A 
ATOM      4  N   UNL     1      -0.244  -5.381   5.799  0.00  0.00    -0.238 N 
ATOM      5  N   UNL     1      -0.141  -4.349   4.867  0.00  0.00    -0.164 NA
ATOM      6  C   UNL     1      -0.293  -5.286   7.261  0.00  0.00    +0.214 C 
ATOM      7  C   UNL     1       0.086  -6.646   7.859  0.00  0.00    +0.058 C 
ATOM      8  C   UNL     1      -0.734  -7.756   7.194  0.00  0.00    +0.077 C 
ATOM      9  N   UNL     1      -0.389  -7.799   5.759  0.00  0.00    -0.326 N 
ATOM     10  H   UNL     1      -0.242  -8.635   5.291  0.00  0.00    +0.148 HD
ENDROOT
BRANCH   1  12
ATOM     11  N   UNL     1       0.051  -2.797   2.392  0.00  0.00    -0.280 N 
ATOM     12  C   UNL     1      -0.033  -4.142   2.385  0.00  0.00    +0.268 C 
ATOM     13  O   UNL     1      -0.030  -4.746   1.329  0.00  0.00    -0.268 OA
ATOM     14  H   UNL     1       0.130  -2.321   3.233  0.00  0.00    +0.155 HD
BRANCH  11  20
ATOM     15  C   UNL     1       1.207   1.235  -0.171  0.00  0.00    +0.044 C 
ATOM     16  C   UNL     1       0.578  -0.131  -0.084  0.00  0.00    -0.046 A 
ATOM     17  C   UNL     1      -0.027  -0.686  -1.198  0.00  0.00    +0.004 A 
ATOM     18  C   UNL     1      -0.605  -1.939  -1.122  0.00  0.00    +0.002 A 
ATOM     19  C   UNL     1      -0.581  -2.642   0.067  0.00  0.00    +0.023 A 
ATOM     20  C   UNL     1       0.025  -2.088   1.187  0.00  0.00    +0.037 A 
ATOM     21  C   UNL     1       0.610  -0.831   1.106  0.00  0.00    -0.026 A 
ATOM     22  C   UNL     1       1.275  -0.229   2.317  0.00  0.00    +0.046 C 
ENDBRANCH  11  20
ENDBRANCH   1  12
BRANCH   6  23
ATOM     23  C   UNL     1       0.695  -4.220   7.739  0.00  0.00    +0.412 C 
ATOM     24  F   UNL     1       0.353  -2.983   7.181  0.00  0.00    -0.168 F 
ATOM     25  F   UNL     1       0.647  -4.131   9.134  0.00  0.00    -0.168 F 
ATOM     26  F   UNL     1       1.989  -4.570   7.338  0.00  0.00    -0.168 F 
ENDBRANCH   6  23
BRANCH   8  27
ATOM     27  C   UNL     1      -2.227  -7.461   7.358  0.00  0.00    +0.009 C 
ATOM     28  C   UNL     1      -3.032  -8.386   8.273  0.00  0.00    +0.005 C 
ATOM     29  C   UNL     1      -3.215  -8.462   6.756  0.00  0.00    +0.005 C 
ENDBRANCH   8  27
TORSDOF 4
