REMARK  Name = ZINC15478309
REMARK  10 active torsions:
REMARK  status: ('A' for Active; 'I' for Inactive)
REMARK    1  A    between atoms: C_1  and  O_2
REMARK    2  A    between atoms: O_2  and  C_3
REMARK    3  A    between atoms: C_6  and  C_9
REMARK    4  A    between atoms: C_9  and  C_11
REMARK    5  A    between atoms: C_9  and  N_63
REMARK    6  A    between atoms: C_11  and  N_12
REMARK    7  A    between atoms: C_13  and  C_15
REMARK    8  A    between atoms: C_18  and  N_21
REMARK    9  A    between atoms: N_21  and  S_22
REMARK   10  A    between atoms: S_22  and  C_25
REMARK                            x       y       z     vdW  Elec       q    Type
REMARK                         _______ _______ _______ _____ _____    ______ ____
ROOT
ATOM      1  N   UNL     1      -2.302  -0.331  -0.768  0.00  0.00    -0.313 N 
ATOM      2  C   UNL     1      -2.847  -1.365  -0.098  0.00  0.00    +0.244 C 
ATOM      3  O   UNL     1      -2.135  -2.132   0.520  0.00  0.00    -0.270 OA
ATOM      4  H   UNL     1      -2.871   0.281  -1.262  0.00  0.00    +0.149 HD
ENDROOT
BRANCH   2   5
ATOM      5  C   UNL     1      -4.309  -1.567  -0.115  0.00  0.00    +0.037 A 
ATOM      6  C   UNL     1      -5.130  -0.683  -0.820  0.00  0.00    +0.015 A 
ATOM      7  C   UNL     1      -6.492  -0.877  -0.839  0.00  0.00    +0.025 A 
ATOM      8  C   UNL     1      -7.053  -1.946  -0.146  0.00  0.00    +0.048 A 
ATOM      9  C   UNL     1      -6.239  -2.825   0.563  0.00  0.00    +0.025 A 
ATOM     10  C   UNL     1      -4.875  -2.640   0.580  0.00  0.00    +0.015 A 
BRANCH   8  11
ATOM     11  N   UNL     1      -8.431  -2.137  -0.162  0.00  0.00    -0.216 N 
ATOM     12  H   UNL     1      -8.862  -2.489  -0.956  0.00  0.00    +0.174 HD
BRANCH  11  13
ATOM     13  S   UNL     1      -9.334  -1.763   1.175  0.00  0.00    +0.079 S 
ATOM     14  O   UNL     1     -10.688  -2.030   0.838  0.00  0.00    -0.149 OA
ATOM     15  O   UNL     1      -8.690  -2.375   2.284  0.00  0.00    -0.149 OA
BRANCH  13  16
ATOM     16  C   UNL     1      -9.209  -0.022   1.418  0.00  0.00    +0.146 A 
ATOM     17  C   UNL     1      -9.924   0.974   0.841  0.00  0.00    +0.036 A 
ATOM     18  C   UNL     1      -9.650   2.283   1.188  0.00  0.00    +0.010 A 
ATOM     19  C   UNL     1      -8.675   2.533   2.096  0.00  0.00    +0.047 A 
ATOM     20  S   UNL     1      -8.112   0.886   2.494  0.00  0.00    -0.077 S 
ENDBRANCH  13  16
ENDBRANCH  11  13
ENDBRANCH   8  11
ENDBRANCH   2   5
BRANCH   1  21
ATOM     21  C   UNL     1      -0.851  -0.130  -0.752  0.00  0.00    +0.094 C 
BRANCH  21  22
ATOM     22  C   UNL     1      -0.497   1.104  -1.584  0.00  0.00    -0.020 C 
BRANCH  22  28
ATOM     23  C   UNL     1      -0.388  -0.128  -3.665  0.00  0.00    -0.078 C 
ATOM     24  C   UNL     1      -1.087  -0.345  -5.009  0.00  0.00    -0.019 C 
ATOM     25  C   UNL     1      -1.030   0.950  -5.823  0.00  0.00    -0.004 C 
ATOM     26  C   UNL     1      -1.687   2.077  -5.021  0.00  0.00    -0.019 C 
ATOM     27  C   UNL     1      -0.971   2.224  -3.677  0.00  0.00    -0.078 C 
ATOM     28  N   UNL     1      -1.082   0.952  -2.932  0.00  0.00    +0.385 N 
ATOM     29  H   UNL     1      -2.075   0.707  -2.839  0.00  0.00    -0.081 HD
ENDBRANCH  22  28
BRANCH  22  33
ATOM     30  C   UNL     1       3.752   1.489  -1.825  0.00  0.00    +0.120 A 
ATOM     31  C   UNL     1       2.976   2.575  -1.446  0.00  0.00    +0.046 A 
ATOM     32  C   UNL     1       1.603   2.448  -1.369  0.00  0.00    +0.005 A 
ATOM     33  C   UNL     1       1.001   1.240  -1.669  0.00  0.00    -0.059 A 
ATOM     34  C   UNL     1       1.772   0.154  -2.041  0.00  0.00    +0.005 A 
ATOM     35  C   UNL     1       3.146   0.278  -2.126  0.00  0.00    +0.046 A 
BRANCH  30  37
ATOM     36  C   UNL     1       5.838   0.452  -2.297  0.00  0.00    +0.277 C 
ATOM     37  O   UNL     1       5.103   1.611  -1.900  0.00  0.00    -0.495 OA
ENDBRANCH  30  37
ENDBRANCH  22  33
ENDBRANCH  21  22
ENDBRANCH   1  21
TORSDOF 9
