REMARK  Name = ZINC03007187
REMARK  10 active torsions:
REMARK  status: ('A' for Active; 'I' for Inactive)
REMARK    1  A    between atoms: C_1  and  C_2
REMARK    2  A    between atoms: C_2  and  C_3
REMARK    3  A    between atoms: C_2  and  N_63
REMARK    4  A    between atoms: C_9  and  N_14
REMARK    5  A    between atoms: C_10  and  C_11
REMARK    6  A    between atoms: C_15  and  C_17
REMARK    7  A    between atoms: C_20  and  S_23
REMARK    8  A    between atoms: S_23  and  N_26
REMARK    9  A    between atoms: N_26  and  C_27
REMARK   10  A    between atoms: N_26  and  C_28
REMARK                            x       y       z     vdW  Elec       q    Type
REMARK                         _______ _______ _______ _____ _____    ______ ____
ROOT
ATOM      1  N   UNL     1       7.747   4.097   3.891  0.00  0.00    -0.275 N 
ATOM      2  C   UNL     1       8.073   2.840   3.531  0.00  0.00    +0.249 C 
ATOM      3  O   UNL     1       9.001   2.273   4.075  0.00  0.00    -0.270 OA
ATOM      4  H   UNL     1       7.007   4.550   3.457  0.00  0.00    +0.156 HD
ENDROOT
BRANCH   1  10
ATOM      5  C   UNL     1       9.924   7.757   8.411  0.00  0.00    -0.073 C 
ATOM      6  C   UNL     1       9.135   7.835   7.101  0.00  0.00    +0.018 C 
ATOM      7  C   UNL     1       9.189   6.467   6.432  0.00  0.00    -0.027 A 
ATOM      8  C   UNL     1      10.124   5.565   6.807  0.00  0.00    -0.021 A 
ATOM      9  S   UNL     1       9.813   4.146   5.798  0.00  0.00    -0.079 S 
ATOM     10  C   UNL     1       8.469   4.744   4.881  0.00  0.00    +0.085 A 
ATOM     11  C   UNL     1       8.287   6.025   5.385  0.00  0.00    +0.068 A 
ATOM     12  C   UNL     1      11.175   5.758   7.856  0.00  0.00    -0.035 C 
ATOM     13  N   UNL     1      11.270   7.210   8.140  0.00  0.00    +0.384 N 
ATOM     14  H   UNL     1      11.665   7.686   7.321  0.00  0.00    -0.081 HD
BRANCH  11  15
ATOM     15  C   UNL     1       7.224   6.898   4.878  0.00  0.00    +0.244 C 
ATOM     16  O   UNL     1       6.123   6.881   5.396  0.00  0.00    -0.270 OA
ATOM     17  N   UNL     1       7.466   7.721   3.838  0.00  0.00    -0.325 N 
ATOM     18  H   UNL     1       8.344   7.735   3.425  0.00  0.00    +0.145 HD
ATOM     19  H   UNL     1       6.763   8.299   3.502  0.00  0.00    +0.145 HD
ENDBRANCH  11  15
BRANCH  13  21
ATOM     20  C   UNL     1      13.491   6.739   9.063  0.00  0.00    -0.014 C 
ATOM     21  C   UNL     1      12.153   7.441   9.304  0.00  0.00    -0.074 C 
ATOM     22  C   UNL     1      12.386   8.945   9.458  0.00  0.00    -0.014 C 
ENDBRANCH  13  21
ENDBRANCH   1  10
BRANCH   2  23
ATOM     23  C   UNL     1       7.303   2.151   2.475  0.00  0.00    +0.037 A 
ATOM     24  C   UNL     1       7.638   0.849   2.099  0.00  0.00    +0.015 A 
ATOM     25  C   UNL     1       6.915   0.211   1.113  0.00  0.00    +0.029 A 
ATOM     26  C   UNL     1       5.859   0.859   0.496  0.00  0.00    +0.109 A 
ATOM     27  C   UNL     1       5.525   2.151   0.860  0.00  0.00    +0.029 A 
ATOM     28  C   UNL     1       6.237   2.799   1.848  0.00  0.00    +0.015 A 
BRANCH  26  29
ATOM     29  S   UNL     1       4.941   0.036  -0.763  0.00  0.00    +0.074 S 
ATOM     30  O   UNL     1       5.843  -0.851  -1.410  0.00  0.00    -0.150 OA
ATOM     31  O   UNL     1       4.226   1.043  -1.466  0.00  0.00    -0.150 OA
BRANCH  29  32
ATOM     32  N   UNL     1       3.809  -0.907  -0.006  0.00  0.00    -0.206 N 
ATOM     33  C   UNL     1       4.144  -2.277   0.389  0.00  0.00    +0.157 C 
BRANCH  32  34
ATOM     34  C   UNL     1       2.535  -0.397   0.254  0.00  0.00    +0.051 A 
ATOM     35  C   UNL     1       1.450  -1.256   0.363  0.00  0.00    +0.025 A 
ATOM     36  C   UNL     1       0.192  -0.748   0.620  0.00  0.00    +0.002 A 
ATOM     37  C   UNL     1       0.012   0.615   0.769  0.00  0.00    +0.000 A 
ATOM     38  C   UNL     1       1.091   1.473   0.662  0.00  0.00    +0.002 A 
ATOM     39  C   UNL     1       2.351   0.972   0.405  0.00  0.00    +0.025 A 
ENDBRANCH  32  34
ENDBRANCH  29  32
ENDBRANCH  26  29
ENDBRANCH   2  23
TORSDOF 7
