REMARK  Name = ZINC63980666
REMARK  14 active torsions:
REMARK  status: ('A' for Active; 'I' for Inactive)
REMARK    1  A    between atoms: C_1  and  C_2
REMARK    2  A    between atoms: C_2  and  C_4
REMARK    3  A    between atoms: C_2  and  N_15
REMARK    4  A    between atoms: C_4  and  C_5
REMARK    5  A    between atoms: C_5  and  C_6
REMARK    6  A    between atoms: N_15  and  C_16
REMARK    7  A    between atoms: N_22  and  C_37
REMARK    8  A    between atoms: C_23  and  C_33
REMARK    9  A    between atoms: C_25  and  N_27
REMARK   10  A    between atoms: C_28  and  C_30
REMARK   11  A    between atoms: C_30  and  O_31
REMARK   12  A    between atoms: O_31  and  C_32
REMARK   13  A    between atoms: C_33  and  O_35
REMARK   14  A    between atoms: O_35  and  C_36
REMARK                            x       y       z     vdW  Elec       q    Type
REMARK                         _______ _______ _______ _____ _____    ______ ____
ROOT
ATOM      1  C   UNL     1      -0.020  -0.613  -2.404  0.00  0.00    +0.044 A 
ATOM      2  C   UNL     1       0.618  -1.067  -3.557  0.00  0.00    +0.033 A 
ATOM      3  C   UNL     1      -0.124  -1.185  -4.717  0.00  0.00    +0.015 A 
ATOM      4  C   UNL     1      -1.472  -0.856  -4.717  0.00  0.00    +0.104 A 
ATOM      5  N   UNL     1      -2.043  -0.425  -3.592  0.00  0.00    -0.348 N 
ATOM      6  C   UNL     1      -1.371  -0.305  -2.466  0.00  0.00    +0.107 A 
ATOM      7  N   UNL     1      -2.043  -1.040  -5.974  0.00  0.00    -0.305 N 
ATOM      8  C   UNL     1      -1.037  -1.531  -6.920  0.00  0.00    +0.208 C 
ATOM      9  C   UNL     1       0.263  -1.639  -6.105  0.00  0.00    +0.138 C 
ATOM     10  C   UNL     1      -3.447  -0.783  -6.303  0.00  0.00    +0.131 C 
ATOM     11  H   UNL     1      -2.986  -0.198  -3.602  0.00  0.00    +0.167 HD
ENDROOT
BRANCH   9  12
ATOM     12  N   UNL     1       0.736  -3.025  -6.078  0.00  0.00    -0.304 N 
ATOM     13  C   UNL     1       2.031  -3.290  -5.813  0.00  0.00    +0.239 C 
ATOM     14  O   UNL     1       2.804  -2.381  -5.598  0.00  0.00    -0.273 OA
ATOM     15  H   UNL     1       0.118  -3.752  -6.250  0.00  0.00    +0.149 HD
BRANCH  13  16
ATOM     16  C   UNL     1       2.518  -4.716  -5.785  0.00  0.00    +0.255 C 
BRANCH  16  17
ATOM     17  O   UNL     1       3.915  -4.736  -5.485  0.00  0.00    -0.374 OA
ATOM     18  C   UNL     1       4.479  -6.048  -5.434  0.00  0.00    +0.194 C 
ENDBRANCH  16  17
ENDBRANCH  13  16
ENDBRANCH   9  12
BRANCH   1  19
ATOM     19  N   UNL     1       0.688  -0.476  -1.203  0.00  0.00    -0.340 N 
ATOM     20  H   UNL     1       1.632  -0.695  -1.170  0.00  0.00    +0.146 HD
BRANCH  19  22
ATOM     21  C   UNL     1      -0.019   1.526   0.010  0.00  0.00    +0.028 C 
ATOM     22  C   UNL     1       0.002  -0.004   0.002  0.00  0.00    +0.068 C 
BRANCH  22  23
ATOM     23  C   UNL     1       0.742  -0.511   1.242  0.00  0.00    +0.026 C 
BRANCH  23  24
ATOM     24  C   UNL     1       0.655  -2.037   1.299  0.00  0.00    +0.035 C 
BRANCH  24  25
ATOM     25  C   UNL     1       1.384  -2.537   2.519  0.00  0.00    -0.041 C 
ATOM     26  C   UNL     1       0.846  -2.827   3.726  0.00  0.00    -0.001 A 
ATOM     27  C   UNL     1      -0.526  -2.766   4.243  0.00  0.00    +0.010 A 
ATOM     28  C   UNL     1      -0.761  -3.128   5.525  0.00  0.00    +0.001 A 
ATOM     29  C   UNL     1       0.271  -3.559   6.370  0.00  0.00    +0.002 A 
ATOM     30  C   UNL     1       1.557  -3.641   5.967  0.00  0.00    +0.026 A 
ATOM     31  C   UNL     1       1.918  -3.285   4.638  0.00  0.00    +0.043 A 
ATOM     32  N   UNL     1       3.074  -3.279   4.020  0.00  0.00    -0.380 N 
ATOM     33  C   UNL     1       2.865  -2.821   2.642  0.00  0.00    +0.144 C 
ATOM     34  H   UNL     1       3.925  -3.538   4.407  0.00  0.00    +0.160 HD
ENDBRANCH  24  25
ENDBRANCH  23  24
ENDBRANCH  22  23
ENDBRANCH  19  22
ENDBRANCH   1  19
BRANCH   8  35
ATOM     35  C   UNL     1      -1.436  -2.883  -7.453  0.00  0.00    +0.330 C 
ATOM     36  O   UNL     1      -2.255  -3.547  -6.864  0.00  0.00    -0.249 OA
BRANCH  35  37
ATOM     37  O   UNL     1      -0.880  -3.349  -8.582  0.00  0.00    -0.467 OA
ATOM     38  C   UNL     1      -1.305  -4.638  -9.030  0.00  0.00    +0.280 C 
ENDBRANCH  35  37
ENDBRANCH   8  35
TORSDOF 10
