REMARK  Name = ZINC44121139
REMARK  12 active torsions:
REMARK  status: ('A' for Active; 'I' for Inactive)
REMARK    1  A    between atoms: C_1  and  C_2
REMARK    2  A    between atoms: N_5  and  C_8
REMARK    3  A    between atoms: C_8  and  C_10
REMARK    4  A    between atoms: C_8  and  C_27
REMARK    5  A    between atoms: C_10  and  N_11
REMARK    6  A    between atoms: N_14  and  C_15
REMARK    7  A    between atoms: C_18  and  N_21
REMARK    8  A    between atoms: C_22  and  C_24
REMARK    9  A    between atoms: C_24  and  O_25
REMARK   10  A    between atoms: O_25  and  C_26
REMARK   11  A    between atoms: C_27  and  C_28
REMARK   12  A    between atoms: C_27  and  C_29
REMARK                            x       y       z     vdW  Elec       q    Type
REMARK                         _______ _______ _______ _____ _____    ______ ____
ROOT
ATOM      1  N   UNL     1      -2.906  -3.833   0.432  0.00  0.00    -0.301 N 
ATOM      2  C   UNL     1      -4.189  -4.222   0.296  0.00  0.00    +0.304 C 
ATOM      3  O   UNL     1      -4.704  -4.927   1.143  0.00  0.00    -0.253 OA
ATOM      4  N   UNL     1      -4.902  -3.830  -0.779  0.00  0.00    -0.269 N 
ATOM      5  H   UNL     1      -2.495  -3.271  -0.243  0.00  0.00    +0.150 HD
ATOM      6  H   UNL     1      -4.469  -3.340  -1.495  0.00  0.00    +0.156 HD
ENDROOT
BRANCH   4   7
ATOM      7  C   UNL     1      -6.268  -4.132  -0.862  0.00  0.00    +0.035 A 
ATOM      8  C   UNL     1      -6.842  -4.417  -2.093  0.00  0.00    +0.025 A 
ATOM      9  C   UNL     1      -8.188  -4.714  -2.175  0.00  0.00    +0.025 A 
ATOM     10  C   UNL     1      -8.967  -4.728  -1.026  0.00  0.00    +0.034 A 
ATOM     11  C   UNL     1      -8.392  -4.444   0.206  0.00  0.00    +0.025 A 
ATOM     12  C   UNL     1      -7.045  -4.152   0.288  0.00  0.00    +0.025 A 
BRANCH  10  13
ATOM     13  N   UNL     1     -10.332  -5.029  -1.109  0.00  0.00    -0.284 N 
ATOM     14  C   UNL     1     -10.772  -5.922  -2.018  0.00  0.00    +0.243 C 
ATOM     15  O   UNL     1      -9.977  -6.542  -2.692  0.00  0.00    -0.273 OA
ATOM     16  H   UNL     1     -10.962  -4.594  -0.512  0.00  0.00    +0.155 HD
BRANCH  14  17
ATOM     17  C   UNL     1     -12.251  -6.149  -2.197  0.00  0.00    +0.255 C 
BRANCH  17  18
ATOM     18  O   UNL     1     -12.462  -7.134  -3.210  0.00  0.00    -0.374 OA
ATOM     19  C   UNL     1     -13.839  -7.425  -3.460  0.00  0.00    +0.194 C 
ENDBRANCH  17  18
ENDBRANCH  14  17
ENDBRANCH  10  13
ENDBRANCH   4   7
BRANCH   1  20
ATOM     20  C   UNL     1      -2.131  -4.259   1.601  0.00  0.00    +0.091 C 
BRANCH  20  21
ATOM     21  C   UNL     1      -0.726  -3.660   1.526  0.00  0.00    -0.048 C 
BRANCH  21  26
ATOM     22  C   UNL     1      -2.151   1.766   2.547  0.00  0.00    +0.007 C 
ATOM     23  C   UNL     1      -2.212   0.258   2.297  0.00  0.00    -0.018 C 
ATOM     24  C   UNL     1      -1.418  -0.473   3.384  0.00  0.00    -0.016 C 
ATOM     25  C   UNL     1      -1.417  -1.974   3.083  0.00  0.00    -0.078 C 
ATOM     26  N   UNL     1      -0.795  -2.214   1.775  0.00  0.00    +0.383 N 
ATOM     27  C   UNL     1      -1.591  -1.575   0.721  0.00  0.00    -0.078 C 
ATOM     28  C   UNL     1      -1.599  -0.059   0.930  0.00  0.00    -0.016 C 
ATOM     29  H   UNL     1       0.138  -1.829   1.772  0.00  0.00    -0.081 HD
ENDBRANCH  21  26
BRANCH  21  30
ATOM     30  C   UNL     1       0.165  -4.317   2.582  0.00  0.00    -0.029 C 
ATOM     31  C   UNL     1       0.341  -5.801   2.250  0.00  0.00    +0.005 C 
ATOM     32  C   UNL     1       1.533  -3.632   2.594  0.00  0.00    +0.005 C 
ENDBRANCH  21  30
ENDBRANCH  20  21
ENDBRANCH   1  20
TORSDOF 8
