REMARK  Name = ZINC01326518
REMARK  6 active torsions:
REMARK  status: ('A' for Active; 'I' for Inactive)
REMARK    1  A    between atoms: C_1  and  C_2
REMARK    2  A    between atoms: N_4  and  C_5
REMARK    3  A    between atoms: C_9  and  N_11
REMARK    4  A    between atoms: C_12  and  C_14
REMARK    5  A    between atoms: C_18  and  C_29
REMARK    6  A    between atoms: C_21  and  C_25
REMARK                            x       y       z     vdW  Elec       q    Type
REMARK                         _______ _______ _______ _____ _____    ______ ____
ROOT
ATOM      1  C   UNL     1      -4.491  -7.178   0.303  0.00  0.00    +0.110 C 
ATOM      2  C   UNL     1      -5.747  -6.673   0.212  0.00  0.00    +0.072 C 
ATOM      3  C   UNL     1      -6.675  -7.796   0.338  0.00  0.00    +0.114 C 
ATOM      4  N   UNL     1      -7.978  -7.809   0.323  0.00  0.00    -0.362 N 
ATOM      5  C   UNL     1      -8.680  -9.084   0.511  0.00  0.00    +0.149 C 
ATOM      6  C   UNL     1      -7.862 -10.239  -0.069  0.00  0.00    +0.065 C 
ATOM      7  C   UNL     1      -6.479 -10.281   0.600  0.00  0.00    +0.202 C 
ATOM      8  N   UNL     1      -5.898  -8.939   0.481  0.00  0.00    -0.226 N 
ATOM      9  N   UNL     1      -4.563  -8.551   0.472  0.00  0.00    -0.258 N 
ATOM     10  H   UNL     1      -3.804  -9.146   0.572  0.00  0.00    +0.170 HD
ATOM     11  H   UNL     1      -8.476  -6.987   0.191  0.00  0.00    +0.162 HD
ENDROOT
BRANCH   5  12
ATOM     12  C   UNL     1     -10.015  -9.023  -0.186  0.00  0.00    +0.127 A 
ATOM     13  C   UNL     1     -11.172  -9.519   0.286  0.00  0.00    +0.047 A 
ATOM     14  C   UNL     1     -12.163  -9.243  -0.684  0.00  0.00    +0.041 A 
ATOM     15  C   UNL     1     -11.551  -8.595  -1.692  0.00  0.00    +0.195 A 
ATOM     16  O   UNL     1     -10.251  -8.460  -1.382  0.00  0.00    -0.466 OA
ENDBRANCH   5  12
BRANCH   1  18
ATOM     17  N   UNL     1      -3.300  -5.052   0.059  0.00  0.00    -0.280 N 
ATOM     18  C   UNL     1      -3.243  -6.388   0.227  0.00  0.00    +0.264 C 
ATOM     19  O   UNL     1      -2.166  -6.944   0.315  0.00  0.00    -0.268 OA
ATOM     20  H   UNL     1      -4.156  -4.617  -0.078  0.00  0.00    +0.155 HD
BRANCH  17  25
ATOM     21  C   UNL     1      -0.968  -2.267   0.650  0.00  0.00    +0.035 A 
ATOM     22  C   UNL     1       0.206  -2.797   0.128  0.00  0.00    +0.023 A 
ATOM     23  C   UNL     1       0.212  -4.068  -0.412  0.00  0.00    +0.004 A 
ATOM     24  C   UNL     1      -0.949  -4.817  -0.436  0.00  0.00    +0.023 A 
ATOM     25  C   UNL     1      -2.126  -4.294   0.084  0.00  0.00    +0.035 A 
ATOM     26  C   UNL     1      -2.134  -3.019   0.633  0.00  0.00    +0.046 A 
BRANCH  21  30
ATOM     27  C   UNL     1      -1.676   0.652   2.919  0.00  0.00    +0.109 C 
ATOM     28  C   UNL     1      -1.748  -0.704   2.265  0.00  0.00    +0.214 C 
ATOM     29  O   UNL     1      -2.505  -1.547   2.699  0.00  0.00    -0.276 OA
ATOM     30  N   UNL     1      -0.973  -0.980   1.198  0.00  0.00    -0.286 N 
ATOM     31  H   UNL     1      -0.418  -0.285   0.809  0.00  0.00    +0.155 HD
ENDBRANCH  21  30
ENDBRANCH  17  25
ENDBRANCH   1  18
BRANCH   7  32
ATOM     32  C   UNL     1      -5.587 -11.301  -0.111  0.00  0.00    +0.410 C 
ATOM     33  F   UNL     1      -5.439 -10.936  -1.453  0.00  0.00    -0.169 F 
ATOM     34  F   UNL     1      -4.331 -11.332   0.505  0.00  0.00    -0.169 F 
ATOM     35  F   UNL     1      -6.175 -12.568  -0.034  0.00  0.00    -0.169 F 
ENDBRANCH   7  32
TORSDOF 5
