REMARK  Name = ZINC36265360
REMARK  5 active torsions:
REMARK  status: ('A' for Active; 'I' for Inactive)
REMARK    1  A    between atoms: C_1  and  C_2
REMARK    2  A    between atoms: C_3  and  N_21
REMARK    3  A    between atoms: C_5  and  S_9
REMARK    4  A    between atoms: S_9  and  N_12
REMARK    5  A    between atoms: N_12  and  C_13
REMARK                            x       y       z     vdW  Elec       q    Type
REMARK                         _______ _______ _______ _____ _____    ______ ____
ROOT
ATOM      1  S   UNL     1       0.143  -4.529  -0.031  0.00  0.00    +0.059 S 
ATOM      2  O   UNL     1      -0.294  -4.963   1.249  0.00  0.00    -0.153 OA
ATOM      3  O   UNL     1      -0.486  -4.950  -1.234  0.00  0.00    -0.153 OA
ENDROOT
BRANCH   1   8
ATOM      4  C   UNL     1      -0.094   1.501   0.017  0.00  0.00    +0.047 C 
ATOM      5  C   UNL     1      -0.034  -0.005   0.005  0.00  0.00    -0.002 A 
ATOM      6  C   UNL     1      -0.099  -0.690  -1.194  0.00  0.00    +0.132 A 
ATOM      7  C   UNL     1      -0.044  -2.071  -1.205  0.00  0.00    +0.061 A 
ATOM      8  C   UNL     1       0.075  -2.768  -0.016  0.00  0.00    +0.109 A 
ATOM      9  C   UNL     1       0.140  -2.084   1.183  0.00  0.00    +0.049 A 
ATOM     10  C   UNL     1       0.091  -0.702   1.194  0.00  0.00    +0.048 A 
ATOM     11 CL   UNL     1       0.180   0.159   2.699  0.00  0.00    -0.083 Cl
BRANCH   6  12
ATOM     12  N   UNL     1      -0.226   0.055  -2.466  0.00  0.00    +0.057 N 
ATOM     13  O   UNL     1      -0.906  -0.390  -3.361  0.00  0.00    -0.126 OA
ATOM     14  O   UNL     1       0.349   1.109  -2.610  0.00  0.00    -0.126 OA
ENDBRANCH   6  12
ENDBRANCH   1   8
BRANCH   1  15
ATOM     15  N   UNL     1       1.738  -4.956  -0.157  0.00  0.00    -0.186 NA
ATOM     16  H   UNL     1       2.055  -5.420  -0.947  0.00  0.00    +0.148 HD
BRANCH  15  17
ATOM     17  C   UNL     1       2.670  -4.633   0.926  0.00  0.00    +0.080 C 
ATOM     18  C   UNL     1       3.802  -5.625   1.202  0.00  0.00    -0.006 C 
ATOM     19  C   UNL     1       4.104  -4.267   0.537  0.00  0.00    -0.006 C 
ATOM     20  C   UNL     1       4.583  -4.616  -0.888  0.00  0.00    -0.077 C 
ATOM     21  N   UNL     1       5.090  -6.008  -0.782  0.00  0.00    +0.379 N 
ATOM     22  C   UNL     1       4.099  -6.704   0.139  0.00  0.00    -0.077 C 
ATOM     23  H   UNL     1       5.093  -6.452  -1.688  0.00  0.00    -0.086 HD
ATOM     24  H   UNL     1       6.015  -6.017  -0.380  0.00  0.00    -0.086 HD
ENDBRANCH  15  17
ENDBRANCH   1  15
TORSDOF 4
