REMARK  Name = ZINC59544372
REMARK  6 active torsions:
REMARK  status: ('A' for Active; 'I' for Inactive)
REMARK    1  A    between atoms: C_1  and  C_2
REMARK    2  A    between atoms: C_2  and  C_3
REMARK    3  A    between atoms: C_2  and  C_4
REMARK    4  A    between atoms: C_7  and  N_10
REMARK    5  A    between atoms: C_11  and  C_13
REMARK    6  A    between atoms: C_13  and  C_14
REMARK                            x       y       z     vdW  Elec       q    Type
REMARK                         _______ _______ _______ _____ _____    ______ ____
ROOT
ATOM      1  C   UNL     1      -7.236  -3.087  -1.052  0.00  0.00    +0.089 C 
ENDROOT
BRANCH   1   2
ATOM      2  C   UNL     1      -7.507  -3.855  -2.347  0.00  0.00    +0.025 C 
ATOM      3  C   UNL     1      -8.973  -4.162  -2.445  0.00  0.00    +0.200 C 
ATOM      4  O   UNL     1      -9.766  -3.293  -2.150  0.00  0.00    -0.278 OA
ATOM      5  N   UNL     1      -9.448  -5.348  -2.842  0.00  0.00    -0.315 N 
ATOM      6  C   UNL     1      -8.565  -6.470  -3.174  0.00  0.00    +0.059 C 
ATOM      7  C   UNL     1      -8.512  -7.421  -1.975  0.00  0.00    +0.020 C 
ATOM      8  C   UNL     1      -7.548  -8.571  -2.266  0.00  0.00    +0.002 C 
ATOM      9  C   UNL     1      -6.146  -8.003  -2.507  0.00  0.00    -0.001 C 
ATOM     10  C   UNL     1      -6.186  -7.071  -3.719  0.00  0.00    -0.014 C 
ATOM     11  C   UNL     1      -7.170  -5.931  -3.486  0.00  0.00    -0.050 C 
ATOM     12  N   UNL     1      -6.726  -5.100  -2.347  0.00  0.00    +0.390 N 
ATOM     13  H   UNL     1     -10.408  -5.470  -2.912  0.00  0.00    +0.149 HD
ATOM     14  H   UNL     1      -5.746  -4.884  -2.452  0.00  0.00    -0.084 HD
ATOM     15  H   UNL     1      -6.875  -5.593  -1.480  0.00  0.00    -0.084 HD
ENDBRANCH   1   2
BRANCH   1  17
ATOM     16  N   UNL     1      -5.320  -1.968   0.042  0.00  0.00    -0.286 N 
ATOM     17  C   UNL     1      -5.790  -2.663  -1.013  0.00  0.00    +0.216 C 
ATOM     18  O   UNL     1      -5.050  -2.946  -1.931  0.00  0.00    -0.276 OA
ATOM     19  H   UNL     1      -5.891  -1.807   0.810  0.00  0.00    +0.155 HD
BRANCH  16  23
ATOM     20  C   UNL     1      -1.418  -0.509   0.005  0.00  0.00    -0.045 A 
ATOM     21  C   UNL     1      -2.137  -0.586  -1.174  0.00  0.00    +0.006 A 
ATOM     22  C   UNL     1      -3.431  -1.069  -1.165  0.00  0.00    +0.023 A 
ATOM     23  C   UNL     1      -4.010  -1.478   0.030  0.00  0.00    +0.033 A 
ATOM     24  C   UNL     1      -3.284  -1.400   1.212  0.00  0.00    +0.023 A 
ATOM     25  C   UNL     1      -1.989  -0.920   1.195  0.00  0.00    +0.006 A 
BRANCH  20  27
ATOM     26  C   UNL     1       0.857  -0.856  -0.919  0.00  0.00    +0.012 C 
ATOM     27  C   UNL     1      -0.007   0.019  -0.009  0.00  0.00    +0.013 C 
ATOM     28  C   UNL     1      -0.005   1.457  -0.532  0.00  0.00    +0.012 C 
ENDBRANCH  20  27
ENDBRANCH  16  23
ENDBRANCH   1  17
TORSDOF 4
