REMARK  Name = ZINC67134839
REMARK  8 active torsions:
REMARK  status: ('A' for Active; 'I' for Inactive)
REMARK    1  A    between atoms: C_3  and  C_6
REMARK    2  A    between atoms: C_6  and  C_7
REMARK    3  A    between atoms: C_7  and  C_8
REMARK    4  A    between atoms: C_8  and  C_9
REMARK    5  A    between atoms: C_9  and  C_10
REMARK    6  A    between atoms: C_10  and  C_11
REMARK    7  A    between atoms: N_13  and  C_14
REMARK    8  A    between atoms: C_22  and  C_27
REMARK                            x       y       z     vdW  Elec       q    Type
REMARK                         _______ _______ _______ _____ _____    ______ ____
ROOT
ATOM      1  C   UNL     1       9.858   3.974   5.828  0.00  0.00    +0.105 C 
ATOM      2  C   UNL     1      10.962   5.028   5.867  0.00  0.00    +0.027 C 
ATOM      3  C   UNL     1      11.579   5.023   7.271  0.00  0.00    +0.008 C 
ATOM      4  C   UNL     1      12.350   3.718   7.450  0.00  0.00    +0.054 C 
ATOM      5  C   UNL     1      11.489   2.534   7.087  0.00  0.00    +0.024 A 
ATOM      6  C   UNL     1      10.364   2.652   6.347  0.00  0.00    -0.007 A 
ATOM      7  C   UNL     1       9.613   1.511   6.032  0.00  0.00    +0.025 A 
ATOM      8  C   UNL     1      10.029   0.266   6.489  0.00  0.00    +0.101 A 
ATOM      9  C   UNL     1      11.213   0.192   7.268  0.00  0.00    +0.261 A 
ATOM     10  O   UNL     1      11.606  -0.882   7.687  0.00  0.00    -0.267 OA
ATOM     11  N   UNL     1      11.894   1.314   7.541  0.00  0.00    -0.325 N 
ATOM     12  H   UNL     1      12.701   1.255   8.076  0.00  0.00    +0.169 HD
ENDROOT
BRANCH   8  13
ATOM     13  C   UNL     1       9.261  -0.947   6.171  0.00  0.00    +0.247 C 
ATOM     14  O   UNL     1       8.194  -0.858   5.594  0.00  0.00    -0.270 OA
ATOM     15  N   UNL     1       9.739  -2.158   6.520  0.00  0.00    -0.325 N 
ATOM     16  H   UNL     1      10.553  -2.226   7.044  0.00  0.00    +0.145 HD
ATOM     17  H   UNL     1       9.270  -2.962   6.246  0.00  0.00    +0.145 HD
ENDBRANCH   8  13
BRANCH   1  20
ATOM     18  C   UNL     1       8.151   3.362   4.200  0.00  0.00    +0.213 C 
ATOM     19  O   UNL     1       7.407   3.100   5.122  0.00  0.00    -0.276 OA
ATOM     20  N   UNL     1       9.399   3.806   4.447  0.00  0.00    -0.308 N 
ATOM     21  H   UNL     1       9.994   4.015   3.710  0.00  0.00    +0.149 HD
BRANCH  18  22
ATOM     22  C   UNL     1       7.680   3.189   2.779  0.00  0.00    +0.096 C 
BRANCH  22  23
ATOM     23  C   UNL     1       6.238   2.677   2.779  0.00  0.00    +0.009 C 
BRANCH  23  24
ATOM     24  C   UNL     1       5.760   2.502   1.336  0.00  0.00    +0.001 C 
BRANCH  24  25
ATOM     25  C   UNL     1       4.318   1.989   1.336  0.00  0.00    +0.005 C 
BRANCH  25  26
ATOM     26  C   UNL     1       3.839   1.814  -0.107  0.00  0.00    +0.042 C 
BRANCH  26  29
ATOM     27  C   UNL     1       0.060   1.333  -0.111  0.00  0.00    +0.008 A 
ATOM     28  C   UNL     1       1.262   2.016  -0.111  0.00  0.00    +0.011 A 
ATOM     29  C   UNL     1       2.419   1.310  -0.107  0.00  0.00    -0.010 A 
ATOM     30  S   UNL     1       1.825  -0.374  -0.104  0.00  0.00    -0.102 S 
ATOM     31  C   UNL     1       0.074  -0.022  -0.108  0.00  0.00    +0.045 A 
ENDBRANCH  26  29
ENDBRANCH  25  26
ENDBRANCH  24  25
ENDBRANCH  23  24
ENDBRANCH  22  23
ENDBRANCH  18  22
ENDBRANCH   1  20
TORSDOF 8
