REMARK  Name = ZINC00858714
REMARK  11 active torsions:
REMARK  status: ('A' for Active; 'I' for Inactive)
REMARK    1  A    between atoms: C_1  and  C_2
REMARK    2  A    between atoms: C_2  and  O_3
REMARK    3  A    between atoms: O_3  and  C_4
REMARK    4  A    between atoms: C_7  and  N_10
REMARK    5  A    between atoms: N_10  and  C_11
REMARK    6  A    between atoms: C_11  and  N_13
REMARK    7  A    between atoms: N_13  and  C_14
REMARK    8  A    between atoms: C_16  and  C_21
REMARK    9  A    between atoms: C_16  and  C_22
REMARK   10  A    between atoms: C_17  and  C_19
REMARK   11  A    between atoms: C_17  and  C_20
REMARK                            x       y       z     vdW  Elec       q    Type
REMARK                         _______ _______ _______ _____ _____    ______ ____
ROOT
ATOM      1  N   UNL     1       1.545   3.282  -3.372  0.00  0.00    -0.324 N 
ATOM      2  H   UNL     1       1.969   2.550  -3.847  0.00  0.00    +0.148 HD
ENDROOT
BRANCH   1   3
ATOM      3  C   UNL     1       1.400   3.224  -1.913  0.00  0.00    +0.069 C 
ATOM      4  C   UNL     1       2.479   2.306  -1.336  0.00  0.00    +0.009 C 
ATOM      5  C   UNL     1       2.345   2.237   0.185  0.00  0.00    -0.072 C 
ATOM      6  C   UNL     1      -0.137   2.531  -0.052  0.00  0.00    -0.072 C 
ATOM      7  C   UNL     1       0.032   2.636  -1.565  0.00  0.00    +0.009 C 
ATOM      8  C   UNL     1      -1.383   1.657   0.216  0.00  0.00    -0.010 C 
ATOM      9  C   UNL     1      -0.426   3.920   0.529  0.00  0.00    -0.010 C 
ATOM     10  C   UNL     1       2.826   3.551   0.806  0.00  0.00    -0.010 C 
ATOM     11  C   UNL     1       3.287   1.120   0.684  0.00  0.00    -0.010 C 
ATOM     12  N   UNL     1       0.985   1.865   0.662  0.00  0.00    +0.386 N 
ATOM     13  H   UNL     1       0.919   2.109   1.657  0.00  0.00    -0.084 HD
ATOM     14  H   UNL     1       0.875   0.850   0.551  0.00  0.00    -0.084 HD
ENDBRANCH   1   3
BRANCH   1  15
ATOM     15  C   UNL     1       1.089   4.352  -4.053  0.00  0.00    +0.135 C 
ATOM     16  S   UNL     1       0.341   5.644  -3.216  0.00  0.00    -0.019 S 
BRANCH  15  17
ATOM     17  N   UNL     1       1.222   4.405  -5.393  0.00  0.00    -0.297 N 
ATOM     18  H   UNL     1       1.700   3.703  -5.861  0.00  0.00    +0.154 HD
BRANCH  17  22
ATOM     19  C   UNL     1      -0.420   7.588  -7.529  0.00  0.00    +0.121 A 
ATOM     20  C   UNL     1       0.296   7.829  -6.365  0.00  0.00    +0.047 A 
ATOM     21  C   UNL     1       0.840   6.776  -5.657  0.00  0.00    +0.027 A 
ATOM     22  C   UNL     1       0.670   5.474  -6.111  0.00  0.00    +0.033 A 
ATOM     23  C   UNL     1      -0.042   5.234  -7.278  0.00  0.00    +0.027 A 
ATOM     24  C   UNL     1      -0.590   6.288  -7.982  0.00  0.00    +0.047 A 
BRANCH  19  25
ATOM     25  O   UNL     1      -0.955   8.626  -8.225  0.00  0.00    -0.492 OA
BRANCH  25  27
ATOM     26  C   UNL     1      -2.203   9.591 -10.056  0.00  0.00    +0.048 C 
ATOM     27  C   UNL     1      -1.680   8.305  -9.414  0.00  0.00    +0.225 C 
ENDBRANCH  25  27
ENDBRANCH  19  25
ENDBRANCH  17  22
ENDBRANCH  15  17
ENDBRANCH   1  15
TORSDOF 6
