REMARK  Name = ZINC13800122
REMARK  13 active torsions:
REMARK  status: ('A' for Active; 'I' for Inactive)
REMARK    1  A    between atoms: C_1  and  C_2
REMARK    2  A    between atoms: C_4  and  C_25
REMARK    3  A    between atoms: C_6  and  C_16
REMARK    4  A    between atoms: C_8  and  C_15
REMARK    5  A    between atoms: C_10  and  C_11
REMARK    6  A    between atoms: C_10  and  O_14
REMARK    7  A    between atoms: C_11  and  C_12
REMARK    8  A    between atoms: C_19  and  N_22
REMARK    9  A    between atoms: N_22  and  C_23
REMARK   10  A    between atoms: N_22  and  C_24
REMARK   11  A    between atoms: C_28  and  N_31
REMARK   12  A    between atoms: N_31  and  C_32
REMARK   13  A    between atoms: N_31  and  C_33
REMARK                            x       y       z     vdW  Elec       q    Type
REMARK                         _______ _______ _______ _____ _____    ______ ____
ROOT
ATOM      1  C   UNL     1      -0.573   5.770  -0.836  0.00  0.00    +0.009 C 
ATOM      2  C   UNL     1      -1.967   5.247  -1.181  0.00  0.00    +0.008 C 
ATOM      3  C   UNL     1      -2.451   5.838  -2.498  0.00  0.00    -0.034 C 
ATOM      4  C   UNL     1      -2.027   3.792  -3.704  0.00  0.00    -0.034 C 
ATOM      5  C   UNL     1      -1.516   3.079  -2.458  0.00  0.00    +0.008 C 
ATOM      6  C   UNL     1      -2.007   3.727  -1.173  0.00  0.00    +0.072 C 
ATOM      7  C   UNL     1       0.008   2.975  -2.485  0.00  0.00    +0.009 C 
ATOM      8  N   UNL     1      -1.744   5.233  -3.636  0.00  0.00    +0.389 N 
ATOM      9  H   UNL     1      -0.734   5.375  -3.522  0.00  0.00    -0.084 HD
ATOM     10  H   UNL     1      -2.056   5.680  -4.506  0.00  0.00    -0.084 HD
ENDROOT
BRANCH   4  11
ATOM     11  C   UNL     1      -1.355   3.216  -4.924  0.00  0.00    -0.061 A 
ATOM     12  C   UNL     1      -0.089   3.644  -5.282  0.00  0.00    +0.004 A 
ATOM     13  C   UNL     1       0.531   3.115  -6.396  0.00  0.00    +0.023 A 
ATOM     14  C   UNL     1      -0.121   2.159  -7.164  0.00  0.00    +0.029 A 
ATOM     15  C   UNL     1      -1.395   1.735  -6.805  0.00  0.00    +0.023 A 
ATOM     16  C   UNL     1      -2.007   2.265  -5.687  0.00  0.00    +0.004 A 
BRANCH  14  17
ATOM     17  N   UNL     1       0.501   1.626  -8.295  0.00  0.00    -0.336 N 
ATOM     18  C   UNL     1      -0.189   0.618  -9.104  0.00  0.00    +0.129 C 
ATOM     19  C   UNL     1       1.844   2.074  -8.672  0.00  0.00    +0.129 C 
ENDBRANCH  14  17
ENDBRANCH   4  11
BRANCH   3  20
ATOM     20  C   UNL     1      -2.206   7.325  -2.503  0.00  0.00    -0.061 A 
ATOM     21  C   UNL     1      -0.943   7.816  -2.780  0.00  0.00    +0.004 A 
ATOM     22  C   UNL     1      -0.716   9.178  -2.791  0.00  0.00    +0.023 A 
ATOM     23  C   UNL     1      -1.756  10.056  -2.511  0.00  0.00    +0.029 A 
ATOM     24  C   UNL     1      -3.022   9.560  -2.227  0.00  0.00    +0.023 A 
ATOM     25  C   UNL     1      -3.243   8.196  -2.224  0.00  0.00    +0.004 A 
BRANCH  23  26
ATOM     26  N   UNL     1      -1.529  11.434  -2.514  0.00  0.00    -0.336 N 
ATOM     27  C   UNL     1      -2.649  12.361  -2.342  0.00  0.00    +0.129 C 
ATOM     28  C   UNL     1      -0.169  11.951  -2.689  0.00  0.00    +0.129 C 
ENDBRANCH  23  26
ENDBRANCH   3  20
BRANCH   6  29
ATOM     29  O   UNL     1      -3.362   3.304  -0.934  0.00  0.00    -0.388 OA
ATOM     30  H   UNL     1      -3.471   2.345  -0.876  0.00  0.00    +0.210 HD
ENDBRANCH   6  29
BRANCH   6  31
ATOM     31  C   UNL     1      -1.148   3.215  -0.002  0.00  0.00    +0.061 C 
BRANCH  31  32
ATOM     32  C   UNL     1      -1.128   1.708  -0.015  0.00  0.00    -0.032 C 
ATOM     33  C   UNL     1       0.015   1.069  -0.039  0.00  0.00    +0.004 C 
ENDBRANCH  31  32
ENDBRANCH   6  31
TORSDOF 7
