REMARK  Name = ZINC21318432
REMARK  8 active torsions:
REMARK  status: ('A' for Active; 'I' for Inactive)
REMARK    1  A    between atoms: C_1  and  C_2
REMARK    2  A    between atoms: C_2  and  C_24
REMARK    3  A    between atoms: N_3  and  N_4
REMARK    4  A    between atoms: C_8  and  S_11
REMARK    5  A    between atoms: N_9  and  N_10
REMARK    6  A    between atoms: S_11  and  C_12
REMARK    7  A    between atoms: C_12  and  C_13
REMARK    8  A    between atoms: N_15  and  C_16
REMARK                            x       y       z     vdW  Elec       q    Type
REMARK                         _______ _______ _______ _____ _____    ______ ____
ROOT
ATOM      1  N   UNL     1      -7.635   2.298  -0.484  0.00  0.00    -0.204 N 
ATOM      2  C   UNL     1      -6.252   2.338  -0.392  0.00  0.00    +0.254 A 
ATOM      3  N   UNL     1      -5.522   3.410  -0.202  0.00  0.00    -0.109 NA
ATOM      4  N   UNL     1      -4.177   3.018  -0.166  0.00  0.00    -0.119 NA
ATOM      5  C   UNL     1      -4.129   1.720  -0.344  0.00  0.00    +0.210 A 
ATOM      6  N   UNL     1      -5.409   1.265  -0.485  0.00  0.00    -0.211 N 
ATOM      7  H   UNL     1      -8.149   1.339  -0.646  0.00  0.00    +0.178 HD
ENDROOT
BRANCH   1  10
ATOM      8  C   UNL     1     -10.377   2.129  -0.677  0.00  0.00    +0.068 C 
ATOM      9  C   UNL     1      -9.674   3.443  -0.456  0.00  0.00    +0.063 C 
ATOM     10  N   UNL     1      -8.379   3.480  -0.370  0.00  0.00    -0.184 NA
BRANCH   9  11
ATOM     11  C   UNL     1     -10.457   4.687  -0.336  0.00  0.00    +0.001 A 
ATOM     12  C   UNL     1     -11.850   4.649  -0.427  0.00  0.00    +0.013 A 
ATOM     13  C   UNL     1     -12.580   5.814  -0.315  0.00  0.00    +0.050 A 
ATOM     14  C   UNL     1     -11.935   7.026  -0.111  0.00  0.00    +0.166 A 
ATOM     15  C   UNL     1     -10.544   7.070  -0.018  0.00  0.00    +0.167 A 
ATOM     16  C   UNL     1      -9.807   5.906  -0.124  0.00  0.00    +0.059 A 
ATOM     17  O   UNL     1     -10.162   8.366   0.181  0.00  0.00    -0.453 OA
ATOM     18  C   UNL     1     -11.349   9.054   0.618  0.00  0.00    +0.466 C 
ATOM     19  O   UNL     1     -12.421   8.293   0.030  0.00  0.00    -0.453 OA
ENDBRANCH   9  11
ENDBRANCH   1  10
BRANCH   6  20
ATOM     20  N   UNL     1      -5.782  -0.034  -0.684  0.00  0.00    -0.294 N 
ATOM     21  H   UNL     1      -5.018  -0.823  -0.743  0.00  0.00    +0.163 HD
ATOM     22  H   UNL     1      -6.847  -0.291  -0.784  0.00  0.00    +0.163 HD
ENDBRANCH   6  20
BRANCH   5  23
ATOM     23  S   UNL     1      -2.669   0.735  -0.387  0.00  0.00    -0.075 S 
BRANCH  23  24
ATOM     24  C   UNL     1      -1.326   1.929  -0.142  0.00  0.00    +0.173 C 
BRANCH  24  25
ATOM     25  C   UNL     1      -0.003   1.208  -0.158  0.00  0.00    +0.227 C 
ATOM     26  O   UNL     1       0.031   0.006  -0.318  0.00  0.00    -0.275 OA
ATOM     27  N   UNL     1       1.143   1.898   0.001  0.00  0.00    -0.285 N 
ATOM     28  H   UNL     1       1.120   2.997   0.060  0.00  0.00    +0.155 HD
BRANCH  27  29
ATOM     29  C   UNL     1       2.363   1.219   0.092  0.00  0.00    +0.036 A 
ATOM     30  C   UNL     1       2.420  -0.030   0.696  0.00  0.00    +0.043 A 
ATOM     31  C   UNL     1       3.626  -0.702   0.780  0.00  0.00    +0.044 A 
ATOM     32  C   UNL     1       4.777  -0.126   0.271  0.00  0.00    +0.040 A 
ATOM     33  C   UNL     1       4.724   1.121  -0.326  0.00  0.00    +0.044 A 
ATOM     34  C   UNL     1       3.520   1.795  -0.417  0.00  0.00    +0.043 A 
ATOM     35 CL   UNL     1       6.170   1.841  -0.963  0.00  0.00    -0.083 Cl
ATOM     36 CL   UNL     1       3.697  -2.266   1.530  0.00  0.00    -0.083 Cl
ENDBRANCH  27  29
ENDBRANCH  24  25
ENDBRANCH  23  24
ENDBRANCH   5  23
TORSDOF 7
