REMARK  Name = ZINC63131366
REMARK  5 active torsions:
REMARK  status: ('A' for Active; 'I' for Inactive)
REMARK    1  A    between atoms: C_1  and  S_2
REMARK    2  A    between atoms: S_2  and  C_5
REMARK    3  A    between atoms: C_8  and  S_11
REMARK    4  A    between atoms: S_11  and  C_12
REMARK    5  A    between atoms: C_15  and  C_19
REMARK                            x       y       z     vdW  Elec       q    Type
REMARK                         _______ _______ _______ _____ _____    ______ ____
ROOT
ATOM      1  C   UNL     1       4.717  -1.505  -4.853  0.00  0.00    +0.031 A 
ATOM      2  C   UNL     1       5.081  -1.274  -3.529  0.00  0.00    +0.017 A 
ATOM      3  C   UNL     1       6.411  -1.236  -3.176  0.00  0.00    +0.012 A 
ATOM      4  C   UNL     1       7.396  -1.430  -4.148  0.00  0.00    +0.014 A 
ATOM      5  C   UNL     1       7.029  -1.661  -5.476  0.00  0.00    +0.032 A 
ATOM      6  C   UNL     1       5.696  -1.704  -5.823  0.00  0.00    +0.055 A 
ATOM      7 CL   UNL     1       5.238  -1.998  -7.471  0.00  0.00    -0.082 Cl
ENDROOT
BRANCH   4   8
ATOM      8  C   UNL     1       8.824  -1.389  -3.772  0.00  0.00    +0.094 C 
ATOM      9  N   UNL     1       9.763  -1.573  -4.700  0.00  0.00    -0.387 N 
ATOM     10  N   UNL     1       9.173  -1.167  -2.505  0.00  0.00    -0.345 N 
ATOM     11  H   UNL     1       9.508  -1.735  -5.622  0.00  0.00    +0.157 HD
ATOM     12  H   UNL     1       8.490  -1.032  -1.830  0.00  0.00    +0.144 HD
ATOM     13  H   UNL     1      10.111  -1.140  -2.259  0.00  0.00    +0.144 HD
ATOM     14  H   UNL     1      10.700  -1.546  -4.453  0.00  0.00    +0.157 HD
ENDBRANCH   4   8
BRANCH   1  15
ATOM     15  S   UNL     1       3.013  -1.553  -5.300  0.00  0.00    -0.088 S 
BRANCH  15  19
ATOM     16  C   UNL     1       0.846  -0.405  -1.493  0.00  0.00    +0.088 A 
ATOM     17  C   UNL     1       1.317   0.580  -2.342  0.00  0.00    +0.028 A 
ATOM     18  C   UNL     1       1.978   0.234  -3.503  0.00  0.00    +0.017 A 
ATOM     19  C   UNL     1       2.170  -1.106  -3.819  0.00  0.00    +0.013 A 
ATOM     20  C   UNL     1       1.696  -2.093  -2.963  0.00  0.00    +0.017 A 
ATOM     21  C   UNL     1       1.040  -1.739  -1.800  0.00  0.00    +0.028 A 
BRANCH  16  23
ATOM     22  C   UNL     1       1.305   0.183   1.243  0.00  0.00    +0.200 C 
ATOM     23  S   UNL     1       0.002   0.042  -0.012  0.00  0.00    -0.006 S 
ATOM     24  O   UNL     1      -0.837  -1.069   0.277  0.00  0.00    -0.170 OA
ATOM     25  O   UNL     1      -0.556   1.320  -0.284  0.00  0.00    -0.170 OA
ENDBRANCH  16  23
ENDBRANCH  15  19
ENDBRANCH   1  15
TORSDOF 4
