REMARK  Name = ZINC52469391
REMARK  5 active torsions:
REMARK  status: ('A' for Active; 'I' for Inactive)
REMARK    1  A    between atoms: C_1  and  C_2
REMARK    2  A    between atoms: C_2  and  C_4
REMARK    3  A    between atoms: C_2  and  N_14
REMARK    4  A    between atoms: N_17  and  C_18
REMARK    5  A    between atoms: C_22  and  C_24
REMARK                            x       y       z     vdW  Elec       q    Type
REMARK                         _______ _______ _______ _____ _____    ______ ____
ROOT
ATOM      1  N   UNL     1       0.687  -0.482  -1.202  0.00  0.00    -0.293 N 
ATOM      2  C   UNL     1       2.031  -0.585  -1.216  0.00  0.00    +0.304 C 
ATOM      3  O   UNL     1       2.674  -0.284  -0.229  0.00  0.00    -0.252 OA
ATOM      4  N   UNL     1       2.662  -1.022  -2.324  0.00  0.00    -0.269 N 
ATOM      5  H   UNL     1       0.174  -0.722  -1.989  0.00  0.00    +0.151 HD
ATOM      6  H   UNL     1       2.147  -1.325  -3.087  0.00  0.00    +0.156 HD
ENDROOT
BRANCH   4   7
ATOM      7  C   UNL     1       4.061  -1.037  -2.373  0.00  0.00    +0.035 A 
ATOM      8  C   UNL     1       4.718  -0.758  -3.565  0.00  0.00    +0.023 A 
ATOM      9  C   UNL     1       6.098  -0.772  -3.619  0.00  0.00    +0.002 A 
ATOM     10  C   UNL     1       6.835  -1.064  -2.488  0.00  0.00    +0.012 A 
ATOM     11  C   UNL     1       6.184  -1.346  -1.286  0.00  0.00    +0.021 A 
ATOM     12  C   UNL     1       4.790  -1.326  -1.230  0.00  0.00    +0.035 A 
BRANCH  11  13
ATOM     13  C   UNL     1       6.970  -1.658  -0.073  0.00  0.00    +0.153 A 
ATOM     14  C   UNL     1       8.323  -1.703   0.025  0.00  0.00    +0.132 A 
ATOM     15  N   UNL     1       8.626  -2.022   1.292  0.00  0.00    -0.335 N 
ATOM     16  C   UNL     1       7.520  -2.172   1.966  0.00  0.00    +0.284 A 
ATOM     17  O   UNL     1       6.479  -1.949   1.152  0.00  0.00    -0.444 OA
ATOM     18  H   UNL     1       9.522  -2.125   1.649  0.00  0.00    +0.168 HD
ENDBRANCH  11  13
ENDBRANCH   4   7
BRANCH   1  20
ATOM     19  C   UNL     1      -0.028   1.522   0.004  0.00  0.00    +0.033 C 
ATOM     20  C   UNL     1       0.002  -0.007   0.003  0.00  0.00    +0.102 C 
BRANCH  20  21
ATOM     21  C   UNL     1      -1.409  -0.537   0.019  0.00  0.00    -0.024 A 
ATOM     22  C   UNL     1      -2.140  -0.590  -1.153  0.00  0.00    +0.009 A 
ATOM     23  C   UNL     1      -3.435  -1.073  -1.142  0.00  0.00    +0.050 A 
ATOM     24  C   UNL     1      -4.004  -1.508   0.046  0.00  0.00    +0.162 A 
ATOM     25  C   UNL     1      -3.268  -1.457   1.224  0.00  0.00    +0.162 A 
ATOM     26  C   UNL     1      -1.968  -0.974   1.205  0.00  0.00    +0.055 A 
ATOM     27  O   UNL     1      -3.805  -1.885   2.399  0.00  0.00    -0.485 OA
ATOM     28  C   UNL     1      -5.230  -2.019   2.446  0.00  0.00    +0.270 C 
ATOM     29  C   UNL     1      -5.685  -2.752   1.177  0.00  0.00    +0.270 C 
ATOM     30  O   UNL     1      -5.281  -1.978   0.042  0.00  0.00    -0.485 OA
ENDBRANCH  20  21
ENDBRANCH   1  20
TORSDOF 4
