REMARK  Name = ZINC49543341
REMARK  11 active torsions:
REMARK  status: ('A' for Active; 'I' for Inactive)
REMARK    1  A    between atoms: C_1  and  O_2
REMARK    2  A    between atoms: O_2  and  C_3
REMARK    3  A    between atoms: C_6  and  C_11
REMARK    4  A    between atoms: C_7  and  O_9
REMARK    5  A    between atoms: O_9  and  C_10
REMARK    6  A    between atoms: N_19  and  C_25
REMARK    7  A    between atoms: C_21  and  C_22
REMARK    8  A    between atoms: C_28  and  O_33
REMARK    9  A    between atoms: C_30  and  O_31
REMARK   10  A    between atoms: O_31  and  C_32
REMARK   11  A    between atoms: O_33  and  C_34
REMARK                            x       y       z     vdW  Elec       q    Type
REMARK                         _______ _______ _______ _____ _____    ______ ____
ROOT
ATOM      1  C   UNL     1      -6.167  -2.539  -0.043  0.00  0.00    +0.080 C 
ATOM      2  C   UNL     1      -7.144  -2.028  -1.105  0.00  0.00    +0.110 C 
ATOM      3  C   UNL     1      -7.561  -0.611  -0.835  0.00  0.00    +0.218 C 
ATOM      4  O   UNL     1      -7.733   0.141  -1.771  0.00  0.00    -0.275 OA
ATOM      5  N   UNL     1      -7.752  -0.148   0.421  0.00  0.00    -0.283 N 
ATOM      6  C   UNL     1      -7.415  -0.994   1.486  0.00  0.00    +0.070 A 
ATOM      7  C   UNL     1      -6.673  -2.124   1.317  0.00  0.00    +0.054 A 
ATOM      8  N   UNL     1      -6.510  -2.733   2.523  0.00  0.00    -0.314 N 
ATOM      9  C   UNL     1      -7.131  -2.029   3.493  0.00  0.00    +0.108 A 
ATOM     10  C   UNL     1      -7.729  -0.908   2.907  0.00  0.00    +0.102 A 
ATOM     11  H   UNL     1      -8.109   0.740   0.580  0.00  0.00    +0.155 HD
ENDROOT
BRANCH   1  15
ATOM     12  C   UNL     1      -2.297  -0.845  -0.712  0.00  0.00    +0.124 A 
ATOM     13  C   UNL     1      -3.361  -0.032  -0.346  0.00  0.00    +0.046 A 
ATOM     14  C   UNL     1      -4.610  -0.582  -0.130  0.00  0.00    +0.011 A 
ATOM     15  C   UNL     1      -4.804  -1.942  -0.279  0.00  0.00    +0.004 A 
ATOM     16  C   UNL     1      -3.744  -2.759  -0.645  0.00  0.00    +0.127 A 
ATOM     17  C   UNL     1      -2.491  -2.209  -0.868  0.00  0.00    +0.091 A 
BRANCH  12  19
ATOM     18  C   UNL     1      -0.943   1.108  -0.745  0.00  0.00    +0.277 C 
ATOM     19  O   UNL     1      -1.069  -0.304  -0.924  0.00  0.00    -0.495 OA
ENDBRANCH  12  19
BRANCH  16  20
ATOM     20  O   UNL     1      -3.935  -4.097  -0.792  0.00  0.00    -0.495 OA
ATOM     21  C   UNL     1      -2.834  -4.859  -1.291  0.00  0.00    +0.277 C 
ENDBRANCH  16  20
ENDBRANCH   1  15
BRANCH   8  22
ATOM     22  C   UNL     1      -5.796  -3.924   2.730  0.00  0.00    +0.089 A 
ATOM     23  C   UNL     1      -6.476  -5.103   2.998  0.00  0.00    +0.033 A 
ATOM     24  C   UNL     1      -5.774  -6.275   3.201  0.00  0.00    +0.048 A 
ATOM     25  C   UNL     1      -4.388  -6.277   3.138  0.00  0.00    +0.124 A 
ATOM     26  C   UNL     1      -3.704  -5.101   2.870  0.00  0.00    +0.093 A 
ATOM     27  C   UNL     1      -4.405  -3.924   2.660  0.00  0.00    +0.147 A 
BRANCH  27  28
ATOM     28  O   UNL     1      -3.736  -2.771   2.393  0.00  0.00    -0.493 OA
ATOM     29  C   UNL     1      -2.311  -2.813   2.479  0.00  0.00    +0.277 C 
ENDBRANCH  27  28
BRANCH  25  30
ATOM     30  O   UNL     1      -3.700  -7.432   3.339  0.00  0.00    -0.495 OA
ATOM     31  C   UNL     1      -4.468  -8.605   3.610  0.00  0.00    +0.277 C 
ENDBRANCH  25  30
ENDBRANCH   8  22
BRANCH  10  32
ATOM     32  C   UNL     1      -8.510   0.134   3.580  0.00  0.00    +0.390 C 
ATOM     33  O   UNL     1      -8.694   0.076   4.789  0.00  0.00    -0.240 OA
ATOM     34  O   UNL     1      -8.977   1.062   2.934  0.00  0.00    -0.240 OA
ENDBRANCH  10  32
TORSDOF 7
