REMARK  Name = ZINC09594576
REMARK  9 active torsions:
REMARK  status: ('A' for Active; 'I' for Inactive)
REMARK    1  A    between atoms: C_1  and  N_49
REMARK    2  A    between atoms: C_2  and  C_3
REMARK    3  A    between atoms: C_2  and  N_49
REMARK    4  A    between atoms: C_6  and  C_8
REMARK    5  A    between atoms: C_15  and  C_16
REMARK    6  A    between atoms: C_15  and  N_49
REMARK    7  A    between atoms: N_18  and  C_19
REMARK    8  A    between atoms: C_22  and  S_25
REMARK    9  A    between atoms: S_25  and  N_28
REMARK                            x       y       z     vdW  Elec       q    Type
REMARK                         _______ _______ _______ _____ _____    ______ ____
ROOT
ATOM      1  C   UNL     1       1.396   1.865  -0.052  0.00  0.00    +0.019 C 
ENDROOT
BRANCH   1   2
ATOM      2  C   UNL     1       2.104   1.512   1.231  0.00  0.00    +0.201 C 
ATOM      3  O   UNL     1       1.591   0.744   2.016  0.00  0.00    -0.278 OA
ATOM      4  N   UNL     1       3.309   2.051   1.505  0.00  0.00    -0.287 N 
ATOM      5  H   UNL     1       3.754   2.605   0.845  0.00  0.00    +0.155 HD
BRANCH   4   6
ATOM      6  C   UNL     1       3.917   1.812   2.742  0.00  0.00    +0.033 A 
ATOM      7  C   UNL     1       3.139   1.668   3.884  0.00  0.00    +0.025 A 
ATOM      8  C   UNL     1       3.742   1.425   5.102  0.00  0.00    +0.030 A 
ATOM      9  C   UNL     1       5.119   1.338   5.189  0.00  0.00    +0.105 A 
ATOM     10  C   UNL     1       5.897   1.487   4.055  0.00  0.00    +0.030 A 
ATOM     11  C   UNL     1       5.300   1.724   2.833  0.00  0.00    +0.025 A 
BRANCH   9  12
ATOM     12  S   UNL     1       5.885   1.036   6.747  0.00  0.00    +0.056 S 
ATOM     13  O   UNL     1       4.912   0.392   7.559  0.00  0.00    -0.153 OA
ATOM     14  O   UNL     1       7.152   0.456   6.471  0.00  0.00    -0.153 OA
BRANCH  12  15
ATOM     15  N   UNL     1       6.180   2.510   7.441  0.00  0.00    -0.204 NA
ATOM     16  H   UNL     1       6.179   2.600   8.407  0.00  0.00    +0.144 HD
ATOM     17  H   UNL     1       6.353   3.284   6.882  0.00  0.00    +0.144 HD
ENDBRANCH  12  15
ENDBRANCH   9  12
ENDBRANCH   4   6
ENDBRANCH   1   2
BRANCH   1  19
ATOM     18  C   UNL     1       0.319  -0.297  -0.216  0.00  0.00    -0.095 C 
ATOM     19  N   UNL     1       0.098   1.159  -0.089  0.00  0.00    +0.388 N 
ATOM     20  H   UNL     1      -0.408   1.344   0.785  0.00  0.00    -0.081 HD
BRANCH  19  21
ATOM     21  C   UNL     1      -0.711   1.648  -1.225  0.00  0.00    -0.003 C 
BRANCH  21  22
ATOM     22  C   UNL     1      -2.102   1.078  -1.113  0.00  0.00    +0.089 A 
ATOM     23  C   UNL     1      -3.130   1.641  -0.448  0.00  0.00    +0.043 A 
ATOM     24  C   UNL     1      -4.238   0.783  -0.598  0.00  0.00    +0.050 A 
ATOM     25  C   UNL     1      -3.821  -0.267  -1.354  0.00  0.00    +0.135 A 
ATOM     26  O   UNL     1      -2.524  -0.072  -1.663  0.00  0.00    -0.462 OA
BRANCH  25  27
ATOM     27  C   UNL     1      -4.647  -1.419  -1.770  0.00  0.00    +0.017 A 
ATOM     28  C   UNL     1      -5.985  -1.499  -1.379  0.00  0.00    +0.012 A 
ATOM     29  C   UNL     1      -6.753  -2.574  -1.774  0.00  0.00    +0.016 A 
ATOM     30  C   UNL     1      -6.197  -3.578  -2.548  0.00  0.00    +0.018 A 
ATOM     31  C   UNL     1      -4.870  -3.507  -2.935  0.00  0.00    +0.016 A 
ATOM     32  C   UNL     1      -4.093  -2.434  -2.550  0.00  0.00    +0.012 A 
ATOM     33 BR   UNL     1      -7.255  -5.053  -3.079  0.00  0.00    -0.050 Br
ENDBRANCH  25  27
ENDBRANCH  21  22
ENDBRANCH  19  21
ENDBRANCH   1  19
TORSDOF 8
