REMARK  Name = ZINC40348175
REMARK  9 active torsions:
REMARK  status: ('A' for Active; 'I' for Inactive)
REMARK    1  A    between atoms: C_1  and  C_2
REMARK    2  A    between atoms: C_2  and  C_4
REMARK    3  A    between atoms: C_2  and  N_18
REMARK    4  A    between atoms: C_4  and  N_5
REMARK    5  A    between atoms: N_5  and  S_6
REMARK    6  A    between atoms: S_6  and  C_9
REMARK    7  A    between atoms: C_11  and  N_17
REMARK    8  A    between atoms: N_18  and  C_19
REMARK    9  A    between atoms: N_18  and  C_20
REMARK                            x       y       z     vdW  Elec       q    Type
REMARK                         _______ _______ _______ _____ _____    ______ ____
ROOT
ATOM      1  S   UNL     1       1.453  -2.700   2.880  0.00  0.00    +0.061 S 
ATOM      2  O   UNL     1       1.132  -4.084   2.904  0.00  0.00    -0.153 OA
ATOM      3  O   UNL     1       2.778  -2.229   2.678  0.00  0.00    -0.153 OA
ENDROOT
BRANCH   1   4
ATOM      4  C   UNL     1       0.908  -2.030   4.415  0.00  0.00    +0.143 A 
ATOM      5  C   UNL     1       0.329  -2.854   5.361  0.00  0.00    +0.054 A 
ATOM      6  C   UNL     1      -0.100  -2.326   6.572  0.00  0.00    +0.028 A 
ATOM      7  C   UNL     1       0.054  -0.970   6.830  0.00  0.00    +0.045 A 
ATOM      8  C   UNL     1       0.634  -0.149   5.881  0.00  0.00    +0.080 A 
ATOM      9  C   UNL     1       1.066  -0.680   4.676  0.00  0.00    +0.168 A 
ATOM     10  F   UNL     1       1.637   0.123   3.751  0.00  0.00    -0.202 F 
ATOM     11 CL   UNL     1       0.826   1.546   6.202  0.00  0.00    -0.080 Cl
BRANCH   6  12
ATOM     12  N   UNL     1      -0.687  -3.159   7.530  0.00  0.00    -0.358 N 
ATOM     13  H   UNL     1      -0.794  -4.106   7.349  0.00  0.00    +0.142 HD
ATOM     14  H   UNL     1      -0.986  -2.789   8.375  0.00  0.00    +0.142 HD
ENDBRANCH   6  12
ENDBRANCH   1   4
BRANCH   1  15
ATOM     15  N   UNL     1       0.522  -2.020   1.691  0.00  0.00    -0.191 NA
ATOM     16  H   UNL     1      -0.077  -2.574   1.167  0.00  0.00    +0.148 HD
BRANCH  15  17
ATOM     17  C   UNL     1       0.604  -0.580   1.431  0.00  0.00    +0.090 C 
BRANCH  17  19
ATOM     18  C   UNL     1       0.003   1.239  -0.173  0.00  0.00    -0.012 C 
ATOM     19  C   UNL     1      -0.023  -0.271   0.070  0.00  0.00    -0.057 C 
BRANCH  19  20
ATOM     20  N   UNL     1      -1.413  -0.747   0.051  0.00  0.00    +0.379 N 
ATOM     21  C   UNL     1      -2.204   0.016   1.026  0.00  0.00    -0.096 C 
ATOM     22  C   UNL     1      -1.977  -0.558  -1.292  0.00  0.00    -0.096 C 
ATOM     23  H   UNL     1      -1.436  -1.726   0.291  0.00  0.00    -0.082 HD
ENDBRANCH  19  20
ENDBRANCH  17  19
ENDBRANCH  15  17
ENDBRANCH   1  15
TORSDOF 6
