REMARK  Name = ZINC67339977
REMARK  9 active torsions:
REMARK  status: ('A' for Active; 'I' for Inactive)
REMARK    1  A    between atoms: C_1  and  C_2
REMARK    2  A    between atoms: C_2  and  C_3
REMARK    3  A    between atoms: C_3  and  C_4
REMARK    4  A    between atoms: C_4  and  C_5
REMARK    5  A    between atoms: C_5  and  C_7
REMARK    6  A    between atoms: C_5  and  N_23
REMARK    7  A    between atoms: C_11  and  N_20
REMARK    8  A    between atoms: N_20  and  C_21
REMARK    9  A    between atoms: N_20  and  C_22
REMARK                            x       y       z     vdW  Elec       q    Type
REMARK                         _______ _______ _______ _____ _____    ______ ____
ROOT
ATOM      1  C   UNL     1      -2.828  -4.096   0.131  0.00  0.00    +0.240 C 
ATOM      2  O   UNL     1      -2.733  -2.891   0.024  0.00  0.00    -0.273 OA
ATOM      3  N   UNL     1      -2.741  -4.673   1.346  0.00  0.00    -0.271 N 
ATOM      4  C   UNL     1      -2.715  -6.136   1.477  0.00  0.00    +0.099 C 
ATOM      5  C   UNL     1      -1.616  -6.496   2.485  0.00  0.00    -0.047 C 
ATOM      6  C   UNL     1      -1.984  -5.910   3.848  0.00  0.00    +0.023 C 
ATOM      7  C   UNL     1      -2.313  -4.446   3.721  0.00  0.00    -0.027 A 
ATOM      8  C   UNL     1      -2.669  -3.888   2.505  0.00  0.00    +0.039 A 
ATOM      9  C   UNL     1      -2.966  -2.532   2.423  0.00  0.00    +0.024 A 
ATOM     10  C   UNL     1      -2.897  -1.741   3.553  0.00  0.00    +0.002 A 
ATOM     11  C   UNL     1      -2.533  -2.299   4.764  0.00  0.00    +0.000 A 
ATOM     12  C   UNL     1      -2.252  -3.645   4.849  0.00  0.00    +0.005 A 
ENDROOT
BRANCH   5  13
ATOM     13  N   UNL     1      -1.502  -7.957   2.589  0.00  0.00    +0.379 N 
ATOM     14  C   UNL     1      -1.161  -8.517   1.275  0.00  0.00    -0.096 C 
ATOM     15  C   UNL     1      -0.450  -8.299   3.555  0.00  0.00    -0.096 C 
ATOM     16  H   UNL     1      -2.382  -8.341   2.900  0.00  0.00    -0.082 HD
ENDBRANCH   5  13
BRANCH   1  17
ATOM     17  C   UNL     1      -3.044  -4.946  -1.094  0.00  0.00    +0.161 C 
BRANCH  17  18
ATOM     18  N   UNL     1      -2.835  -4.134  -2.296  0.00  0.00    -0.288 N 
ATOM     19  C   UNL     1      -3.600  -3.047  -2.515  0.00  0.00    +0.298 C 
ATOM     20  O   UNL     1      -4.464  -2.740  -1.716  0.00  0.00    -0.253 OA
ATOM     21  N   UNL     1      -3.408  -2.300  -3.620  0.00  0.00    -0.313 N 
ATOM     22  H   UNL     1      -2.146  -4.379  -2.933  0.00  0.00    +0.151 HD
ATOM     23  H   UNL     1      -2.719  -2.545  -4.258  0.00  0.00    +0.146 HD
ATOM     24  H   UNL     1      -3.959  -1.517  -3.779  0.00  0.00    +0.146 HD
ENDBRANCH  17  18
BRANCH  17  25
ATOM     25  C   UNL     1      -4.473  -5.493  -1.090  0.00  0.00    +0.032 C 
BRANCH  25  26
ATOM     26  C   UNL     1      -4.654  -6.455  -2.266  0.00  0.00    +0.002 C 
BRANCH  26  28
ATOM     27  C   UNL     1      -6.264  -7.965  -3.437  0.00  0.00    +0.004 C 
ATOM     28  C   UNL     1      -6.083  -7.002  -2.262  0.00  0.00    -0.003 C 
ENDBRANCH  26  28
ENDBRANCH  25  26
ENDBRANCH  17  25
ENDBRANCH   1  17
TORSDOF 6
