REMARK  Name = ZINC50391736
REMARK  4 active torsions:
REMARK  status: ('A' for Active; 'I' for Inactive)
REMARK    1  A    between atoms: C_1  and  C_2
REMARK    2  A    between atoms: C_2  and  C_4
REMARK    3  A    between atoms: C_2  and  N_7
REMARK    4  A    between atoms: C_4  and  C_5
REMARK                            x       y       z     vdW  Elec       q    Type
REMARK                         _______ _______ _______ _____ _____    ______ ____
ROOT
ATOM      1  N   UNL     1      -1.372  -0.511   0.012  0.00  0.00    -0.238 N 
ATOM      2  C   UNL     1      -2.172  -0.183   1.038  0.00  0.00    +0.223 C 
ATOM      3  O   UNL     1      -1.744   0.529   1.921  0.00  0.00    -0.275 OA
ATOM      4  C   UNL     1      -3.591  -0.682   1.114  0.00  0.00    +0.103 C 
ATOM      5  C   UNL     1      -4.124  -0.899  -0.305  0.00  0.00    -0.013 C 
ATOM      6  C   UNL     1      -4.187   0.440  -1.039  0.00  0.00    +0.008 C 
ATOM      7  C   UNL     1      -4.718   0.220  -2.458  0.00  0.00    +0.001 C 
ATOM      8  C   UNL     1      -6.117  -0.393  -2.389  0.00  0.00    +0.000 C 
ATOM      9  C   UNL     1      -6.051  -1.736  -1.658  0.00  0.00    +0.001 C 
ATOM     10  C   UNL     1      -5.521  -1.517  -0.239  0.00  0.00    +0.008 C 
ATOM     11  C   UNL     1      -3.177  -1.847  -1.047  0.00  0.00    +0.103 C 
ATOM     12  C   UNL     1      -1.782  -1.280  -1.007  0.00  0.00    +0.223 C 
ATOM     13  O   UNL     1      -1.014  -1.528  -1.911  0.00  0.00    -0.275 OA
ENDROOT
BRANCH   1  15
ATOM     14  C   UNL     1      -0.019   1.526   0.010  0.00  0.00    +0.029 C 
ATOM     15  C   UNL     1       0.002  -0.004   0.002  0.00  0.00    +0.095 C 
BRANCH  15  16
ATOM     16  C   UNL     1       0.742  -0.511   1.242  0.00  0.00    +0.141 C 
BRANCH  16  17
ATOM     17  C   UNL     1       0.867  -1.976   1.173  0.00  0.00    +0.064 C 
ATOM     18  N   UNL     1       0.963  -3.107   1.121  0.00  0.00    -0.197 NA
ENDBRANCH  16  17
ENDBRANCH  15  16
ENDBRANCH   1  15
TORSDOF 3
