REMARK  Name = ZINC27529193
REMARK  9 active torsions:
REMARK  status: ('A' for Active; 'I' for Inactive)
REMARK    1  A    between atoms: C_4  and  C_7
REMARK    2  A    between atoms: C_7  and  C_8
REMARK    3  A    between atoms: C_7  and  C_31
REMARK    4  A    between atoms: C_8  and  N_9
REMARK    5  A    between atoms: N_9  and  C_10
REMARK    6  A    between atoms: C_13  and  C_16
REMARK    7  A    between atoms: C_16  and  C_17
REMARK    8  A    between atoms: C_17  and  N_18
REMARK    9  A    between atoms: C_24  and  C_26
REMARK                            x       y       z     vdW  Elec       q    Type
REMARK                         _______ _______ _______ _____ _____    ______ ____
ROOT
ATOM      1  C   UNL     1       1.183   3.719  -1.807  0.00  0.00    +0.027 A 
ATOM      2  C   UNL     1      -0.194   3.709  -1.630  0.00  0.00    +0.023 A 
ATOM      3  C   UNL     1      -0.877   2.509  -1.607  0.00  0.00    +0.005 A 
ATOM      4  C   UNL     1      -0.191   1.318  -1.761  0.00  0.00    -0.049 A 
ATOM      5  C   UNL     1       1.181   1.325  -1.937  0.00  0.00    +0.005 A 
ATOM      6  C   UNL     1       1.870   2.521  -1.960  0.00  0.00    +0.023 A 
ENDROOT
BRANCH   1   7
ATOM      7  N   UNL     1       1.877   4.931  -1.830  0.00  0.00    -0.343 N 
ATOM      8  H   UNL     1       1.332   5.879  -1.708  0.00  0.00    +0.146 HD
BRANCH   7   9
ATOM      9  C   UNL     1       3.330   4.940  -2.017  0.00  0.00    +0.114 C 
BRANCH   9  10
ATOM     10  C   UNL     1       3.837   6.384  -2.003  0.00  0.00    +0.066 C 
BRANCH  10  14
ATOM     11  C   UNL     1       3.184   8.087   1.859  0.00  0.00    +0.000 A 
ATOM     12  C   UNL     1       3.867   6.891   1.738  0.00  0.00    +0.000 A 
ATOM     13  C   UNL     1       4.078   6.340   0.488  0.00  0.00    +0.004 A 
ATOM     14  C   UNL     1       3.607   6.984  -0.641  0.00  0.00    -0.038 A 
ATOM     15  C   UNL     1       2.929   8.183  -0.519  0.00  0.00    +0.004 A 
ATOM     16  C   UNL     1       2.713   8.732   0.731  0.00  0.00    +0.000 A 
ENDBRANCH  10  14
BRANCH  10  17
ATOM     17  C   UNL     1       5.311   6.402  -2.317  0.00  0.00    -0.038 A 
ATOM     18  C   UNL     1       6.181   5.608  -1.594  0.00  0.00    +0.004 A 
ATOM     19  C   UNL     1       7.532   5.620  -1.885  0.00  0.00    +0.000 A 
ATOM     20  C   UNL     1       8.015   6.434  -2.893  0.00  0.00    +0.000 A 
ATOM     21  C   UNL     1       7.145   7.232  -3.613  0.00  0.00    +0.000 A 
ATOM     22  C   UNL     1       5.793   7.215  -3.325  0.00  0.00    +0.004 A 
ENDBRANCH  10  17
ENDBRANCH   9  10
ENDBRANCH   7   9
ENDBRANCH   1   7
BRANCH   4  23
ATOM     23  C   UNL     1      -0.939   0.010  -1.736  0.00  0.00    +0.016 C 
BRANCH  23  24
ATOM     24  C   UNL     1      -1.377  -0.354  -3.156  0.00  0.00    -0.074 C 
BRANCH  24  25
ATOM     25  N   UNL     1      -2.106  -1.629  -3.131  0.00  0.00    +0.382 N 
ATOM     26  C   UNL     1      -1.222  -2.734  -2.736  0.00  0.00    -0.060 C 
ATOM     27  C   UNL     1      -2.054  -4.007  -2.547  0.00  0.00    +0.089 C 
ATOM     28  N   UNL     1      -2.834  -4.242  -3.772  0.00  0.00    -0.299 N 
ATOM     29  C   UNL     1      -3.639  -3.134  -4.308  0.00  0.00    +0.089 C 
ATOM     30  C   UNL     1      -2.744  -1.895  -4.427  0.00  0.00    -0.060 C 
ATOM     31  C   UNL     1      -2.810  -5.441  -4.387  0.00  0.00    +0.282 C 
ATOM     32  O   UNL     1      -3.357  -5.582  -5.465  0.00  0.00    -0.267 OA
ATOM     33  H   UNL     1      -2.902  -1.551  -2.376  0.00  0.00    -0.082 HD
BRANCH  31  34
ATOM     34  C   UNL     1      -2.125  -6.574  -3.758  0.00  0.00    +0.189 A 
ATOM     35  C   UNL     1      -1.927  -7.804  -4.319  0.00  0.00    +0.054 A 
ATOM     36  C   UNL     1      -1.233  -8.572  -3.372  0.00  0.00    +0.042 A 
ATOM     37  C   UNL     1      -1.040  -7.789  -2.288  0.00  0.00    +0.196 A 
ATOM     38  O   UNL     1      -1.574  -6.584  -2.527  0.00  0.00    -0.458 OA
ENDBRANCH  31  34
ENDBRANCH  24  25
ENDBRANCH  23  24
ENDBRANCH   4  23
TORSDOF 9
