REMARK  Name = ZINC37650018
REMARK  6 active torsions:
REMARK  status: ('A' for Active; 'I' for Inactive)
REMARK    1  A    between atoms: C_3  and  C_11
REMARK    2  A    between atoms: C_5  and  S_7
REMARK    3  A    between atoms: S_7  and  N_10
REMARK    4  A    between atoms: C_11  and  N_12
REMARK    5  A    between atoms: N_12  and  C_13
REMARK    6  A    between atoms: C_13  and  C_14
REMARK                            x       y       z     vdW  Elec       q    Type
REMARK                         _______ _______ _______ _____ _____    ______ ____
ROOT
ATOM      1  C   UNL     1      -0.017   1.378   0.010  0.00  0.00    +0.002 A 
ATOM      2  C   UNL     1       1.171   2.085   0.002  0.00  0.00    +0.002 A 
ATOM      3  C   UNL     1       2.377   1.411  -0.013  0.00  0.00    -0.063 A 
ATOM      4  C   UNL     1       2.396   0.028  -0.020  0.00  0.00    +0.030 A 
ATOM      5  C   UNL     1       1.209  -0.679  -0.012  0.00  0.00    +0.105 A 
ATOM      6  C   UNL     1       0.002  -0.004   0.002  0.00  0.00    +0.028 A 
ENDROOT
BRANCH   5   7
ATOM      7  S   UNL     1       1.232  -2.441  -0.022  0.00  0.00    +0.056 S 
ATOM      8  O   UNL     1      -0.013  -2.861  -0.562  0.00  0.00    -0.153 OA
ATOM      9  O   UNL     1       2.477  -2.827  -0.588  0.00  0.00    -0.153 OA
BRANCH   7  10
ATOM     10  N   UNL     1       1.256  -2.939   1.557  0.00  0.00    -0.204 NA
ATOM     11  H   UNL     1       0.850  -3.785   1.805  0.00  0.00    +0.144 HD
ATOM     12  H   UNL     1       1.675  -2.386   2.234  0.00  0.00    +0.144 HD
ENDBRANCH   7  10
ENDBRANCH   5   7
BRANCH   3  13
ATOM     13  C   UNL     1       3.672   2.182  -0.022  0.00  0.00    -0.046 C 
BRANCH  13  14
ATOM     14  N   UNL     1       4.106   2.426   1.360  0.00  0.00    +0.386 N 
ATOM     15  H   UNL     1       3.401   2.959   1.845  0.00  0.00    -0.085 HD
ATOM     16  H   UNL     1       4.244   1.544   1.830  0.00  0.00    -0.085 HD
BRANCH  14  17
ATOM     17  C   UNL     1       5.368   3.178   1.351  0.00  0.00    -0.006 C 
BRANCH  17  18
ATOM     18  C   UNL     1       5.814   3.428   2.768  0.00  0.00    +0.090 A 
ATOM     19  C   UNL     1       6.609   2.624   3.497  0.00  0.00    +0.044 A 
ATOM     20  C   UNL     1       6.768   3.239   4.760  0.00  0.00    +0.056 A 
ATOM     21  C   UNL     1       6.060   4.383   4.728  0.00  0.00    +0.165 A 
ATOM     22  O   UNL     1       5.489   4.495   3.517  0.00  0.00    -0.456 OA
ATOM     23  I   UNL     1       5.885   5.760   6.297  0.00  0.00    -0.001 I 
ENDBRANCH  17  18
ENDBRANCH  14  17
ENDBRANCH  13  14
ENDBRANCH   3  13
TORSDOF 6
