REMARK  Name = ZINC59875667
REMARK  12 active torsions:
REMARK  status: ('A' for Active; 'I' for Inactive)
REMARK    1  A    between atoms: C_1  and  N_2
REMARK    2  A    between atoms: N_2  and  C_3
REMARK    3  A    between atoms: N_2  and  C_25
REMARK    4  A    between atoms: C_3  and  C_4
REMARK    5  A    between atoms: C_4  and  C_5
REMARK    6  A    between atoms: C_5  and  N_6
REMARK    7  A    between atoms: C_7  and  C_9
REMARK    8  A    between atoms: C_9  and  C_10
REMARK    9  A    between atoms: C_10  and  C_11
REMARK   10  A    between atoms: C_11  and  C_12
REMARK   11  A    between atoms: C_12  and  C_13
REMARK   12  A    between atoms: C_25  and  C_26
REMARK                            x       y       z     vdW  Elec       q    Type
REMARK                         _______ _______ _______ _____ _____    ______ ____
ROOT
ATOM      1  N   UNL     1      -4.137  -0.282   2.599  0.00  0.00    -0.315 N 
ATOM      2  C   UNL     1      -5.414  -0.644   2.833  0.00  0.00    +0.213 C 
ATOM      3  O   UNL     1      -6.026  -1.278   2.000  0.00  0.00    -0.276 OA
ATOM      4  H   UNL     1      -3.647   0.225   3.266  0.00  0.00    +0.149 HD
ENDROOT
BRANCH   1   5
ATOM      5  C   UNL     1      -3.488  -0.654   1.339  0.00  0.00    +0.102 C 
BRANCH   5   6
ATOM      6  C   UNL     1      -2.053  -0.124   1.328  0.00  0.00    +0.000 C 
BRANCH   6   7
ATOM      7  C   UNL     1      -1.376  -0.512   0.012  0.00  0.00    -0.077 C 
BRANCH   7   9
ATOM      8  C   UNL     1      -0.018   1.465   0.010  0.00  0.00    -0.096 C 
ATOM      9  N   UNL     1       0.002  -0.004   0.002  0.00  0.00    +0.381 N 
ATOM     10  H   UNL     1       0.490  -0.338   0.820  0.00  0.00    -0.082 HD
BRANCH   9  11
ATOM     11  C   UNL     1       0.690  -0.478  -1.207  0.00  0.00    -0.043 C 
BRANCH  11  12
ATOM     12  C   UNL     1       2.137  -0.060  -1.158  0.00  0.00    -0.064 A 
ATOM     13  C   UNL     1       2.523   1.157  -1.688  0.00  0.00    +0.002 A 
ATOM     14  C   UNL     1       3.850   1.540  -1.644  0.00  0.00    +0.000 A 
ATOM     15  C   UNL     1       4.791   0.708  -1.068  0.00  0.00    +0.000 A 
ATOM     16  C   UNL     1       4.405  -0.509  -0.536  0.00  0.00    +0.000 A 
ATOM     17  C   UNL     1       3.077  -0.890  -0.577  0.00  0.00    +0.002 A 
ENDBRANCH  11  12
ENDBRANCH   9  11
ENDBRANCH   7   9
ENDBRANCH   6   7
ENDBRANCH   5   6
ENDBRANCH   1   5
BRANCH   2  18
ATOM     18  C   UNL     1      -6.080  -0.262   4.129  0.00  0.00    +0.096 C 
BRANCH  18  19
ATOM     19  C   UNL     1      -7.516  -0.791   4.140  0.00  0.00    +0.009 C 
BRANCH  19  20
ATOM     20  C   UNL     1      -8.193  -0.403   5.456  0.00  0.00    +0.002 C 
BRANCH  20  21
ATOM     21  C   UNL     1      -9.628  -0.932   5.467  0.00  0.00    +0.016 C 
BRANCH  21  22
ATOM     22  C   UNL     1     -10.305  -0.544   6.783  0.00  0.00    +0.069 C 
ATOM     23  C   UNL     1     -11.772  -1.024   6.814  0.00  0.00    +0.108 C 
ATOM     24  C   UNL     1     -12.209  -1.577   8.174  0.00  0.00    +0.105 C 
ATOM     25  C   UNL     1     -11.094  -1.553   9.241  0.00  0.00    +0.093 C 
ATOM     26  S   UNL     1      -9.583  -1.479   8.200  0.00  0.00    -0.154 S 
ATOM     27  N   UNL     1     -12.565  -2.977   7.893  0.00  0.00    -0.294 N 
ATOM     28  C   UNL     1     -12.374  -3.223   6.590  0.00  0.00    +0.300 C 
ATOM     29  O   UNL     1     -12.591  -4.305   6.080  0.00  0.00    -0.253 OA
ATOM     30  N   UNL     1     -11.921  -2.173   5.907  0.00  0.00    -0.294 N 
ATOM     31  H   UNL     1     -12.886  -3.618   8.546  0.00  0.00    +0.151 HD
ATOM     32  H   UNL     1     -11.725  -2.170   4.957  0.00  0.00    +0.151 HD
ENDBRANCH  21  22
ENDBRANCH  20  21
ENDBRANCH  19  20
ENDBRANCH  18  19
ENDBRANCH   2  18
TORSDOF 11
