REMARK  Name = ZINC67491107
REMARK  11 active torsions:
REMARK  status: ('A' for Active; 'I' for Inactive)
REMARK    1  A    between atoms: C_1  and  C_2
REMARK    2  A    between atoms: C_2  and  C_3
REMARK    3  A    between atoms: C_3  and  N_4
REMARK    4  A    between atoms: C_10  and  N_13
REMARK    5  A    between atoms: C_14  and  C_16
REMARK    6  A    between atoms: N_18  and  C_19
REMARK    7  A    between atoms: C_19  and  C_20
REMARK    8  A    between atoms: C_20  and  C_21
REMARK    9  A    between atoms: C_21  and  C_22
REMARK   10  A    between atoms: C_23  and  C_29
REMARK   11  A    between atoms: C_24  and  N_28
REMARK                            x       y       z     vdW  Elec       q    Type
REMARK                         _______ _______ _______ _____ _____    ______ ____
ROOT
ATOM      1  C   UNL     1       4.414  -5.753   5.535  0.00  0.00    +0.299 C 
ATOM      2  O   UNL     1       5.143  -4.808   5.314  0.00  0.00    -0.265 OA
ATOM      3  N   UNL     1       4.820  -6.740   6.358  0.00  0.00    -0.308 N 
ATOM      4  H   UNL     1       4.238  -7.495   6.534  0.00  0.00    +0.149 HD
ENDROOT
BRANCH   1   6
ATOM      5  N   UNL     1       2.661  -4.836   4.070  0.00  0.00    -0.278 N 
ATOM      6  C   UNL     1       3.067  -5.823   4.893  0.00  0.00    +0.303 C 
ATOM      7  O   UNL     1       2.338  -6.769   5.113  0.00  0.00    -0.265 OA
ATOM      8  H   UNL     1       3.272  -4.122   3.830  0.00  0.00    +0.155 HD
BRANCH   5  15
ATOM      9  N   UNL     1       1.190  -3.325   0.150  0.00  0.00    +0.385 N 
ATOM     10  C   UNL     1      -0.225  -3.413   0.576  0.00  0.00    -0.042 C 
ATOM     11  C   UNL     1      -0.214  -4.196   1.869  0.00  0.00    -0.061 A 
ATOM     12  C   UNL     1      -1.218  -4.855   2.554  0.00  0.00    +0.002 A 
ATOM     13  C   UNL     1      -0.938  -5.507   3.741  0.00  0.00    +0.002 A 
ATOM     14  C   UNL     1       0.347  -5.503   4.247  0.00  0.00    +0.023 A 
ATOM     15  C   UNL     1       1.359  -4.843   3.561  0.00  0.00    +0.035 A 
ATOM     16  C   UNL     1       1.075  -4.188   2.370  0.00  0.00    -0.041 A 
ATOM     17  C   UNL     1       1.948  -3.401   1.420  0.00  0.00    -0.040 C 
ATOM     18  H   UNL     1       1.430  -4.098  -0.452  0.00  0.00    -0.081 HD
BRANCH   9  19
ATOM     19  C   UNL     1       1.446  -2.047  -0.527  0.00  0.00    -0.078 C 
BRANCH  19  21
ATOM     20  C   UNL     1       1.019  -0.713  -2.596  0.00  0.00    +0.002 C 
ATOM     21  C   UNL     1       0.753  -2.045  -1.891  0.00  0.00    -0.022 C 
ENDBRANCH  19  21
ENDBRANCH   9  19
ENDBRANCH   5  15
ENDBRANCH   1   6
BRANCH   3  22
ATOM     22  C   UNL     1       6.142  -6.671   6.987  0.00  0.00    +0.105 C 
BRANCH  22  23
ATOM     23  C   UNL     1       6.353  -7.905   7.866  0.00  0.00    +0.025 C 
BRANCH  23  24
ATOM     24  C   UNL     1       7.732  -7.834   8.523  0.00  0.00    +0.060 C 
BRANCH  24  25
ATOM     25  C   UNL     1       7.940  -9.050   9.389  0.00  0.00    +0.082 A 
ATOM     26  C   UNL     1       7.596  -9.163  10.756  0.00  0.00    +0.113 A 
ATOM     27  C   UNL     1       7.958 -10.445  11.162  0.00  0.00    +0.129 A 
ATOM     28  N   UNL     1       8.493 -11.065  10.089  0.00  0.00    -0.263 N 
ATOM     29  H   UNL     1       8.836 -11.972  10.071  0.00  0.00    +0.190 HD
ATOM     30  N   UNL     1       8.464 -10.180   9.005  0.00  0.00    -0.176 NA
BRANCH  27  31
ATOM     31  N   UNL     1       7.801 -10.980  12.425  0.00  0.00    -0.342 N 
ATOM     32  H   UNL     1       7.403 -10.448  13.132  0.00  0.00    +0.144 HD
ATOM     33  H   UNL     1       8.088 -11.889  12.606  0.00  0.00    +0.144 HD
ENDBRANCH  27  31
BRANCH  26  34
ATOM     34  C   UNL     1       6.990  -8.152  11.568  0.00  0.00    +0.104 C 
ATOM     35  N   UNL     1       6.509  -7.349  12.213  0.00  0.00    -0.191 NA
ENDBRANCH  26  34
ENDBRANCH  24  25
ENDBRANCH  23  24
ENDBRANCH  22  23
ENDBRANCH   3  22
TORSDOF 10
