REMARK  Name = ZINC32699745
REMARK  9 active torsions:
REMARK  status: ('A' for Active; 'I' for Inactive)
REMARK    1  A    between atoms: C_1  and  C_2
REMARK    2  A    between atoms: C_3  and  C_36
REMARK    3  A    between atoms: C_5  and  N_9
REMARK    4  A    between atoms: C_6  and  C_7
REMARK    5  A    between atoms: C_10  and  C_12
REMARK    6  A    between atoms: C_12  and  S_13
REMARK    7  A    between atoms: S_13  and  C_14
REMARK    8  A    between atoms: N_22  and  S_23
REMARK    9  A    between atoms: S_23  and  C_26
REMARK                            x       y       z     vdW  Elec       q    Type
REMARK                         _______ _______ _______ _____ _____    ______ ____
ROOT
ATOM      1  C   UNL     1       0.122   0.990  -2.724  0.00  0.00    +0.191 A 
ATOM      2  N   UNL     1       1.189   0.257  -2.518  0.00  0.00    -0.220 NA
ATOM      3  C   UNL     1       1.725  -0.113  -3.710  0.00  0.00    +0.092 A 
ATOM      4  C   UNL     1       2.839  -0.878  -4.065  0.00  0.00    +0.030 A 
ATOM      5  C   UNL     1       3.133  -1.082  -5.395  0.00  0.00    +0.002 A 
ATOM      6  C   UNL     1       2.332  -0.532  -6.385  0.00  0.00    +0.002 A 
ATOM      7  C   UNL     1       1.229   0.226  -6.051  0.00  0.00    +0.030 A 
ATOM      8  C   UNL     1       0.918   0.441  -4.717  0.00  0.00    +0.093 A 
ATOM      9  N   UNL     1      -0.093   1.129  -4.066  0.00  0.00    -0.186 N 
ENDROOT
BRANCH   9  10
ATOM     10  S   UNL     1      -1.329   1.968  -4.780  0.00  0.00    +0.086 S 
ATOM     11  O   UNL     1      -1.501   1.411  -6.076  0.00  0.00    -0.148 OA
ATOM     12  O   UNL     1      -2.384   2.025  -3.830  0.00  0.00    -0.148 OA
BRANCH  10  13
ATOM     13  C   UNL     1      -0.770   3.623  -5.013  0.00  0.00    +0.112 A 
ATOM     14  C   UNL     1      -0.123   3.968  -6.198  0.00  0.00    +0.029 A 
ATOM     15  C   UNL     1       0.322   5.237  -6.409  0.00  0.00    +0.010 A 
ATOM     16  C   UNL     1       0.126   6.216  -5.420  0.00  0.00    -0.018 A 
ATOM     17  C   UNL     1       0.570   7.537  -5.602  0.00  0.00    +0.008 A 
ATOM     18  C   UNL     1       0.363   8.459  -4.623  0.00  0.00    +0.001 A 
ATOM     19  C   UNL     1      -0.285   8.113  -3.438  0.00  0.00    +0.001 A 
ATOM     20  C   UNL     1      -0.729   6.844  -3.227  0.00  0.00    +0.008 A 
ATOM     21  C   UNL     1      -0.533   5.865  -4.215  0.00  0.00    -0.016 A 
ATOM     22  C   UNL     1      -0.982   4.545  -4.035  0.00  0.00    +0.037 A 
ENDBRANCH  10  13
ENDBRANCH   9  10
BRANCH   1  23
ATOM     23  S   UNL     1      -0.888   1.685  -1.458  0.00  0.00    -0.077 S 
BRANCH  23  24
ATOM     24  C   UNL     1      -0.013   1.086   0.008  0.00  0.00    +0.173 C 
BRANCH  24  26
ATOM     25  N   UNL     1      -0.242   1.246   2.466  0.00  0.00    -0.255 N 
ATOM     26  C   UNL     1      -0.718   1.572   1.248  0.00  0.00    +0.230 C 
ATOM     27  O   UNL     1      -1.714   2.256   1.150  0.00  0.00    -0.274 OA
ATOM     28  H   UNL     1       0.662   0.625   2.555  0.00  0.00    +0.158 HD
BRANCH  25  33
ATOM     29  C   UNL     1      -1.554   2.154   7.256  0.00  0.00    +0.049 C 
ATOM     30  C   UNL     1      -1.507   2.120   5.750  0.00  0.00    +0.010 A 
ATOM     31  C   UNL     1      -2.363   2.708   4.903  0.00  0.00    +0.109 A 
ATOM     32  O   UNL     1      -1.990   2.456   3.637  0.00  0.00    -0.445 OA
ATOM     33  C   UNL     1      -0.889   1.692   3.605  0.00  0.00    +0.210 A 
ATOM     34  C   UNL     1      -0.511   1.434   4.912  0.00  0.00    +0.115 A 
ATOM     35  C   UNL     1      -3.559   3.531   5.309  0.00  0.00    +0.086 C 
BRANCH  34  36
ATOM     36  C   UNL     1       0.612   0.662   5.354  0.00  0.00    +0.105 C 
ATOM     37  N   UNL     1       1.503   0.050   5.704  0.00  0.00    -0.191 NA
ENDBRANCH  34  36
ENDBRANCH  25  33
ENDBRANCH  24  26
ENDBRANCH  23  24
ENDBRANCH   1  23
TORSDOF 7
