REMARK  Name = ZINC43259929
REMARK  8 active torsions:
REMARK  status: ('A' for Active; 'I' for Inactive)
REMARK    1  A    between atoms: C_1  and  C_2
REMARK    2  A    between atoms: C_2  and  C_4
REMARK    3  A    between atoms: C_2  and  N_20
REMARK    4  A    between atoms: C_4  and  C_6
REMARK    5  A    between atoms: C_4  and  N_12
REMARK    6  A    between atoms: N_12  and  C_13
REMARK    7  A    between atoms: N_12  and  C_14
REMARK    8  A    between atoms: C_14  and  C_15
REMARK                            x       y       z     vdW  Elec       q    Type
REMARK                         _______ _______ _______ _____ _____    ______ ____
ROOT
ATOM      1  C   UNL     1       0.688  -0.548   1.224  0.00  0.00    +0.079 C 
ENDROOT
BRANCH   1   2
ATOM      2  C   UNL     1       2.009   0.166   1.089  0.00  0.00    +0.006 A 
ATOM      3  C   UNL     1       2.461   1.257   1.753  0.00  0.00    +0.014 A 
ATOM      4  C   UNL     1       3.721   1.745   1.462  0.00  0.00    +0.023 A 
ATOM      5  C   UNL     1       4.467   1.117   0.520  0.00  0.00    +0.055 A 
ATOM      6  S   UNL     1       3.386  -0.212   0.018  0.00  0.00    -0.085 S 
ATOM      7 BR   UNL     1       6.205   1.536  -0.096  0.00  0.00    -0.043 Br
ENDBRANCH   1   2
BRANCH   1   9
ATOM      8  C   UNL     1      -0.531   1.177  -0.110  0.00  0.00    -0.012 C 
ATOM      9  C   UNL     1      -0.154  -0.304  -0.029  0.00  0.00    -0.056 C 
BRANCH   9  10
ATOM     10  N   UNL     1      -1.375  -1.118   0.035  0.00  0.00    +0.381 N 
ATOM     11  H   UNL     1      -1.892  -1.018  -0.825  0.00  0.00    -0.090 HD
ATOM     12  H   UNL     1      -1.127  -2.087   0.168  0.00  0.00    -0.090 HD
ATOM     13  H   UNL     1      -1.945  -0.808   0.808  0.00  0.00    -0.090 HD
ENDBRANCH   9  10
ENDBRANCH   1   9
BRANCH   1  14
ATOM     14  N   UNL     1       0.925  -1.989   1.383  0.00  0.00    -0.292 NA
ATOM     15  C   UNL     1       1.684  -2.267   2.609  0.00  0.00    +0.105 C 
BRANCH  14  16
ATOM     16  C   UNL     1       1.606  -2.543   0.205  0.00  0.00    +0.159 C 
BRANCH  16  17
ATOM     17  C   UNL     1       1.474  -4.044   0.208  0.00  0.00    +0.119 A 
ATOM     18  C   UNL     1       0.483  -4.748  -0.368  0.00  0.00    +0.046 A 
ATOM     19  C   UNL     1       0.753  -6.114  -0.123  0.00  0.00    +0.041 A 
ATOM     20  C   UNL     1       1.893  -6.163   0.589  0.00  0.00    +0.195 A 
ATOM     21  O   UNL     1       2.329  -4.907   0.781  0.00  0.00    -0.467 OA
ENDBRANCH  16  17
ENDBRANCH  14  16
ENDBRANCH   1  14
TORSDOF 6
