REMARK  Name = ZINC39631813
REMARK  13 active torsions:
REMARK  status: ('A' for Active; 'I' for Inactive)
REMARK    1  A    between atoms: C_1  and  C_2
REMARK    2  A    between atoms: C_5  and  C_9
REMARK    3  A    between atoms: C_7  and  C_8
REMARK    4  A    between atoms: C_13  and  C_22
REMARK    5  A    between atoms: N_24  and  C_25
REMARK    6  A    between atoms: C_25  and  C_27
REMARK    7  A    between atoms: C_25  and  C_28
REMARK    8  A    between atoms: C_28  and  C_29
REMARK    9  A    between atoms: C_29  and  C_30
REMARK   10  A    between atoms: C_30  and  C_31
REMARK   11  A    between atoms: C_31  and  C_32
REMARK   12  A    between atoms: C_31  and  C_33
REMARK   13  A    between atoms: C_31  and  O_34
REMARK                            x       y       z     vdW  Elec       q    Type
REMARK                         _______ _______ _______ _____ _____    ______ ____
ROOT
ATOM      1  C   UNL     1       1.281  -3.383   0.704  0.00  0.00    +0.247 C 
ATOM      2  O   UNL     1       1.381  -3.989   1.753  0.00  0.00    -0.270 OA
ATOM      3  N   UNL     1       1.016  -4.049  -0.437  0.00  0.00    -0.296 N 
ATOM      4  C   UNL     1       0.986  -3.511  -1.817  0.00  0.00    +0.121 C 
ATOM      5  C   UNL     1       1.629  -4.618  -2.682  0.00  0.00    +0.100 C 
ATOM      6  C   UNL     1       1.430  -5.912  -1.876  0.00  0.00    -0.004 C 
ATOM      7  C   UNL     1       0.695  -5.488  -0.595  0.00  0.00    +0.115 C 
ATOM      8  C   UNL     1       2.780  -6.528  -1.522  0.00  0.00    -0.010 C 
ATOM      9  C   UNL     1       2.555  -7.843  -0.770  0.00  0.00    -0.082 C 
ATOM     10  N   UNL     1       1.780  -8.763  -1.611  0.00  0.00    +0.379 N 
ATOM     11  C   UNL     1       0.448  -8.203  -1.869  0.00  0.00    -0.082 C 
ATOM     12  C   UNL     1       0.583  -6.904  -2.668  0.00  0.00    -0.010 C 
ATOM     13  H   UNL     1       2.260  -8.901  -2.488  0.00  0.00    -0.086 HD
ATOM     14  H   UNL     1       1.685  -9.649  -1.139  0.00  0.00    -0.086 HD
ENDROOT
BRANCH   1  19
ATOM     15  C   UNL     1       1.934   2.334   0.613  0.00  0.00    +0.044 C 
ATOM     16  C   UNL     1       1.762   0.837   0.637  0.00  0.00    -0.047 A 
ATOM     17  C   UNL     1       1.202   0.190  -0.451  0.00  0.00    +0.004 A 
ATOM     18  C   UNL     1       1.043  -1.180  -0.435  0.00  0.00    +0.013 A 
ATOM     19  C   UNL     1       1.449  -1.914   0.681  0.00  0.00    +0.037 A 
ATOM     20  C   UNL     1       2.013  -1.256   1.774  0.00  0.00    +0.016 A 
ATOM     21  C   UNL     1       2.171   0.115   1.744  0.00  0.00    -0.047 A 
ATOM     22  C   UNL     1       2.786   0.827   2.921  0.00  0.00    +0.044 C 
ENDBRANCH   1  19
BRANCH   5  23
ATOM     23  C   UNL     1       3.097  -4.341  -2.881  0.00  0.00    +0.218 C 
ATOM     24  O   UNL     1       3.705  -3.680  -2.066  0.00  0.00    -0.275 OA
ATOM     25  N   UNL     1       3.734  -4.829  -3.964  0.00  0.00    -0.312 N 
ATOM     26  H   UNL     1       3.234  -5.295  -4.652  0.00  0.00    +0.149 HD
BRANCH  25  27
ATOM     27  C   UNL     1       5.182  -4.654  -4.103  0.00  0.00    +0.070 C 
ATOM     28  C   UNL     1       5.904  -5.826  -3.436  0.00  0.00    +0.028 C 
BRANCH  27  29
ATOM     29  C   UNL     1       5.550  -4.605  -5.587  0.00  0.00    +0.022 C 
BRANCH  29  30
ATOM     30  C   UNL     1       4.934  -3.358  -6.225  0.00  0.00    +0.005 C 
BRANCH  30  31
ATOM     31  C   UNL     1       5.198  -3.373  -7.732  0.00  0.00    +0.034 C 
BRANCH  31  32
ATOM     32  C   UNL     1       4.698  -2.066  -8.350  0.00  0.00    +0.061 C 
ATOM     33  C   UNL     1       4.950  -2.086  -9.859  0.00  0.00    +0.041 C 
ATOM     34  C   UNL     1       3.198  -1.919  -8.086  0.00  0.00    +0.041 C 
BRANCH  32  35
ATOM     35  O   UNL     1       5.395  -0.965  -7.765  0.00  0.00    -0.389 OA
ATOM     36  H   UNL     1       5.128  -0.102  -8.110  0.00  0.00    +0.210 HD
ENDBRANCH  32  35
ENDBRANCH  31  32
ENDBRANCH  30  31
ENDBRANCH  29  30
ENDBRANCH  27  29
ENDBRANCH  25  27
ENDBRANCH   5  23
TORSDOF 8
