REMARK  Name = ZINC42459881
REMARK  7 active torsions:
REMARK  status: ('A' for Active; 'I' for Inactive)
REMARK    1  A    between atoms: C_1  and  C_2
REMARK    2  A    between atoms: C_2  and  C_4
REMARK    3  A    between atoms: C_2  and  C_16
REMARK    4  A    between atoms: C_4  and  N_5
REMARK    5  A    between atoms: N_5  and  C_6
REMARK    6  A    between atoms: N_5  and  C_7
REMARK    7  A    between atoms: C_7  and  C_8
REMARK                            x       y       z     vdW  Elec       q    Type
REMARK                         _______ _______ _______ _____ _____    ______ ____
ROOT
ATOM      1  N   UNL     1      -2.107  -0.147  -1.234  0.00  0.00    -0.301 NA
ATOM      2  C   UNL     1      -1.497  -0.815  -2.391  0.00  0.00    +0.105 C 
ENDROOT
BRANCH   1   3
ATOM      3  C   UNL     1      -1.433  -0.534   0.013  0.00  0.00    +0.095 C 
BRANCH   3   5
ATOM      4  C   UNL     1      -0.019   1.526   0.010  0.00  0.00    +0.016 C 
ATOM      5  C   UNL     1       0.002  -0.004   0.002  0.00  0.00    +0.061 C 
BRANCH   5   6
ATOM      6  C   UNL     1       0.731  -0.503   1.223  0.00  0.00    +0.067 C 
ATOM      7  N   UNL     1       2.048  -0.612   1.208  0.00  0.00    -0.390 N 
ATOM      8  N   UNL     1       0.053  -0.833   2.309  0.00  0.00    -0.348 N 
ATOM      9  H   UNL     1       2.546  -0.370   0.411  0.00  0.00    +0.157 HD
ATOM     10  H   UNL     1      -0.914  -0.753   2.320  0.00  0.00    +0.143 HD
ATOM     11  H   UNL     1       0.522  -1.154   3.095  0.00  0.00    +0.143 HD
ATOM     12  H   UNL     1       2.517  -0.933   1.994  0.00  0.00    +0.157 HD
ENDBRANCH   5   6
ENDBRANCH   3   5
ENDBRANCH   1   3
BRANCH   1  13
ATOM     13  C   UNL     1      -3.547  -0.428  -1.163  0.00  0.00    +0.119 C 
BRANCH  13  14
ATOM     14  C   UNL     1      -4.240   0.198  -2.345  0.00  0.00    -0.032 A 
ATOM     15  C   UNL     1      -4.718   1.493  -2.259  0.00  0.00    +0.008 A 
ATOM     16  C   UNL     1      -5.354   2.069  -3.343  0.00  0.00    +0.040 A 
ATOM     17  C   UNL     1      -5.512   1.350  -4.515  0.00  0.00    +0.137 A 
ATOM     18  C   UNL     1      -5.033   0.053  -4.601  0.00  0.00    +0.053 A 
ATOM     19  C   UNL     1      -4.393  -0.520  -3.516  0.00  0.00    +0.023 A 
ATOM     20 BR   UNL     1      -5.248  -0.932  -6.200  0.00  0.00    -0.047 Br
ATOM     21  F   UNL     1      -6.133   1.912  -5.575  0.00  0.00    -0.204 F 
ENDBRANCH  13  14
ENDBRANCH   1  13
TORSDOF 5
