REMARK  Name = ZINC08649571
REMARK  6 active torsions:
REMARK  status: ('A' for Active; 'I' for Inactive)
REMARK    1  A    between atoms: C_5  and  C_7
REMARK    2  A    between atoms: N_8  and  N_9
REMARK    3  A    between atoms: N_9  and  S_10
REMARK    4  A    between atoms: S_10  and  C_13
REMARK    5  A    between atoms: C_15  and  C_23
REMARK    6  A    between atoms: C_17  and  C_19
REMARK                            x       y       z     vdW  Elec       q    Type
REMARK                         _______ _______ _______ _____ _____    ______ ____
ROOT
ATOM      1  S   UNL     1      -2.902   6.962  -1.107  0.00  0.00    +0.074 S 
ATOM      2  O   UNL     1      -3.331   8.268  -0.746  0.00  0.00    -0.152 OA
ATOM      3  O   UNL     1      -2.300   6.678  -2.363  0.00  0.00    -0.152 OA
ENDROOT
BRANCH   1   4
ATOM      4  C   UNL     1      -4.313   5.915  -0.978  0.00  0.00    +0.108 A 
ATOM      5  C   UNL     1      -4.373   4.743  -1.708  0.00  0.00    +0.041 A 
ATOM      6  C   UNL     1      -5.478   3.919  -1.603  0.00  0.00    +0.057 A 
ATOM      7  C   UNL     1      -6.527   4.272  -0.774  0.00  0.00    +0.024 A 
ATOM      8  C   UNL     1      -6.469   5.446  -0.048  0.00  0.00    +0.057 A 
ATOM      9  C   UNL     1      -5.362   6.268  -0.150  0.00  0.00    +0.041 A 
BRANCH   8  10
ATOM     10  C   UNL     1      -7.612   5.831   0.855  0.00  0.00    +0.417 C 
ATOM     11  F   UNL     1      -8.538   6.596   0.136  0.00  0.00    -0.166 F 
ATOM     12  F   UNL     1      -8.236   4.675   1.335  0.00  0.00    -0.166 F 
ATOM     13  F   UNL     1      -7.125   6.579   1.932  0.00  0.00    -0.166 F 
ENDBRANCH   8  10
BRANCH   6  14
ATOM     14  C   UNL     1      -5.541   2.638  -2.394  0.00  0.00    +0.417 C 
ATOM     15  F   UNL     1      -6.748   1.983  -2.126  0.00  0.00    -0.166 F 
ATOM     16  F   UNL     1      -5.462   2.929  -3.760  0.00  0.00    -0.166 F 
ATOM     17  F   UNL     1      -4.471   1.812  -2.031  0.00  0.00    -0.166 F 
ENDBRANCH   6  14
ENDBRANCH   1   4
BRANCH   1  18
ATOM     18  N   UNL     1      -1.825   6.479   0.054  0.00  0.00    -0.109 NA
ATOM     19  H   UNL     1      -1.544   7.102   0.743  0.00  0.00    +0.172 HD
BRANCH  18  21
ATOM     20  C   UNL     1       0.040   4.959   0.028  0.00  0.00    +0.131 C 
ATOM     21  N   UNL     1      -1.321   5.173   0.043  0.00  0.00    -0.246 N 
ATOM     22  H   UNL     1       0.605   6.914   0.034  0.00  0.00    +0.157 HD
ATOM     23  H   UNL     1      -1.930   4.418   0.044  0.00  0.00    +0.169 HD
ATOM     24  N   UNL     1       0.922   5.945   0.025  0.00  0.00    -0.384 N 
ATOM     25  H   UNL     1       1.927   5.734   0.015  0.00  0.00    +0.157 HD
BRANCH  20  30
ATOM     26  C   UNL     1       2.434   2.069  -0.010  0.00  0.00    +0.004 A 
ATOM     27  C   UNL     1       1.523   1.023  -0.007  0.00  0.00    +0.020 A 
ATOM     28  C   UNL     1       0.168   1.304   0.002  0.00  0.00    +0.111 A 
ATOM     29  N   UNL     1      -0.265   2.548   0.019  0.00  0.00    -0.252 NA
ATOM     30  C   UNL     1       0.574   3.576   0.016  0.00  0.00    +0.102 A 
ATOM     31  C   UNL     1       1.951   3.367   0.002  0.00  0.00    +0.031 A 
ENDBRANCH  20  30
ENDBRANCH  18  21
ENDBRANCH   1  18
TORSDOF 6
