REMARK  Name = ZINC63363132
REMARK  8 active torsions:
REMARK  status: ('A' for Active; 'I' for Inactive)
REMARK    1  A    between atoms: C_1  and  C_2
REMARK    2  A    between atoms: C_6  and  O_8
REMARK    3  A    between atoms: O_8  and  C_9
REMARK    4  A    between atoms: C_9  and  C_10
REMARK    5  A    between atoms: C_13  and  C_31
REMARK    6  A    between atoms: C_15  and  C_18
REMARK    7  A    between atoms: N_20  and  C_21
REMARK    8  A    between atoms: C_21  and  C_22
REMARK                            x       y       z     vdW  Elec       q    Type
REMARK                         _______ _______ _______ _____ _____    ______ ____
ROOT
ATOM      1  C   UNL     1       0.083  -4.796   3.683  0.00  0.00    +0.151 C 
ATOM      2  N   UNL     1       1.238  -4.278   4.478  0.00  0.00    -0.298 NA
ATOM      3  C   UNL     1       0.980  -4.454   5.919  0.00  0.00    +0.073 C 
ATOM      4  C   UNL     1      -0.431  -3.922   6.283  0.00  0.00    +0.150 C 
ATOM      5  S   UNL     1      -1.326  -4.162   4.690  0.00  0.00    -0.124 S 
ATOM      6  C   UNL     1       2.032  -3.683   6.719  0.00  0.00    +0.025 C 
ATOM      7  H   UNL     1       2.096  -4.732   4.206  0.00  0.00    +0.123 HD
ENDROOT
BRANCH   4   8
ATOM      8  C   UNL     1      -1.052  -4.744   7.383  0.00  0.00    +0.228 C 
ATOM      9  O   UNL     1      -0.773  -5.919   7.494  0.00  0.00    -0.275 OA
ATOM     10  N   UNL     1      -1.918  -4.173   8.244  0.00  0.00    -0.311 N 
ATOM     11  H   UNL     1      -2.142  -3.234   8.155  0.00  0.00    +0.149 HD
BRANCH  10  12
ATOM     12  C   UNL     1      -2.522  -4.972   9.313  0.00  0.00    +0.151 C 
BRANCH  12  13
ATOM     13  C   UNL     1      -3.460  -4.091  10.141  0.00  0.00    +0.191 C 
ATOM     14  N   UNL     1      -4.480  -3.487   9.274  0.00  0.00    -0.362 N 
ATOM     15  C   UNL     1      -4.343  -2.195   9.353  0.00  0.00    +0.060 A 
ATOM     16  C   UNL     1      -5.059  -1.075   8.726  0.00  0.00    +0.027 A 
ATOM     17  C   UNL     1      -4.686   0.191   9.003  0.00  0.00    +0.002 A 
ATOM     18  C   UNL     1      -3.627   0.495   9.877  0.00  0.00    +0.002 A 
ATOM     19  C   UNL     1      -2.905  -0.455  10.503  0.00  0.00    +0.027 A 
ATOM     20  C   UNL     1      -3.223  -1.872  10.278  0.00  0.00    +0.060 A 
ATOM     21  N   UNL     1      -2.710  -2.978  10.736  0.00  0.00    -0.362 N 
ATOM     22  H   UNL     1      -5.135  -3.963   8.741  0.00  0.00    +0.162 HD
ATOM     23  H   UNL     1      -1.968  -3.052  11.357  0.00  0.00    +0.162 HD
ENDBRANCH  12  13
ENDBRANCH  10  12
ENDBRANCH   4   8
BRANCH   1  24
ATOM     24  C   UNL     1       0.069  -4.202   2.274  0.00  0.00    +0.258 C 
BRANCH  24  25
ATOM     25  O   UNL     1       0.050  -2.776   2.358  0.00  0.00    -0.490 OA
BRANCH  25  31
ATOM     26  C   UNL     1      -0.018   1.503   0.010  0.00  0.00    +0.044 C 
ATOM     27  C   UNL     1       0.002  -0.004   0.002  0.00  0.00    -0.047 A 
ATOM     28  C   UNL     1       0.006  -0.688  -1.200  0.00  0.00    +0.003 A 
ATOM     29  C   UNL     1       0.024  -2.071  -1.211  0.00  0.00    +0.004 A 
ATOM     30  C   UNL     1       0.039  -2.772  -0.020  0.00  0.00    +0.045 A 
ATOM     31  C   UNL     1       0.035  -2.088   1.186  0.00  0.00    +0.121 A 
ATOM     32  C   UNL     1       0.023  -0.700   1.195  0.00  0.00    +0.049 A 
ENDBRANCH  25  31
ENDBRANCH  24  25
ENDBRANCH   1  24
TORSDOF 6
