REMARK  Name = ZINC59170709
REMARK  6 active torsions:
REMARK  status: ('A' for Active; 'I' for Inactive)
REMARK    1  A    between atoms: C_8  and  C_22
REMARK    2  A    between atoms: N_10  and  C_11
REMARK    3  A    between atoms: C_14  and  S_17
REMARK    4  A    between atoms: S_17  and  N_20
REMARK    5  A    between atoms: N_24  and  C_25
REMARK    6  A    between atoms: C_29  and  N_31
REMARK                            x       y       z     vdW  Elec       q    Type
REMARK                         _______ _______ _______ _____ _____    ______ ____
ROOT
ATOM      1  C   UNL     1       0.080   1.384  -0.656  0.00  0.00    +0.001 A 
ATOM      2  C   UNL     1       0.910   2.075   0.214  0.00  0.00    +0.004 A 
ATOM      3  C   UNL     1       2.079   1.503   0.675  0.00  0.00    +0.047 A 
ATOM      4  C   UNL     1       2.428   0.224   0.267  0.00  0.00    +0.137 A 
ATOM      5  C   UNL     1       1.582  -0.478  -0.613  0.00  0.00    +0.018 A 
ATOM      6  C   UNL     1       0.403   0.122  -1.070  0.00  0.00    +0.011 A 
ATOM      7  C   UNL     1       1.948  -1.832  -1.034  0.00  0.00    +0.030 A 
ATOM      8  C   UNL     1       2.970  -2.463  -0.337  0.00  0.00    +0.098 A 
ATOM      9  C   UNL     1       3.596  -1.709   0.767  0.00  0.00    +0.212 A 
ATOM     10  N   UNL     1       4.158  -2.332   1.780  0.00  0.00    -0.325 N 
ATOM     11  O   UNL     1       3.573  -0.353   0.706  0.00  0.00    -0.439 OA
ATOM     12  H   UNL     1       4.015  -3.284   1.904  0.00  0.00    +0.169 HD
ENDROOT
BRANCH  10  13
ATOM     13  C   UNL     1       4.946  -1.639   2.658  0.00  0.00    +0.042 A 
ATOM     14  C   UNL     1       5.892  -0.728   2.183  0.00  0.00    +0.027 A 
ATOM     15  C   UNL     1       6.683  -0.033   3.074  0.00  0.00    +0.030 A 
ATOM     16  C   UNL     1       6.540  -0.236   4.435  0.00  0.00    +0.105 A 
ATOM     17  C   UNL     1       5.604  -1.136   4.913  0.00  0.00    +0.030 A 
ATOM     18  C   UNL     1       4.803  -1.834   4.034  0.00  0.00    +0.027 A 
BRANCH  16  19
ATOM     19  S   UNL     1       7.555   0.656   5.566  0.00  0.00    +0.056 S 
ATOM     20  O   UNL     1       7.605  -0.112   6.760  0.00  0.00    -0.153 OA
ATOM     21  O   UNL     1       8.725   1.032   4.852  0.00  0.00    -0.153 OA
BRANCH  19  22
ATOM     22  N   UNL     1       6.757   2.059   5.939  0.00  0.00    -0.204 NA
ATOM     23  H   UNL     1       5.891   2.244   5.542  0.00  0.00    +0.144 HD
ATOM     24  H   UNL     1       7.155   2.694   6.554  0.00  0.00    +0.144 HD
ENDBRANCH  19  22
ENDBRANCH  16  19
ENDBRANCH  10  13
BRANCH   8  25
ATOM     25  C   UNL     1       3.409  -3.825  -0.684  0.00  0.00    +0.253 C 
ATOM     26  O   UNL     1       2.800  -4.466  -1.519  0.00  0.00    -0.270 OA
ATOM     27  N   UNL     1       4.487  -4.361  -0.076  0.00  0.00    -0.281 N 
ATOM     28  H   UNL     1       4.952  -3.862   0.613  0.00  0.00    +0.155 HD
BRANCH  27  29
ATOM     29  C   UNL     1       4.933  -5.635  -0.440  0.00  0.00    +0.036 A 
ATOM     30  C   UNL     1       4.027  -6.587  -0.890  0.00  0.00    +0.023 A 
ATOM     31  C   UNL     1       4.471  -7.845  -1.249  0.00  0.00    +0.004 A 
ATOM     32  C   UNL     1       5.816  -8.156  -1.160  0.00  0.00    +0.033 A 
ATOM     33  C   UNL     1       6.720  -7.211  -0.711  0.00  0.00    +0.128 A 
ATOM     34  C   UNL     1       6.283  -5.950  -0.356  0.00  0.00    +0.056 A 
BRANCH  33  35
ATOM     35  N   UNL     1       8.158  -7.549  -0.617  0.00  0.00    +0.056 N 
ATOM     36  O   UNL     1       8.541  -8.652  -0.932  0.00  0.00    -0.126 OA
ATOM     37  O   UNL     1       8.948  -6.723  -0.225  0.00  0.00    -0.126 OA
ENDBRANCH  33  35
ENDBRANCH  27  29
ENDBRANCH   8  25
TORSDOF 6
