REMARK  Name = ZINC63753031
REMARK  9 active torsions:
REMARK  status: ('A' for Active; 'I' for Inactive)
REMARK    1  A    between atoms: C_1  and  C_2
REMARK    2  A    between atoms: C_2  and  O_3
REMARK    3  A    between atoms: O_3  and  C_4
REMARK    4  A    between atoms: C_9  and  C_10
REMARK    5  A    between atoms: C_10  and  N_11
REMARK    6  A    between atoms: C_12  and  C_14
REMARK    7  A    between atoms: C_16  and  N_24
REMARK    8  A    between atoms: C_25  and  C_27
REMARK    9  A    between atoms: C_31  and  C_33
REMARK                            x       y       z     vdW  Elec       q    Type
REMARK                         _______ _______ _______ _____ _____    ______ ____
ROOT
ATOM      1  C   UNL     1      -5.588   0.355  -3.432  0.00  0.00    +0.211 C 
ATOM      2  C   UNL     1      -4.638   1.511  -3.206  0.00  0.00    +0.051 C 
ATOM      3  C   UNL     1      -5.436   2.597  -2.888  0.00  0.00    +0.018 A 
ATOM      4  C   UNL     1      -5.135   3.944  -2.575  0.00  0.00    +0.011 A 
ATOM      5  C   UNL     1      -6.141   4.810  -2.298  0.00  0.00    +0.001 A 
ATOM      6  C   UNL     1      -7.479   4.408  -2.314  0.00  0.00    +0.002 A 
ATOM      7  C   UNL     1      -7.841   3.135  -2.605  0.00  0.00    +0.026 A 
ATOM      8  C   UNL     1      -6.846   2.170  -2.906  0.00  0.00    +0.045 A 
ATOM      9  N   UNL     1      -6.936   0.891  -3.217  0.00  0.00    -0.369 N 
ATOM     10  H   UNL     1      -7.761   0.386  -3.291  0.00  0.00    +0.161 HD
ENDROOT
BRANCH   1  12
ATOM     11  N   UNL     1      -4.296  -1.614  -2.675  0.00  0.00    -0.309 N 
ATOM     12  C   UNL     1      -5.305  -0.750  -2.447  0.00  0.00    +0.241 C 
ATOM     13  O   UNL     1      -5.985  -0.861  -1.449  0.00  0.00    -0.273 OA
ATOM     14  H   UNL     1      -3.752  -1.524  -3.473  0.00  0.00    +0.149 HD
BRANCH  11  15
ATOM     15  C   UNL     1      -4.021  -2.688  -1.718  0.00  0.00    +0.143 C 
BRANCH  15  21
ATOM     16  C   UNL     1      -1.558  -3.050  -2.010  0.00  0.00    +0.125 A 
ATOM     17  C   UNL     1      -0.484  -3.809  -2.454  0.00  0.00    +0.046 A 
ATOM     18  C   UNL     1      -0.707  -5.013  -3.091  0.00  0.00    +0.004 A 
ATOM     19  C   UNL     1      -2.000  -5.464  -3.287  0.00  0.00    +0.001 A 
ATOM     20  C   UNL     1      -3.071  -4.710  -2.846  0.00  0.00    +0.009 A 
ATOM     21  C   UNL     1      -2.853  -3.506  -2.203  0.00  0.00    +0.011 A 
BRANCH  16  22
ATOM     22  O   UNL     1      -1.340  -1.864  -1.383  0.00  0.00    -0.492 OA
BRANCH  22  24
ATOM     23  C   UNL     1       0.065  -0.109  -0.496  0.00  0.00    +0.048 C 
ATOM     24  C   UNL     1       0.020  -1.457  -1.218  0.00  0.00    +0.225 C 
ENDBRANCH  22  24
ENDBRANCH  16  22
ENDBRANCH  15  21
ENDBRANCH  11  15
ENDBRANCH   1  12
BRANCH   2  25
ATOM     25  N   UNL     1      -3.281   1.487  -3.296  0.00  0.00    -0.282 N 
ATOM     26  C   UNL     1      -2.612   2.588  -3.694  0.00  0.00    +0.248 C 
ATOM     27  O   UNL     1      -3.219   3.613  -3.935  0.00  0.00    -0.270 OA
ATOM     28  H   UNL     1      -2.794   0.678  -3.074  0.00  0.00    +0.155 HD
BRANCH  26  29
ATOM     29  C   UNL     1      -1.142   2.549  -3.836  0.00  0.00    +0.037 A 
ATOM     30  C   UNL     1      -0.443   1.371  -3.565  0.00  0.00    +0.013 A 
ATOM     31  C   UNL     1       0.930   1.341  -3.700  0.00  0.00    +0.001 A 
ATOM     32  C   UNL     1       1.613   2.475  -4.102  0.00  0.00    +0.003 A 
ATOM     33  C   UNL     1       0.926   3.646  -4.373  0.00  0.00    -0.050 A 
ATOM     34  C   UNL     1      -0.447   3.687  -4.248  0.00  0.00    +0.016 A 
ATOM     35  C   UNL     1       1.679   4.875  -4.810  0.00  0.00    +0.044 C 
ENDBRANCH  26  29
ENDBRANCH   2  25
TORSDOF 7
