REMARK  Name = ZINC39037465
REMARK  8 active torsions:
REMARK  status: ('A' for Active; 'I' for Inactive)
REMARK    1  A    between atoms: C_1  and  C_2
REMARK    2  A    between atoms: C_2  and  N_3
REMARK    3  A    between atoms: C_4  and  C_21
REMARK    4  A    between atoms: C_8  and  S_10
REMARK    5  A    between atoms: S_10  and  C_11
REMARK    6  A    between atoms: C_11  and  C_12
REMARK    7  A    between atoms: C_17  and  C_20
REMARK    8  A    between atoms: C_26  and  O_27
REMARK                            x       y       z     vdW  Elec       q    Type
REMARK                         _______ _______ _______ _____ _____    ______ ____
ROOT
ATOM      1  N   UNL     1       0.648  -0.501   1.069  0.00  0.00    +0.410 N 
ATOM      2  C   UNL     1       0.622  -1.972   1.284  0.00  0.00    +0.053 C 
ATOM      3  N   UNL     1       1.803  -2.199   2.157  0.00  0.00    -0.266 NA
ATOM      4  N   UNL     1       2.815  -1.265   1.656  0.00  0.00    -0.262 NA
ATOM      5  C   UNL     1       2.091  -0.179   0.965  0.00  0.00    +0.077 C 
ATOM      6  H   UNL     1       1.581  -2.008   3.122  0.00  0.00    +0.139 HD
ATOM      7  H   UNL     1       3.377  -0.902   2.411  0.00  0.00    +0.140 HD
ATOM      8  H   UNL     1       0.234  -0.020   1.853  0.00  0.00    -0.075 HD
ENDROOT
BRANCH   2   9
ATOM      9  C   UNL     1      -0.649  -2.387   1.979  0.00  0.00    -0.005 A 
ATOM     10  C   UNL     1      -1.324  -1.487   2.781  0.00  0.00    +0.007 A 
ATOM     11  C   UNL     1      -2.489  -1.867   3.420  0.00  0.00    +0.000 A 
ATOM     12  C   UNL     1      -2.983  -3.148   3.258  0.00  0.00    +0.004 A 
ATOM     13  C   UNL     1      -2.312  -4.052   2.457  0.00  0.00    +0.045 A 
ATOM     14  C   UNL     1      -1.145  -3.671   1.811  0.00  0.00    +0.120 A 
BRANCH  14  15
ATOM     15  O   UNL     1      -0.486  -4.557   1.017  0.00  0.00    -0.507 OA
ATOM     16  H   UNL     1       0.175  -5.086   1.484  0.00  0.00    +0.292 HD
ENDBRANCH  14  15
ENDBRANCH   2   9
BRANCH   1  18
ATOM     17  C   UNL     1      -0.015   1.367  -0.369  0.00  0.00    -0.017 C 
ATOM     18  C   UNL     1      -0.048  -0.150  -0.176  0.00  0.00    -0.076 C 
ENDBRANCH   1  18
BRANCH   5  19
ATOM     19  S   UNL     1       2.433   1.408   1.774  0.00  0.00    -0.150 S 
BRANCH  19  20
ATOM     20  C   UNL     1       1.920   1.144   3.494  0.00  0.00    +0.164 C 
BRANCH  20  21
ATOM     21  C   UNL     1       2.155   2.404   4.287  0.00  0.00    +0.228 C 
ATOM     22  O   UNL     1       2.622   3.384   3.745  0.00  0.00    -0.275 OA
ATOM     23  N   UNL     1       1.846   2.442   5.598  0.00  0.00    -0.264 N 
ATOM     24  C   UNL     1       2.062   3.604   6.330  0.00  0.00    +0.165 A 
ATOM     25  N   UNL     1       1.829   3.822   7.606  0.00  0.00    -0.230 NA
ATOM     26  C   UNL     1       2.091   4.992   8.158  0.00  0.00    +0.047 A 
ATOM     27  C   UNL     1       2.608   5.951   7.351  0.00  0.00    +0.071 A 
ATOM     28  S   UNL     1       2.693   5.071   5.800  0.00  0.00    -0.060 S 
ATOM     29  C   UNL     1       1.826   5.251   9.618  0.00  0.00    +0.066 C 
ATOM     30  H   UNL     1       1.472   1.658   6.032  0.00  0.00    +0.157 HD
ENDBRANCH  20  21
ENDBRANCH  19  20
ENDBRANCH   5  19
TORSDOF 6
