REMARK  Name = ZINC26198714
REMARK  12 active torsions:
REMARK  status: ('A' for Active; 'I' for Inactive)
REMARK    1  A    between atoms: C_1  and  C_2
REMARK    2  A    between atoms: C_7  and  C_8
REMARK    3  A    between atoms: C_8  and  N_9
REMARK    4  A    between atoms: N_9  and  C_10
REMARK    5  A    between atoms: N_9  and  C_11
REMARK    6  A    between atoms: C_11  and  C_13
REMARK    7  A    between atoms: C_11  and  C_14
REMARK    8  A    between atoms: N_16  and  C_17
REMARK    9  A    between atoms: C_17  and  C_19
REMARK   10  A    between atoms: C_17  and  C_20
REMARK   11  A    between atoms: C_23  and  S_26
REMARK   12  A    between atoms: S_26  and  N_29
REMARK                            x       y       z     vdW  Elec       q    Type
REMARK                         _______ _______ _______ _____ _____    ______ ____
ROOT
ATOM      1  C   UNL     1      -1.042   1.360  -3.582  0.00  0.00    +0.200 C 
ATOM      2  O   UNL     1      -1.970   2.126  -3.425  0.00  0.00    -0.278 OA
ATOM      3  N   UNL     1      -0.755   0.893  -4.813  0.00  0.00    -0.310 N 
ATOM      4  H   UNL     1       0.086   0.199  -4.955  0.00  0.00    +0.149 HD
ENDROOT
BRANCH   1   5
ATOM      5  C   UNL     1      -0.211   0.930  -2.400  0.00  0.00    +0.016 C 
ATOM      6  C   UNL     1       1.244   1.346  -2.622  0.00  0.00    -0.004 C 
BRANCH   5   7
ATOM      7  N   UNL     1      -0.723   1.572  -1.182  0.00  0.00    +0.388 N 
ATOM      8  C   UNL     1      -0.640   3.036  -1.283  0.00  0.00    -0.095 C 
ATOM      9  H   UNL     1      -1.784   1.301  -1.077  0.00  0.00    -0.081 HD
BRANCH   7  10
ATOM     10  C   UNL     1      -0.013   1.086   0.008  0.00  0.00    -0.042 C 
BRANCH  10  17
ATOM     11  C   UNL     1      -2.379  -0.277   0.952  0.00  0.00    +0.044 C 
ATOM     12  C   UNL     1      -1.850   0.920   1.700  0.00  0.00    -0.049 A 
ATOM     13  C   UNL     1      -2.497   1.365   2.837  0.00  0.00    +0.003 A 
ATOM     14  C   UNL     1      -2.012   2.463   3.523  0.00  0.00    +0.000 A 
ATOM     15  C   UNL     1      -0.879   3.115   3.071  0.00  0.00    +0.000 A 
ATOM     16  C   UNL     1      -0.230   2.667   1.937  0.00  0.00    +0.002 A 
ATOM     17  C   UNL     1      -0.718   1.572   1.248  0.00  0.00    -0.061 A 
ENDBRANCH  10  17
ENDBRANCH   7  10
ENDBRANCH   5   7
ENDBRANCH   1   5
BRANCH   3  18
ATOM     18  C   UNL     1      -1.562   1.311  -5.962  0.00  0.00    +0.100 C 
ATOM     19  C   UNL     1      -2.797   0.414  -6.070  0.00  0.00    +0.033 C 
BRANCH  18  20
ATOM     20  C   UNL     1      -0.744   1.192  -7.221  0.00  0.00    -0.027 A 
ATOM     21  C   UNL     1       0.104   0.115  -7.396  0.00  0.00    +0.007 A 
ATOM     22  C   UNL     1       0.852   0.004  -8.553  0.00  0.00    +0.029 A 
ATOM     23  C   UNL     1       0.759   0.976  -9.532  0.00  0.00    +0.105 A 
ATOM     24  C   UNL     1      -0.085   2.056  -9.355  0.00  0.00    +0.029 A 
ATOM     25  C   UNL     1      -0.836   2.165  -8.199  0.00  0.00    +0.007 A 
BRANCH  23  26
ATOM     26  S   UNL     1       1.717   0.838 -11.004  0.00  0.00    +0.056 S 
ATOM     27  O   UNL     1       2.016  -0.542 -11.166  0.00  0.00    -0.153 OA
ATOM     28  O   UNL     1       1.042   1.594 -12.000  0.00  0.00    -0.153 OA
BRANCH  26  29
ATOM     29  N   UNL     1       3.159   1.604 -10.723  0.00  0.00    -0.204 NA
ATOM     30  H   UNL     1       3.789   1.540 -11.623  0.00  0.00    +0.144 HD
ATOM     31  H   UNL     1       3.673   1.120  -9.880  0.00  0.00    +0.144 HD
ENDBRANCH  26  29
ENDBRANCH  23  26
ENDBRANCH  18  20
ENDBRANCH   3  18
TORSDOF 8
