REMARK  Name = ZINC12374900
REMARK  4 active torsions:
REMARK  status: ('A' for Active; 'I' for Inactive)
REMARK    1  A    between atoms: C_3  and  C_6
REMARK    2  A    between atoms: C_9  and  C_35
REMARK    3  A    between atoms: C_14  and  C_16
REMARK    4  A    between atoms: N_21  and  C_24
REMARK                            x       y       z     vdW  Elec       q    Type
REMARK                         _______ _______ _______ _____ _____    ______ ____
ROOT
ATOM      1  C   UNL     1       5.321  -6.804  -6.099  0.00  0.00    +0.140 C 
ATOM      2  C   UNL     1       4.201  -7.826  -5.881  0.00  0.00    +0.066 C 
ATOM      3  C   UNL     1       4.233  -8.335  -4.435  0.00  0.00    +0.215 C 
ATOM      4  N   UNL     1       4.288  -7.185  -3.528  0.00  0.00    -0.238 N 
ATOM      5  C   UNL     1       4.681  -5.934  -3.913  0.00  0.00    +0.119 A 
ATOM      6  C   UNL     1       4.611  -5.123  -2.839  0.00  0.00    +0.078 A 
ATOM      7  C   UNL     1       4.159  -5.899  -1.747  0.00  0.00    +0.149 A 
ATOM      8  N   UNL     1       3.969  -7.136  -2.172  0.00  0.00    -0.164 NA
ATOM      9  N   UNL     1       5.078  -5.640  -5.225  0.00  0.00    -0.319 N 
ATOM     10  H   UNL     1       5.184  -4.729  -5.541  0.00  0.00    +0.148 HD
ENDROOT
BRANCH   7  11
ATOM     11  C   UNL     1       3.938  -5.412  -0.370  0.00  0.00    +0.267 C 
ATOM     12  O   UNL     1       4.023  -4.224  -0.125  0.00  0.00    -0.268 OA
ATOM     13  N   UNL     1       3.642  -6.284   0.614  0.00  0.00    -0.300 N 
ATOM     14  C   UNL     1       3.268  -5.811   1.956  0.00  0.00    +0.089 C 
ATOM     15  C   UNL     1       4.125  -6.551   2.988  0.00  0.00    -0.059 C 
ATOM     16  N   UNL     1       3.982  -8.000   2.794  0.00  0.00    +0.385 N 
ATOM     17  C   UNL     1       4.522  -8.384   1.484  0.00  0.00    -0.059 C 
ATOM     18  C   UNL     1       3.679  -7.735   0.375  0.00  0.00    +0.089 C 
ATOM     19  H   UNL     1       3.006  -8.249   2.840  0.00  0.00    -0.081 HD
BRANCH  16  20
ATOM     20  C   UNL     1       4.716  -8.708   3.851  0.00  0.00    -0.065 C 
ATOM     21  C   UNL     1       6.196  -8.328   3.787  0.00  0.00    -0.009 C 
ATOM     22  C   UNL     1       6.960  -9.066   4.888  0.00  0.00    -0.012 C 
ATOM     23  C   UNL     1       6.813 -10.575   4.687  0.00  0.00    +0.007 C 
ATOM     24  C   UNL     1       5.332 -10.956   4.751  0.00  0.00    -0.012 C 
ATOM     25  C   UNL     1       4.568 -10.218   3.650  0.00  0.00    -0.009 C 
ATOM     26  C   UNL     1       4.763 -10.565   6.116  0.00  0.00    +0.007 C 
ATOM     27  C   UNL     1       4.911  -9.056   6.317  0.00  0.00    -0.012 C 
ATOM     28  C   UNL     1       6.392  -8.675   6.254  0.00  0.00    +0.007 C 
ATOM     29  C   UNL     1       4.147  -8.317   5.216  0.00  0.00    -0.009 C 
ENDBRANCH  16  20
ENDBRANCH   7  11
BRANCH   1  32
ATOM     30  C   UNL     1       8.636  -8.401  -5.882  0.00  0.00    +0.041 A 
ATOM     31  C   UNL     1       7.540  -7.918  -6.634  0.00  0.00    +0.046 A 
ATOM     32  C   UNL     1       6.649  -7.427  -5.754  0.00  0.00    +0.125 A 
ATOM     33  O   UNL     1       7.144  -7.585  -4.516  0.00  0.00    -0.466 OA
ATOM     34  C   UNL     1       8.349  -8.175  -4.587  0.00  0.00    +0.195 A 
ENDBRANCH   1  32
BRANCH   3  35
ATOM     35  C   UNL     1       2.973  -9.155  -4.152  0.00  0.00    +0.412 C 
ATOM     36  F   UNL     1       2.918 -10.244  -5.028  0.00  0.00    -0.168 F 
ATOM     37  F   UNL     1       3.005  -9.618  -2.832  0.00  0.00    -0.168 F 
ATOM     38  F   UNL     1       1.843  -8.351  -4.336  0.00  0.00    -0.168 F 
ENDBRANCH   3  35
TORSDOF 4
