REMARK  Name = ZINC02093262
REMARK  2 active torsions:
REMARK  status: ('A' for Active; 'I' for Inactive)
REMARK    1  A    between atoms: N_18  and  N_22
REMARK    2  A    between atoms: C_23  and  C_24
REMARK                            x       y       z     vdW  Elec       q    Type
REMARK                         _______ _______ _______ _____ _____    ______ ____
ROOT
ATOM      1  C   UNL     1      -4.782   2.498   3.611  0.00  0.00    +0.001 A 
ATOM      2  C   UNL     1      -5.670   1.454   3.412  0.00  0.00    +0.002 A 
ATOM      3  C   UNL     1      -5.372   0.377   2.595  0.00  0.00    +0.026 A 
ATOM      4  C   UNL     1      -4.126   0.383   1.971  0.00  0.00    +0.047 A 
ATOM      5  C   UNL     1      -3.221   1.456   2.179  0.00  0.00    +0.003 A 
ATOM      6  C   UNL     1      -3.548   2.531   3.010  0.00  0.00    +0.010 A 
ATOM      7  C   UNL     1      -2.044   1.144   1.393  0.00  0.00    -0.015 A 
ATOM      8  C   UNL     1      -2.279  -0.036   0.780  0.00  0.00    +0.038 A 
ATOM      9  N   UNL     1      -3.522  -0.499   1.122  0.00  0.00    -0.356 N 
ATOM     10  H   UNL     1      -3.915  -1.329   0.808  0.00  0.00    +0.166 HD
ATOM     11  C   UNL     1      -1.289  -0.711  -0.141  0.00  0.00    +0.162 C 
ATOM     12  N   UNL     1       0.002  -0.004   0.002  0.00  0.00    -0.282 N 
ATOM     13  C   UNL     1      -0.018   1.458   0.010  0.00  0.00    +0.169 C 
ATOM     14  C   UNL     1      -0.775   1.945   1.254  0.00  0.00    +0.069 C 
ATOM     15  C   UNL     1       1.359   2.039   0.000  0.00  0.00    +0.256 C 
ATOM     16  O   UNL     1       1.466   3.245  -0.081  0.00  0.00    -0.272 OA
ATOM     17  N   UNL     1       2.476   1.318   0.074  0.00  0.00    -0.183 N 
ATOM     18  C   UNL     1       2.497  -0.132   0.171  0.00  0.00    +0.230 C 
ATOM     19  C   UNL     1       1.124  -0.719   0.110  0.00  0.00    +0.236 C 
ATOM     20  O   UNL     1       1.022  -1.926   0.162  0.00  0.00    -0.274 OA
ENDROOT
BRANCH  17  21
ATOM     21  N   UNL     1       3.702   1.996   0.056  0.00  0.00    -0.184 NA
ATOM     22  C   UNL     1       4.813   1.329   0.126  0.00  0.00    +0.138 C 
BRANCH  22  23
ATOM     23  C   UNL     1       6.104   2.042   0.107  0.00  0.00    -0.003 A 
ATOM     24  C   UNL     1       7.302   1.327   0.182  0.00  0.00    +0.009 A 
ATOM     25  C   UNL     1       8.506   2.000   0.164  0.00  0.00    +0.003 A 
ATOM     26  C   UNL     1       8.530   3.380   0.071  0.00  0.00    +0.038 A 
ATOM     27  C   UNL     1       7.346   4.097  -0.004  0.00  0.00    +0.124 A 
ATOM     28  C   UNL     1       6.133   3.435   0.009  0.00  0.00    +0.047 A 
ATOM     29  F   UNL     1       7.378   5.444  -0.094  0.00  0.00    -0.205 F 
ENDBRANCH  22  23
ENDBRANCH  17  21
TORSDOF 2
