REMARK  Name = ZINC37214785
REMARK  8 active torsions:
REMARK  status: ('A' for Active; 'I' for Inactive)
REMARK    1  A    between atoms: C_1  and  C_2
REMARK    2  A    between atoms: C_7  and  N_12
REMARK    3  A    between atoms: C_9  and  C_11
REMARK    4  A    between atoms: N_12  and  C_13
REMARK    5  A    between atoms: C_13  and  C_15
REMARK    6  A    between atoms: C_13  and  C_16
REMARK    7  A    between atoms: C_19  and  S_22
REMARK    8  A    between atoms: S_22  and  N_25
REMARK                            x       y       z     vdW  Elec       q    Type
REMARK                         _______ _______ _______ _____ _____    ______ ____
ROOT
ATOM      1  C   UNL     1       1.598  -3.990   2.355  0.00  0.00    -0.044 C 
ATOM      2  C   UNL     1       2.486  -4.371   1.169  0.00  0.00    -0.009 C 
ENDROOT
BRANCH   1   3
ATOM      3  C   UNL     1       2.216  -4.501   3.631  0.00  0.00    -0.062 A 
ATOM      4  C   UNL     1       3.247  -3.800   4.229  0.00  0.00    +0.004 A 
ATOM      5  C   UNL     1       3.814  -4.269   5.399  0.00  0.00    +0.029 A 
ATOM      6  C   UNL     1       3.350  -5.438   5.972  0.00  0.00    +0.105 A 
ATOM      7  C   UNL     1       2.319  -6.139   5.374  0.00  0.00    +0.029 A 
ATOM      8  C   UNL     1       1.749  -5.667   4.207  0.00  0.00    +0.004 A 
BRANCH   6   9
ATOM      9  S   UNL     1       4.074  -6.037   7.463  0.00  0.00    +0.056 S 
ATOM     10  O   UNL     1       3.829  -7.436   7.500  0.00  0.00    -0.153 OA
ATOM     11  O   UNL     1       5.385  -5.491   7.525  0.00  0.00    -0.153 OA
BRANCH   9  12
ATOM     12  N   UNL     1       3.225  -5.373   8.720  0.00  0.00    -0.204 NA
ATOM     13  H   UNL     1       2.481  -4.776   8.541  0.00  0.00    +0.144 HD
ATOM     14  H   UNL     1       3.470  -5.582   9.635  0.00  0.00    +0.144 HD
ENDBRANCH   9  12
ENDBRANCH   6   9
ENDBRANCH   1   3
BRANCH   1  15
ATOM     15  N   UNL     1       1.473  -2.527   2.423  0.00  0.00    +0.385 N 
ATOM     16  H   UNL     1       2.393  -2.113   2.459  0.00  0.00    -0.085 HD
ATOM     17  H   UNL     1       0.957  -2.272   3.251  0.00  0.00    -0.085 HD
BRANCH  15  23
ATOM     18  C   UNL     1      -0.019   1.526   0.010  0.00  0.00    +0.008 C 
ATOM     19  C   UNL     1       0.002  -0.004   0.002  0.00  0.00    -0.013 C 
ATOM     20  C   UNL     1      -1.433  -0.534   0.013  0.00  0.00    +0.003 C 
ATOM     21  C   UNL     1      -1.413  -2.063   0.004  0.00  0.00    -0.001 C 
ATOM     22  C   UNL     1      -0.673  -2.570   1.244  0.00  0.00    -0.015 C 
ATOM     23  C   UNL     1       0.763  -2.041   1.233  0.00  0.00    -0.068 C 
ATOM     24  C   UNL     1       0.742  -0.511   1.242  0.00  0.00    -0.025 C 
ATOM     25  C   UNL     1       0.026  -0.018   2.500  0.00  0.00    +0.006 C 
ENDBRANCH  15  23
ENDBRANCH   1  15
TORSDOF 5
