REMARK  Name = ZINC66531863
REMARK  7 active torsions:
REMARK  status: ('A' for Active; 'I' for Inactive)
REMARK    1  A    between atoms: C_1  and  C_2
REMARK    2  A    between atoms: C_4  and  C_27
REMARK    3  A    between atoms: C_6  and  N_13
REMARK    4  A    between atoms: C_14  and  C_16
REMARK    5  A    between atoms: C_16  and  N_17
REMARK    6  A    between atoms: C_18  and  C_26
REMARK    7  A    between atoms: C_23  and  C_25
REMARK                            x       y       z     vdW  Elec       q    Type
REMARK                         _______ _______ _______ _____ _____    ______ ____
ROOT
ATOM      1  N   UNL     1      -2.883  -4.048  -0.101  0.00  0.00    -0.257 N 
ATOM      2  C   UNL     1      -4.199  -4.339  -0.085  0.00  0.00    +0.203 C 
ATOM      3  O   UNL     1      -5.018  -3.446  -0.129  0.00  0.00    -0.277 OA
ATOM      4  H   UNL     1      -2.228  -4.763  -0.066  0.00  0.00    +0.158 HD
ENDROOT
BRANCH   1  10
ATOM      5  C   UNL     1       0.016   1.433  -0.378  0.00  0.00    +0.068 C 
ATOM      6  C   UNL     1       0.026  -0.072  -0.303  0.00  0.00    +0.070 A 
ATOM      7  C   UNL     1      -1.236  -0.816  -0.264  0.00  0.00    +0.053 A 
ATOM      8  C   UNL     1      -2.551  -0.514  -0.278  0.00  0.00    +0.114 A 
ATOM      9  O   UNL     1      -3.266  -1.653  -0.221  0.00  0.00    -0.445 OA
ATOM     10  C   UNL     1      -2.467  -2.729  -0.168  0.00  0.00    +0.206 A 
ATOM     11  C   UNL     1      -1.163  -2.296  -0.191  0.00  0.00    +0.110 A 
ATOM     12  C   UNL     1       0.162  -2.906  -0.161  0.00  0.00    +0.277 A 
ATOM     13  O   UNL     1       0.288  -4.117  -0.101  0.00  0.00    -0.266 OA
ATOM     14  N   UNL     1       1.246  -2.103  -0.202  0.00  0.00    -0.242 N 
ATOM     15  H   UNL     1       2.127  -2.510  -0.183  0.00  0.00    +0.192 HD
ATOM     16  N   UNL     1       1.153  -0.716  -0.277  0.00  0.00    -0.175 NA
ATOM     17  C   UNL     1      -3.128   0.876  -0.347  0.00  0.00    +0.087 C 
ENDBRANCH   1  10
BRANCH   2  18
ATOM     18  C   UNL     1      -4.652  -5.774  -0.012  0.00  0.00    +0.020 C 
BRANCH  18  19
ATOM     19  N   UNL     1      -6.114  -5.820   0.124  0.00  0.00    +0.389 N 
ATOM     20  C   UNL     1      -6.516  -5.078   1.325  0.00  0.00    -0.071 C 
ATOM     21  C   UNL     1      -8.030  -5.190   1.516  0.00  0.00    -0.016 C 
ATOM     22  C   UNL     1      -8.738  -4.604   0.291  0.00  0.00    -0.003 C 
ATOM     23  C   UNL     1      -8.256  -5.336  -0.965  0.00  0.00    -0.016 C 
ATOM     24  C   UNL     1      -6.734  -5.218  -1.064  0.00  0.00    -0.071 C 
ATOM     25  C   UNL     1      -6.247  -5.948  -2.317  0.00  0.00    -0.013 C 
ATOM     26  C   UNL     1      -5.804  -5.663   2.546  0.00  0.00    -0.013 C 
ATOM     27  H   UNL     1      -6.414  -6.780   0.208  0.00  0.00    -0.080 HD
ENDBRANCH  18  19
ENDBRANCH   2  18
TORSDOF 3
