REMARK  Name = ZINC59169938
REMARK  14 active torsions:
REMARK  status: ('A' for Active; 'I' for Inactive)
REMARK    1  A    between atoms: C_1  and  C_2
REMARK    2  A    between atoms: C_2  and  C_3
REMARK    3  A    between atoms: C_7  and  C_30
REMARK    4  A    between atoms: C_8  and  N_9
REMARK    5  A    between atoms: N_9  and  C_10
REMARK    6  A    between atoms: C_10  and  N_12
REMARK    7  A    between atoms: N_12  and  C_13
REMARK    8  A    between atoms: N_12  and  C_20
REMARK    9  A    between atoms: C_13  and  C_14
REMARK   10  A    between atoms: C_22  and  C_28
REMARK   11  A    between atoms: C_22  and  C_29
REMARK   12  A    between atoms: C_24  and  C_26
REMARK   13  A    between atoms: C_24  and  C_27
REMARK   14  A    between atoms: C_30  and  C_31
REMARK                            x       y       z     vdW  Elec       q    Type
REMARK                         _______ _______ _______ _____ _____    ______ ____
ROOT
ATOM      1  N   UNL     1      -3.018   0.516   5.129  0.00  0.00    -0.304 N 
ENDROOT
BRANCH   1   2
ATOM      2  C   UNL     1      -4.236   0.736   4.340  0.00  0.00    +0.073 C 
ATOM      3  C   UNL     1      -4.676  -0.591   3.717  0.00  0.00    +0.009 C 
ATOM      4  C   UNL     1      -5.938  -0.377   2.881  0.00  0.00    -0.072 C 
ATOM      5  N   UNL     1      -5.767   0.676   1.890  0.00  0.00    +0.386 N 
ATOM      6  C   UNL     1      -5.162   1.923   2.328  0.00  0.00    -0.072 C 
ATOM      7  C   UNL     1      -3.934   1.719   3.210  0.00  0.00    +0.009 C 
ATOM      8  C   UNL     1      -4.695   2.682   1.062  0.00  0.00    -0.010 C 
ATOM      9  C   UNL     1      -6.173   2.825   3.041  0.00  0.00    -0.010 C 
ATOM     10  C   UNL     1      -7.138  -0.121   3.792  0.00  0.00    -0.010 C 
ATOM     11  C   UNL     1      -6.213  -1.694   2.120  0.00  0.00    -0.010 C 
ATOM     12  H   UNL     1      -5.211   0.302   1.117  0.00  0.00    -0.084 HD
ATOM     13  H   UNL     1      -6.682   0.886   1.485  0.00  0.00    -0.084 HD
ENDBRANCH   1   2
BRANCH   1  14
ATOM     14  C   UNL     1      -1.968  -0.130   4.584  0.00  0.00    +0.138 C 
ATOM     15  S   UNL     1      -0.617  -0.539   5.552  0.00  0.00    -0.018 S 
BRANCH  14  16
ATOM     16  N   UNL     1      -1.982  -0.453   3.275  0.00  0.00    -0.296 N 
ATOM     17  H   UNL     1      -2.279  -1.334   2.997  0.00  0.00    +0.154 HD
BRANCH  16  23
ATOM     18  C   UNL     1      -1.676   0.186   0.966  0.00  0.00    -0.026 A 
ATOM     19  C   UNL     1      -1.273   1.112   0.025  0.00  0.00    +0.005 A 
ATOM     20  C   UNL     1      -0.756   2.330   0.428  0.00  0.00    +0.001 A 
ATOM     21  C   UNL     1      -0.642   2.624   1.775  0.00  0.00    +0.005 A 
ATOM     22  C   UNL     1      -1.044   1.702   2.721  0.00  0.00    -0.026 A 
ATOM     23  C   UNL     1      -1.569   0.480   2.319  0.00  0.00    +0.039 A 
BRANCH  18  25
ATOM     24  C   UNL     1      -3.763  -1.044   0.435  0.00  0.00    +0.009 C 
ATOM     25  C   UNL     1      -2.239  -1.141   0.526  0.00  0.00    +0.033 C 
ENDBRANCH  18  25
BRANCH  22  26
ATOM     26  C   UNL     1      -0.920   2.024   4.188  0.00  0.00    +0.033 C 
ATOM     27  C   UNL     1       0.431   1.527   4.706  0.00  0.00    +0.009 C 
ENDBRANCH  22  26
ENDBRANCH  16  23
ENDBRANCH  14  16
ENDBRANCH   1  14
BRANCH   1  28
ATOM     28  C   UNL     1      -2.943   1.000   6.510  0.00  0.00    +0.162 C 
BRANCH  28  29
ATOM     29  C   UNL     1      -2.395   2.404   6.522  0.00  0.00    +0.058 A 
ATOM     30  C   UNL     1      -3.267   3.477   6.546  0.00  0.00    +0.025 A 
ATOM     31  C   UNL     1      -2.752   4.764   6.556  0.00  0.00    +0.003 A 
ATOM     32  C   UNL     1      -1.375   4.925   6.543  0.00  0.00    +0.020 A 
ATOM     33  C   UNL     1      -0.567   3.805   6.519  0.00  0.00    +0.111 A 
ATOM     34  N   UNL     1      -1.091   2.594   6.515  0.00  0.00    -0.258 NA
ENDBRANCH  28  29
ENDBRANCH   1  28
TORSDOF 8
