REMARK  Name = ZINC08310497
REMARK  6 active torsions:
REMARK  status: ('A' for Active; 'I' for Inactive)
REMARK    1  A    between atoms: C_1  and  C_2
REMARK    2  A    between atoms: C_2  and  C_4
REMARK    3  A    between atoms: C_2  and  N_57
REMARK    4  A    between atoms: N_6  and  C_7
REMARK    5  A    between atoms: C_10  and  C_13
REMARK    6  A    between atoms: C_19  and  C_21
REMARK                            x       y       z     vdW  Elec       q    Type
REMARK                         _______ _______ _______ _____ _____    ______ ____
ROOT
ATOM      1  C   UNL     1       4.470  -0.458   0.765  0.00  0.00    -0.004 C 
ATOM      2  C   UNL     1       3.642   0.753   0.331  0.00  0.00    +0.017 C 
ENDROOT
BRANCH   2   7
ATOM      3  C   UNL     1       1.458   1.815   0.501  0.00  0.00    -0.077 C 
ATOM      4  C   UNL     1       0.002   1.332   0.675  0.00  0.00    -0.020 C 
ATOM      5  C   UNL     1       0.074  -0.205   0.561  0.00  0.00    -0.013 C 
ATOM      6  C   UNL     1       1.567  -0.520   0.329  0.00  0.00    -0.037 C 
ATOM      7  N   UNL     1       2.255   0.644   0.882  0.00  0.00    +0.392 N 
ATOM      8  H   UNL     1       2.303   0.569   1.905  0.00  0.00    -0.080 HD
BRANCH   6   9
ATOM      9  C   UNL     1       1.957  -1.783   1.054  0.00  0.00    -0.057 A 
ATOM     10  C   UNL     1       2.199  -1.749   2.414  0.00  0.00    +0.006 A 
ATOM     11  C   UNL     1       2.553  -2.904   3.088  0.00  0.00    +0.049 A 
ATOM     12  C   UNL     1       2.673  -4.095   2.391  0.00  0.00    +0.162 A 
ATOM     13  C   UNL     1       2.435  -4.128   1.025  0.00  0.00    +0.162 A 
ATOM     14  C   UNL     1       2.076  -2.971   0.355  0.00  0.00    +0.051 A 
ATOM     15  O   UNL     1       2.558  -5.306   0.347  0.00  0.00    -0.488 OA
ATOM     16  C   UNL     1       1.580  -6.304   0.647  0.00  0.00    +0.232 C 
ATOM     17  C   UNL     1       1.981  -7.099   1.879  0.00  0.00    +0.082 C 
ATOM     18  C   UNL     1       2.011  -6.244   3.136  0.00  0.00    +0.232 C 
ATOM     19  O   UNL     1       3.026  -5.241   3.042  0.00  0.00    -0.488 OA
ENDBRANCH   6   9
ENDBRANCH   2   7
BRANCH   2  20
ATOM     20  C   UNL     1       4.298   2.015   0.832  0.00  0.00    +0.203 C 
ATOM     21  O   UNL     1       3.697   2.753   1.583  0.00  0.00    -0.277 OA
ATOM     22  N   UNL     1       5.552   2.322   0.445  0.00  0.00    -0.287 N 
ATOM     23  H   UNL     1       6.060   1.695  -0.093  0.00  0.00    +0.155 HD
BRANCH  22  24
ATOM     24  C   UNL     1       6.118   3.540   0.818  0.00  0.00    +0.033 A 
ATOM     25  C   UNL     1       5.316   4.671   0.935  0.00  0.00    +0.024 A 
ATOM     26  C   UNL     1       5.871   5.875   1.308  0.00  0.00    +0.015 A 
ATOM     27  C   UNL     1       7.243   5.962   1.559  0.00  0.00    +0.037 A 
ATOM     28  C   UNL     1       8.047   4.825   1.435  0.00  0.00    +0.015 A 
ATOM     29  C   UNL     1       7.484   3.623   1.067  0.00  0.00    +0.024 A 
BRANCH  27  30
ATOM     30  C   UNL     1       7.843   7.252   1.953  0.00  0.00    +0.242 C 
ATOM     31  O   UNL     1       9.037   7.326   2.170  0.00  0.00    -0.270 OA
ATOM     32  N   UNL     1       7.067   8.347   2.072  0.00  0.00    -0.325 N 
ATOM     33  H   UNL     1       6.114   8.288   1.898  0.00  0.00    +0.145 HD
ATOM     34  H   UNL     1       7.461   9.195   2.330  0.00  0.00    +0.145 HD
ENDBRANCH  27  30
ENDBRANCH  22  24
ENDBRANCH   2  20
TORSDOF 5
