REMARK  Name = ZINC39596921
REMARK  8 active torsions:
REMARK  status: ('A' for Active; 'I' for Inactive)
REMARK    1  A    between atoms: C_1  and  C_2
REMARK    2  A    between atoms: C_2  and  C_4
REMARK    3  A    between atoms: C_2  and  N_10
REMARK    4  A    between atoms: C_11  and  C_13
REMARK    5  A    between atoms: C_24  and  C_26
REMARK    6  A    between atoms: C_26  and  C_27
REMARK    7  A    between atoms: C_27  and  C_28
REMARK    8  A    between atoms: C_28  and  C_29
REMARK                            x       y       z     vdW  Elec       q    Type
REMARK                         _______ _______ _______ _____ _____    ______ ____
ROOT
ATOM      1  C   UNL     1       2.736  -1.073  -2.455  0.00  0.00    +0.100 C 
ATOM      2  C   UNL     1       2.403  -0.160  -3.656  0.00  0.00    +0.121 C 
ATOM      3  N   UNL     1       3.518   0.815  -3.706  0.00  0.00    -0.300 N 
ATOM      4  C   UNL     1       4.723   0.013  -3.386  0.00  0.00    +0.115 C 
ATOM      5  C   UNL     1       4.260  -0.959  -2.283  0.00  0.00    -0.004 C 
ATOM      6  C   UNL     1       4.596  -0.393  -0.907  0.00  0.00    -0.010 C 
ATOM      7  C   UNL     1       6.117  -0.343  -0.739  0.00  0.00    -0.082 C 
ATOM      8  N   UNL     1       6.673  -1.694  -0.882  0.00  0.00    +0.379 N 
ATOM      9  C   UNL     1       6.425  -2.195  -2.240  0.00  0.00    -0.082 C 
ATOM     10  C   UNL     1       4.917  -2.323  -2.472  0.00  0.00    -0.010 C 
ATOM     11  C   UNL     1       3.452   2.133  -3.981  0.00  0.00    +0.216 C 
ATOM     12  O   UNL     1       4.462   2.803  -3.983  0.00  0.00    -0.276 OA
ATOM     13  H   UNL     1       7.666  -1.668  -0.711  0.00  0.00    -0.086 HD
ATOM     14  H   UNL     1       6.234  -2.309  -0.213  0.00  0.00    -0.086 HD
ENDROOT
BRANCH   1  16
ATOM     15  N   UNL     1       1.697  -1.460  -0.244  0.00  0.00    -0.308 N 
ATOM     16  C   UNL     1       2.031  -0.587  -1.215  0.00  0.00    +0.219 C 
ATOM     17  O   UNL     1       1.764   0.590  -1.091  0.00  0.00    -0.275 OA
ATOM     18  H   UNL     1       1.911  -2.401  -0.343  0.00  0.00    +0.149 HD
BRANCH  15  20
ATOM     19  C   UNL     1      -0.495  -0.927   0.701  0.00  0.00    +0.033 C 
ATOM     20  C   UNL     1       1.012  -0.987   0.962  0.00  0.00    +0.100 C 
BRANCH  20  21
ATOM     21  C   UNL     1       1.287  -1.935   2.100  0.00  0.00    -0.027 A 
ATOM     22  C   UNL     1       1.312  -3.299   1.874  0.00  0.00    +0.005 A 
ATOM     23  C   UNL     1       1.565  -4.168   2.919  0.00  0.00    +0.000 A 
ATOM     24  C   UNL     1       1.793  -3.674   4.189  0.00  0.00    +0.000 A 
ATOM     25  C   UNL     1       1.768  -2.311   4.416  0.00  0.00    +0.000 A 
ATOM     26  C   UNL     1       1.520  -1.441   3.370  0.00  0.00    +0.005 A 
ENDBRANCH  20  21
ENDBRANCH  15  20
ENDBRANCH   1  16
BRANCH  11  27
ATOM     27  C   UNL     1       2.122   2.773  -4.284  0.00  0.00    +0.096 C 
BRANCH  27  28
ATOM     28  C   UNL     1       2.324   4.264  -4.558  0.00  0.00    +0.014 C 
BRANCH  28  29
ATOM     29  C   UNL     1       0.974   4.915  -4.865  0.00  0.00    +0.035 C 
BRANCH  29  30
ATOM     30  C   UNL     1       1.173   6.384  -5.136  0.00  0.00    -0.047 A 
ATOM     31  C   UNL     1       1.118   7.292  -4.095  0.00  0.00    +0.003 A 
ATOM     32  C   UNL     1       1.302   8.639  -4.342  0.00  0.00    +0.000 A 
ATOM     33  C   UNL     1       1.540   9.079  -5.631  0.00  0.00    +0.000 A 
ATOM     34  C   UNL     1       1.596   8.171  -6.672  0.00  0.00    +0.000 A 
ATOM     35  C   UNL     1       1.417   6.823  -6.423  0.00  0.00    +0.003 A 
ENDBRANCH  29  30
ENDBRANCH  28  29
ENDBRANCH  27  28
ENDBRANCH  11  27
TORSDOF 7
