REMARK  Name = ZINC39623377
REMARK  10 active torsions:
REMARK  status: ('A' for Active; 'I' for Inactive)
REMARK    1  A    between atoms: C_1  and  C_2
REMARK    2  A    between atoms: C_2  and  C_3
REMARK    3  A    between atoms: C_3  and  C_4
REMARK    4  A    between atoms: C_4  and  C_5
REMARK    5  A    between atoms: C_5  and  N_6
REMARK    6  A    between atoms: C_7  and  C_9
REMARK    7  A    between atoms: C_20  and  C_22
REMARK    8  A    between atoms: C_22  and  C_24
REMARK    9  A    between atoms: C_22  and  C_25
REMARK   10  A    between atoms: C_25  and  C_26
REMARK                            x       y       z     vdW  Elec       q    Type
REMARK                         _______ _______ _______ _____ _____    ______ ____
ROOT
ATOM      1  C   UNL     1       2.145  -6.191   3.458  0.00  0.00    +0.100 C 
ATOM      2  C   UNL     1       2.820  -6.712   2.169  0.00  0.00    +0.121 C 
ATOM      3  N   UNL     1       4.232  -6.944   2.553  0.00  0.00    -0.300 N 
ATOM      4  C   UNL     1       4.154  -7.512   3.920  0.00  0.00    +0.115 C 
ATOM      5  C   UNL     1       3.022  -6.721   4.605  0.00  0.00    -0.004 C 
ATOM      6  C   UNL     1       2.209  -7.639   5.511  0.00  0.00    -0.010 C 
ATOM      7  C   UNL     1       3.086  -8.107   6.676  0.00  0.00    -0.082 C 
ATOM      8  N   UNL     1       3.564  -6.942   7.429  0.00  0.00    +0.379 N 
ATOM      9  C   UNL     1       4.422  -6.111   6.576  0.00  0.00    -0.082 C 
ATOM     10  C   UNL     1       3.602  -5.559   5.407  0.00  0.00    -0.010 C 
ATOM     11  C   UNL     1       5.338  -6.694   1.823  0.00  0.00    +0.218 C 
ATOM     12  O   UNL     1       6.434  -6.941   2.280  0.00  0.00    -0.275 OA
ATOM     13  H   UNL     1       2.773  -6.397   7.741  0.00  0.00    -0.086 HD
ATOM     14  H   UNL     1       4.090  -7.254   8.231  0.00  0.00    -0.086 HD
ENDROOT
BRANCH   1  16
ATOM     15  N   UNL     1       1.153  -4.027   4.129  0.00  0.00    -0.315 N 
ATOM     16  C   UNL     1       2.125  -4.684   3.466  0.00  0.00    +0.218 C 
ATOM     17  O   UNL     1       2.984  -4.062   2.877  0.00  0.00    -0.275 OA
ATOM     18  H   UNL     1       0.466  -4.524   4.600  0.00  0.00    +0.149 HD
BRANCH  15  19
ATOM     19  C   UNL     1       1.133  -2.562   4.137  0.00  0.00    +0.104 C 
BRANCH  19  20
ATOM     20  C   UNL     1      -0.065  -2.072   4.954  0.00  0.00    +0.019 C 
BRANCH  20  21
ATOM     21  C   UNL     1      -0.085  -0.543   4.962  0.00  0.00    +0.001 C 
BRANCH  21  23
ATOM     22  C   UNL     1      -1.304   1.477   5.788  0.00  0.00    +0.004 C 
ATOM     23  C   UNL     1      -1.283  -0.053   5.780  0.00  0.00    -0.003 C 
ENDBRANCH  21  23
ENDBRANCH  20  21
ENDBRANCH  19  20
ENDBRANCH  15  19
ENDBRANCH   1  16
BRANCH  11  24
ATOM     24  C   UNL     1       5.212  -6.109   0.440  0.00  0.00    +0.072 C 
ATOM     25  C   UNL     1       4.393  -7.055  -0.441  0.00  0.00    +0.017 C 
BRANCH  24  26
ATOM     26  C   UNL     1       6.605  -5.926  -0.165  0.00  0.00    +0.009 C 
ATOM     27  C   UNL     1       6.485  -5.218  -1.516  0.00  0.00    +0.004 C 
ENDBRANCH  24  26
ENDBRANCH  11  24
TORSDOF 7
