REMARK  Name = ZINC20203676
REMARK  20 active torsions:
REMARK  status: ('A' for Active; 'I' for Inactive)
REMARK    1  A    between atoms: C_1  and  C_2
REMARK    2  A    between atoms: C_2  and  N_3
REMARK    3  A    between atoms: N_6  and  C_9
REMARK    4  A    between atoms: C_9  and  C_10
REMARK    5  A    between atoms: C_10  and  C_12
REMARK    6  A    between atoms: C_10  and  O_32
REMARK    7  A    between atoms: C_12  and  O_13
REMARK    8  A    between atoms: O_13  and  C_14
REMARK    9  A    between atoms: C_17  and  C_22
REMARK   10  A    between atoms: C_19  and  O_20
REMARK   11  A    between atoms: O_20  and  C_21
REMARK   12  A    between atoms: C_22  and  N_23
REMARK   13  A    between atoms: N_23  and  C_24
REMARK   14  A    between atoms: C_24  and  C_25
REMARK   15  A    between atoms: C_25  and  C_26
REMARK   16  A    between atoms: C_25  and  C_27
REMARK   17  A    between atoms: C_25  and  C_28
REMARK   18  A    between atoms: C_28  and  N_29
REMARK   19  A    between atoms: N_29  and  C_30
REMARK   20  A    between atoms: N_29  and  C_31
REMARK                            x       y       z     vdW  Elec       q    Type
REMARK                         _______ _______ _______ _____ _____    ______ ____
ROOT
ATOM      1  C   UNL     1       1.659  -4.277   8.735  0.00  0.00    +0.162 A 
ATOM      2  C   UNL     1       2.388  -3.940   9.864  0.00  0.00    +0.050 A 
ATOM      3  C   UNL     1       2.817  -4.927  10.731  0.00  0.00    +0.009 A 
ATOM      4  C   UNL     1       2.520  -6.253  10.474  0.00  0.00    -0.030 A 
ATOM      5  C   UNL     1       1.794  -6.597   9.350  0.00  0.00    +0.054 A 
ATOM      6  C   UNL     1       1.355  -5.611   8.480  0.00  0.00    +0.162 A 
ENDROOT
BRANCH   6   7
ATOM      7  O   UNL     1       0.635  -5.947   7.377  0.00  0.00    -0.491 OA
ATOM      8  C   UNL     1       0.361  -7.336   7.179  0.00  0.00    +0.277 C 
ENDBRANCH   6   7
BRANCH   1   9
ATOM      9  O   UNL     1       1.236  -3.307   7.881  0.00  0.00    -0.486 OA
BRANCH   9  10
ATOM     10  C   UNL     1       1.584  -1.960   8.206  0.00  0.00    +0.261 C 
BRANCH  10  11
ATOM     11  C   UNL     1       1.026  -1.017   7.139  0.00  0.00    +0.166 C 
BRANCH  11  12
ATOM     12  O   UNL     1       1.665  -1.281   5.888  0.00  0.00    -0.387 OA
ATOM     13  H   UNL     1       2.624  -1.159   5.903  0.00  0.00    +0.210 HD
ENDBRANCH  11  12
BRANCH  11  14
ATOM     14  C   UNL     1       1.290   0.433   7.550  0.00  0.00    +0.119 C 
BRANCH  14  18
ATOM     15  N   UNL     1      -0.729   3.668   5.727  0.00  0.00    +0.381 N 
ATOM     16  C   UNL     1      -1.333   2.333   5.628  0.00  0.00    -0.063 C 
ATOM     17  C   UNL     1      -0.755   1.429   6.718  0.00  0.00    +0.066 C 
ATOM     18  N   UNL     1       0.703   1.339   6.554  0.00  0.00    -0.303 NA
ATOM     19  C   UNL     1       1.319   2.672   6.627  0.00  0.00    +0.066 C 
ATOM     20  C   UNL     1       0.724   3.566   5.537  0.00  0.00    -0.063 C 
ATOM     21  H   UNL     1      -0.922   4.057   6.638  0.00  0.00    -0.082 HD
BRANCH  15  23
ATOM     22  C   UNL     1      -2.789   4.749   4.962  0.00  0.00    -0.017 C 
ATOM     23  C   UNL     1      -1.297   4.541   4.692  0.00  0.00    -0.082 C 
ENDBRANCH  15  23
ENDBRANCH  14  18
ENDBRANCH  11  14
ENDBRANCH  10  11
ENDBRANCH   9  10
ENDBRANCH   1   9
BRANCH   4  24
ATOM     24  C   UNL     1       2.991  -7.326  11.423  0.00  0.00    +0.116 C 
BRANCH  24  25
ATOM     25  N   UNL     1       1.968  -7.551  12.453  0.00  0.00    -0.312 NA
ATOM     26  H   UNL     1       1.747  -6.693  12.937  0.00  0.00    +0.122 HD
BRANCH  25  27
ATOM     27  C   UNL     1       2.394  -8.593  13.398  0.00  0.00    +0.085 C 
BRANCH  27  28
ATOM     28  C   UNL     1       1.306  -8.799  14.454  0.00  0.00    -0.037 C 
ATOM     29  C   UNL     1       1.074  -7.489  15.209  0.00  0.00    +0.010 C 
ATOM     30  C   UNL     1       0.007  -9.229  13.770  0.00  0.00    +0.010 C 
BRANCH  28  31
ATOM     31  C   UNL     1       1.749  -9.883  15.437  0.00  0.00    -0.072 C 
BRANCH  31  32
ATOM     32  N   UNL     1       0.657 -10.166  16.379  0.00  0.00    +0.376 N 
ATOM     33  C   UNL     1      -0.266 -11.139  15.780  0.00  0.00    -0.097 C 
ATOM     34  C   UNL     1       1.212 -10.719  17.621  0.00  0.00    -0.097 C 
ATOM     35  H   UNL     1       0.159  -9.312  16.583  0.00  0.00    -0.083 HD
ENDBRANCH  31  32
ENDBRANCH  28  31
ENDBRANCH  27  28
ENDBRANCH  25  27
ENDBRANCH  24  25
ENDBRANCH   4  24
TORSDOF 14
