REMARK  Name = ZINC20873180
REMARK  14 active torsions:
REMARK  status: ('A' for Active; 'I' for Inactive)
REMARK    1  A    between atoms: C_1  and  C_2
REMARK    2  A    between atoms: C_2  and  CA_3
REMARK    3  A    between atoms: CA_3  and  C_5
REMARK    4  A    between atoms: CA_3  and  N_7
REMARK    5  A    between atoms: C_5  and  O_6
REMARK    6  A    between atoms: N_7  and  C_8
REMARK    7  A    between atoms: C_8  and  C_9
REMARK    8  A    between atoms: C_14  and  O_15
REMARK    9  A    between atoms: O_15  and  C_16
REMARK   10  A    between atoms: C_16  and  C_17
REMARK   11  A    between atoms: N_19  and  C_20
REMARK   12  A    between atoms: C_20  and  C_21
REMARK   13  A    between atoms: C_20  and  C_22
REMARK   14  A    between atoms: C_20  and  C_23
REMARK                            x       y       z     vdW  Elec       q    Type
REMARK                         _______ _______ _______ _____ _____    ______ ____
ROOT
ATOM      1  C   UNL     1      -0.124   1.376  -0.168  0.00  0.00    -0.022 A 
ATOM      2  C   UNL     1       1.099   2.011  -0.259  0.00  0.00    +0.020 A 
ATOM      3  C   UNL     1       2.261   1.266  -0.353  0.00  0.00    +0.018 A 
ATOM      4  C   UNL     1       2.200  -0.116  -0.357  0.00  0.00    +0.019 A 
ATOM      5  C   UNL     1       0.979  -0.755  -0.267  0.00  0.00    +0.047 A 
ATOM      6  C   UNL     1      -0.187  -0.010  -0.172  0.00  0.00    +0.123 A 
ATOM      7 BR   UNL     1       3.934   2.139  -0.477  0.00  0.00    -0.050 Br
ENDROOT
BRANCH   1   8
ATOM      8  C   UNL     1      -1.390   2.188  -0.072  0.00  0.00    -0.043 C 
BRANCH   8   9
ATOM      9  N   UNL     1      -1.833   2.241   1.328  0.00  0.00    +0.385 N 
ATOM     10  H1  UNL     1      -1.061   2.751   1.923  0.00  0.00    -0.085 HD
ATOM     11  H2  UNL     1      -1.960   1.212   1.697  0.00  0.00    -0.085 HD
BRANCH   9  12
ATOM     12  CA  UNL     1      -3.105   2.965   1.451  0.00  0.00    -0.046 C 
BRANCH  12  14
ATOM     13  C   UNL     1      -2.135   4.646   3.025  0.00  0.00    +0.002 C 
ATOM     14  C   UNL     1      -3.212   3.574   2.851  0.00  0.00    -0.017 C 
ENDBRANCH  12  14
BRANCH  12  15
ATOM     15  C   UNL     1      -4.267   1.997   1.225  0.00  0.00    +0.140 C 
BRANCH  15  16
ATOM     16  O   UNL     1      -4.285   1.022   2.270  0.00  0.00    -0.397 OA
ATOM     17  H   UNL     1      -5.056   0.237   2.277  0.00  0.00    +0.209 HD
ENDBRANCH  15  16
ENDBRANCH  12  15
ENDBRANCH   9  12
ENDBRANCH   8   9
ENDBRANCH   1   8
BRANCH   6  18
ATOM     18  O   UNL     1      -1.390  -0.637  -0.083  0.00  0.00    -0.483 OA
BRANCH  18  19
ATOM     19  C   UNL     1      -1.379  -2.066  -0.092  0.00  0.00    +0.324 C 
BRANCH  19  20
ATOM     20  C   UNL     1      -2.792  -2.580   0.014  0.00  0.00    +0.251 C 
ATOM     21  O   UNL     1      -3.717  -1.799   0.090  0.00  0.00    -0.272 OA
ATOM     22  N   UNL     1      -3.027  -3.907   0.024  0.00  0.00    -0.308 N 
ATOM     23  H   UNL     1      -2.188  -4.614  -0.045  0.00  0.00    +0.149 HD
BRANCH  22  24
ATOM     24  C   UNL     1      -4.400  -4.406   0.127  0.00  0.00    +0.026 C 
ATOM     25  C   UNL     1      -5.220  -3.894  -1.059  0.00  0.00    +0.031 C 
ATOM     26  C   UNL     1      -4.388  -5.936   0.117  0.00  0.00    +0.031 C 
ATOM     27  C   UNL     1      -5.027  -3.910   1.432  0.00  0.00    +0.031 C 
ENDBRANCH  22  24
ENDBRANCH  19  20
ENDBRANCH  18  19
ENDBRANCH   6  18
TORSDOF 10
