REMARK  Name = ZINC42452927
REMARK  7 active torsions:
REMARK  status: ('A' for Active; 'I' for Inactive)
REMARK    1  A    between atoms: C_1  and  C_2
REMARK    2  A    between atoms: C_2  and  N_3
REMARK    3  A    between atoms: N_3  and  C_4
REMARK    4  A    between atoms: N_3  and  C_9
REMARK    5  A    between atoms: C_4  and  C_5
REMARK    6  A    between atoms: C_5  and  C_6
REMARK    7  A    between atoms: C_9  and  C_10
REMARK                            x       y       z     vdW  Elec       q    Type
REMARK                         _______ _______ _______ _____ _____    ______ ____
ROOT
ATOM      1  N   UNL     1       0.751  -0.564  -1.143  0.00  0.00    -0.298 NA
ENDROOT
BRANCH   1   3
ATOM      2  C   UNL     1      -1.350  -0.892   0.071  0.00  0.00    +0.020 C 
ATOM      3  C   UNL     1      -0.040  -0.105   0.007  0.00  0.00    +0.081 C 
ENDBRANCH   1   3
BRANCH   1   4
ATOM      4  C   UNL     1       1.006  -2.009  -1.064  0.00  0.00    +0.092 C 
BRANCH   4   5
ATOM      5  C   UNL     1       1.907  -2.302   0.138  0.00  0.00    +0.084 C 
BRANCH   5   6
ATOM      6  C   UNL     1       2.169  -3.784   0.220  0.00  0.00    +0.064 C 
ATOM      7  N   UNL     1       1.359  -4.561   0.917  0.00  0.00    -0.391 N 
ATOM      8  N   UNL     1       3.209  -4.307  -0.407  0.00  0.00    -0.348 N 
ATOM      9  H   UNL     1       0.595  -4.177   1.377  0.00  0.00    +0.157 HD
ATOM     10  H   UNL     1       3.803  -3.736  -0.919  0.00  0.00    +0.143 HD
ATOM     11  H   UNL     1       3.377  -5.261  -0.354  0.00  0.00    +0.143 HD
ATOM     12  H   UNL     1       1.527  -5.515   0.970  0.00  0.00    +0.157 HD
ENDBRANCH   5   6
ENDBRANCH   4   5
ENDBRANCH   1   4
BRANCH   1  13
ATOM     13  C   UNL     1       0.092  -0.215  -2.408  0.00  0.00    +0.120 C 
BRANCH  13  14
ATOM     14  C   UNL     1       0.279   1.255  -2.683  0.00  0.00    -0.019 A 
ATOM     15  C   UNL     1      -0.775   2.131  -2.502  0.00  0.00    +0.009 A 
ATOM     16  C   UNL     1      -0.604   3.479  -2.753  0.00  0.00    +0.039 A 
ATOM     17  C   UNL     1       0.623   3.953  -3.186  0.00  0.00    +0.124 A 
ATOM     18  C   UNL     1       1.678   3.076  -3.367  0.00  0.00    +0.054 A 
ATOM     19  C   UNL     1       1.507   1.728  -3.110  0.00  0.00    +0.025 A 
ATOM     20 BR   UNL     1       2.950   0.529  -3.350  0.00  0.00    -0.050 Br
ATOM     21  F   UNL     1       0.790   5.271  -3.433  0.00  0.00    -0.205 F 
ENDBRANCH  13  14
ENDBRANCH   1  13
TORSDOF 6
