REMARK  Name = ZINC42457069
REMARK  8 active torsions:
REMARK  status: ('A' for Active; 'I' for Inactive)
REMARK    1  A    between atoms: C_1  and  C_2
REMARK    2  A    between atoms: C_2  and  C_4
REMARK    3  A    between atoms: C_2  and  C_17
REMARK    4  A    between atoms: C_4  and  N_5
REMARK    5  A    between atoms: N_5  and  C_6
REMARK    6  A    between atoms: N_5  and  S_7
REMARK    7  A    between atoms: S_7  and  C_10
REMARK    8  A    between atoms: C_17  and  N_19
REMARK                            x       y       z     vdW  Elec       q    Type
REMARK                         _______ _______ _______ _____ _____    ______ ____
ROOT
ATOM      1  N   UNL     1       2.216  -0.001   1.042  0.00  0.00    -0.179 NA
ATOM      2  C   UNL     1       2.582   1.280   1.649  0.00  0.00    +0.131 C 
ENDROOT
BRANCH   1   3
ATOM      3  S   UNL     1       3.391  -0.994   0.430  0.00  0.00    +0.061 S 
ATOM      4  O   UNL     1       4.598  -0.657   1.101  0.00  0.00    -0.153 OA
ATOM      5  O   UNL     1       2.857  -2.311   0.441  0.00  0.00    -0.153 OA
BRANCH   3   6
ATOM      6  C   UNL     1       3.615  -0.555  -1.261  0.00  0.00    +0.107 A 
ATOM      7  C   UNL     1       2.862  -1.174  -2.242  0.00  0.00    +0.028 A 
ATOM      8  C   UNL     1       3.038  -0.830  -3.569  0.00  0.00    +0.003 A 
ATOM      9  C   UNL     1       3.967   0.133  -3.916  0.00  0.00    +0.015 A 
ATOM     10  C   UNL     1       4.720   0.753  -2.936  0.00  0.00    +0.020 A 
ATOM     11  C   UNL     1       4.540   0.412  -1.607  0.00  0.00    +0.043 A 
ATOM     12 BR   UNL     1       5.991   2.071  -3.410  0.00  0.00    -0.050 Br
ENDBRANCH   3   6
ENDBRANCH   1   3
BRANCH   1  13
ATOM     13  C   UNL     1       0.809  -0.405   0.976  0.00  0.00    +0.118 C 
BRANCH  13  15
ATOM     14  C   UNL     1       0.153   1.711  -0.180  0.00  0.00    +0.015 C 
ATOM     15  C   UNL     1       0.168   0.184  -0.282  0.00  0.00    +0.053 C 
BRANCH  15  16
ATOM     16  C   UNL     1      -1.246  -0.324  -0.410  0.00  0.00    +0.050 C 
ATOM     17  S   UNL     1      -1.920  -1.125   0.798  0.00  0.00    -0.040 S 
BRANCH  16  18
ATOM     18  N   UNL     1      -1.941  -0.103  -1.544  0.00  0.00    -0.355 N 
ATOM     19  H   UNL     1      -1.531   0.383  -2.276  0.00  0.00    +0.143 HD
ATOM     20  H   UNL     1      -2.850  -0.430  -1.626  0.00  0.00    +0.143 HD
ENDBRANCH  16  18
ENDBRANCH  15  16
ENDBRANCH  13  15
ENDBRANCH   1  13
TORSDOF 6
