REMARK  Name = ZINC23619765
REMARK  6 active torsions:
REMARK  status: ('A' for Active; 'I' for Inactive)
REMARK    1  A    between atoms: C_2  and  C_9
REMARK    2  A    between atoms: N_5  and  C_6
REMARK    3  A    between atoms: C_6  and  C_7
REMARK    4  A    between atoms: C_7  and  N_8
REMARK    5  A    between atoms: C_16  and  C_20
REMARK    6  A    between atoms: C_20  and  C_21
REMARK                            x       y       z     vdW  Elec       q    Type
REMARK                         _______ _______ _______ _____ _____    ______ ____
ROOT
ATOM      1  C   UNL     1      -0.139   2.438  -2.033  0.00  0.00    +0.269 C 
ATOM      2  O   UNL     1       1.035   2.714  -1.874  0.00  0.00    -0.268 OA
ATOM      3  N   UNL     1      -0.810   1.773  -1.072  0.00  0.00    -0.291 N 
ATOM      4  C   UNL     1      -0.112   1.252   0.112  0.00  0.00    +0.114 C 
ATOM      5  C   UNL     1      -0.630   1.974   1.362  0.00  0.00    +0.074 C 
ATOM      6  C   UNL     1      -2.137   2.034   1.298  0.00  0.00    +0.042 A 
ATOM      7  C   UNL     1      -2.866   1.850   0.168  0.00  0.00    +0.013 A 
ATOM      8  C   UNL     1      -4.213   1.988   0.494  0.00  0.00    +0.068 A 
ATOM      9  N   UNL     1      -4.295   2.244   1.778  0.00  0.00    -0.178 NA
ATOM     10  N   UNL     1      -2.995   2.275   2.304  0.00  0.00    -0.281 N 
ATOM     11  H   UNL     1      -2.615   2.450   3.321  0.00  0.00    +0.189 HD
ATOM     12  C   UNL     1      -2.263   1.550  -1.183  0.00  0.00    +0.147 C 
ENDROOT
BRANCH   1  14
ATOM     13  C   UNL     1      -0.305   3.617  -4.265  0.00  0.00    +0.143 A 
ATOM     14  C   UNL     1      -0.827   2.831  -3.277  0.00  0.00    +0.167 A 
ATOM     15  N   UNL     1      -2.072   2.471  -3.633  0.00  0.00    -0.125 NA
ATOM     16  N   UNL     1      -2.360   2.991  -4.776  0.00  0.00    -0.065 NA
ATOM     17  N   UNL     1      -1.253   3.729  -5.216  0.00  0.00    -0.253 N 
BRANCH  17  18
ATOM     18  C   UNL     1      -1.147   4.481  -6.470  0.00  0.00    +0.126 C 
BRANCH  18  19
ATOM     19  C   UNL     1      -1.452   3.553  -7.647  0.00  0.00    -0.063 C 
BRANCH  19  20
ATOM     20  N   UNL     1      -1.346   4.306  -8.904  0.00  0.00    +0.379 N 
ATOM     21  H   UNL     1      -1.565   3.639  -9.751  0.00  0.00    -0.090 HD
ATOM     22  H   UNL     1      -0.326   4.706  -9.007  0.00  0.00    -0.090 HD
ATOM     23  H   UNL     1      -2.067   5.137  -8.896  0.00  0.00    -0.090 HD
ENDBRANCH  19  20
ENDBRANCH  18  19
ENDBRANCH  17  18
ENDBRANCH   1  14
BRANCH   8  24
ATOM     24  C   UNL     1      -5.372   1.866  -0.460  0.00  0.00    +0.061 C 
BRANCH  24  25
ATOM     25  C   UNL     1      -5.843   0.411  -0.507  0.00  0.00    -0.005 C 
ATOM     26  C   UNL     1      -4.736  -0.464  -1.099  0.00  0.00    +0.004 C 
ATOM     27  C   UNL     1      -5.207  -1.919  -1.146  0.00  0.00    +0.000 C 
ATOM     28  C   UNL     1      -6.460  -2.022  -2.018  0.00  0.00    +0.000 C 
ATOM     29  C   UNL     1      -7.567  -1.147  -1.425  0.00  0.00    +0.000 C 
ATOM     30  C   UNL     1      -7.096   0.308  -1.378  0.00  0.00    +0.004 C 
ENDBRANCH  24  25
ENDBRANCH   8  24
TORSDOF 6
