REMARK  Name = ZINC63165958
REMARK  7 active torsions:
REMARK  status: ('A' for Active; 'I' for Inactive)
REMARK    1  A    between atoms: C_1  and  C_2
REMARK    2  A    between atoms: C_2  and  N_9
REMARK    3  A    between atoms: C_10  and  C_12
REMARK    4  A    between atoms: C_12  and  N_13
REMARK    5  A    between atoms: C_16  and  C_19
REMARK    6  A    between atoms: C_19  and  N_20
REMARK    7  A    between atoms: N_20  and  C_21
REMARK                            x       y       z     vdW  Elec       q    Type
REMARK                         _______ _______ _______ _____ _____    ______ ____
ROOT
ATOM      1  C   UNL     1       1.050  -0.570  -3.636  0.00  0.00    +0.019 C 
ENDROOT
BRANCH   1   2
ATOM      2  N   UNL     1       0.385  -0.059  -4.842  0.00  0.00    +0.385 N 
ATOM      3  C   UNL     1       0.466   1.407  -4.860  0.00  0.00    -0.078 C 
ATOM      4  C   UNL     1      -0.295   1.949  -6.072  0.00  0.00    -0.017 C 
ATOM      5  C   UNL     1       0.328   1.386  -7.353  0.00  0.00    -0.032 C 
ATOM      6  C   UNL     1       0.305  -0.144  -7.290  0.00  0.00    -0.017 C 
ATOM      7  C   UNL     1       1.044  -0.609  -6.033  0.00  0.00    -0.078 C 
ATOM      8  H   UNL     1      -0.584  -0.339  -4.835  0.00  0.00    -0.081 HD
BRANCH   5   9
ATOM      9  C   UNL     1      -0.477   1.861  -8.564  0.00  0.00    -0.080 C 
BRANCH   9  10
ATOM     10  N   UNL     1       0.189   1.420  -9.797  0.00  0.00    +0.377 N 
ATOM     11  C   UNL     1      -0.583   1.875 -10.961  0.00  0.00    -0.100 C 
ATOM     12  H   UNL     1       1.118   1.811  -9.836  0.00  0.00    -0.086 HD
ATOM     13  H   UNL     1       0.248   0.413  -9.806  0.00  0.00    -0.086 HD
ENDBRANCH   9  10
ENDBRANCH   5   9
ENDBRANCH   1   2
BRANCH   1  15
ATOM     14  N   UNL     1       0.731  -0.456  -1.186  0.00  0.00    -0.310 N 
ATOM     15  C   UNL     1       0.300  -0.105  -2.414  0.00  0.00    +0.197 C 
ATOM     16  O   UNL     1      -0.690   0.584  -2.536  0.00  0.00    -0.278 OA
ATOM     17  H   UNL     1       1.523  -1.007  -1.089  0.00  0.00    +0.149 HD
BRANCH  14  19
ATOM     18  C   UNL     1      -0.019   1.526   0.010  0.00  0.00    +0.033 C 
ATOM     19  C   UNL     1       0.002  -0.004   0.002  0.00  0.00    +0.052 C 
ATOM     20  C   UNL     1      -1.436  -0.513  -0.087  0.00  0.00    +0.049 C 
ATOM     21  C   UNL     1      -1.556  -1.909   0.586  0.00  0.00    +0.168 C 
ATOM     22  S   UNL     1      -0.454  -1.644   2.043  0.00  0.00    -0.029 S 
ATOM     23  O   UNL     1       0.203  -2.864   2.360  0.00  0.00    -0.174 OA
ATOM     24  O   UNL     1      -1.173  -0.950   3.053  0.00  0.00    -0.174 OA
ATOM     25  C   UNL     1       0.751  -0.495   1.257  0.00  0.00    +0.191 C 
ENDBRANCH  14  19
ENDBRANCH   1  15
TORSDOF 5
