REMARK  Name = ZINC08636817
REMARK  7 active torsions:
REMARK  status: ('A' for Active; 'I' for Inactive)
REMARK    1  A    between atoms: C_1  and  C_2
REMARK    2  A    between atoms: C_5  and  C_8
REMARK    3  A    between atoms: C_9  and  C_19
REMARK    4  A    between atoms: N_11  and  C_13
REMARK    5  A    between atoms: N_20  and  N_21
REMARK    6  A    between atoms: C_22  and  C_24
REMARK    7  A    between atoms: C_24  and  N_25
REMARK                            x       y       z     vdW  Elec       q    Type
REMARK                         _______ _______ _______ _____ _____    ______ ____
ROOT
ATOM      1  C   UNL     1      -5.405  -2.550   0.150  0.00  0.00    +0.142 C 
ATOM      2  N   UNL     1      -4.479  -1.743  -0.268  0.00  0.00    -0.188 NA
ENDROOT
BRANCH   1   4
ATOM      3  C   UNL     1      -6.845  -2.287  -2.031  0.00  0.00    +0.102 A 
ATOM      4  C   UNL     1      -6.604  -2.787  -0.675  0.00  0.00    +0.040 A 
ATOM      5  C   UNL     1      -7.704  -3.520  -0.326  0.00  0.00    +0.124 A 
ATOM      6  N   UNL     1      -8.572  -3.486  -1.357  0.00  0.00    -0.239 N 
ATOM      7  N   UNL     1      -8.029  -2.728  -2.399  0.00  0.00    -0.166 NA
BRANCH   3  12
ATOM      8  C   UNL     1      -3.287   0.985  -5.159  0.00  0.00    +0.044 C 
ATOM      9  C   UNL     1      -4.218   0.129  -4.340  0.00  0.00    -0.050 A 
ATOM     10  C   UNL     1      -3.721  -0.956  -3.641  0.00  0.00    +0.004 A 
ATOM     11  C   UNL     1      -4.569  -1.744  -2.889  0.00  0.00    +0.010 A 
ATOM     12  C   UNL     1      -5.929  -1.445  -2.836  0.00  0.00    +0.003 A 
ATOM     13  C   UNL     1      -6.426  -0.354  -3.548  0.00  0.00    +0.010 A 
ATOM     14  C   UNL     1      -5.567   0.430  -4.292  0.00  0.00    +0.004 A 
ENDBRANCH   3  12
BRANCH   6  15
ATOM     15  C   UNL     1      -9.822  -4.118  -1.383  0.00  0.00    +0.065 A 
ATOM     16  C   UNL     1     -10.254  -4.853  -0.286  0.00  0.00    +0.028 A 
ATOM     17  C   UNL     1     -11.489  -5.470  -0.313  0.00  0.00    +0.002 A 
ATOM     18  C   UNL     1     -12.291  -5.367  -1.435  0.00  0.00    +0.000 A 
ATOM     19  C   UNL     1     -11.862  -4.640  -2.531  0.00  0.00    +0.002 A 
ATOM     20  C   UNL     1     -10.630  -4.016  -2.508  0.00  0.00    +0.028 A 
ENDBRANCH   6  15
ENDBRANCH   1   4
BRANCH   2  21
ATOM     21  N   UNL     1      -3.340  -1.518   0.516  0.00  0.00    -0.206 N 
ATOM     22  C   UNL     1      -2.377  -0.680   0.082  0.00  0.00    +0.250 C 
ATOM     23  O   UNL     1      -2.497  -0.121  -0.989  0.00  0.00    -0.272 OA
ATOM     24  H   UNL     1      -3.244  -1.964   1.371  0.00  0.00    +0.177 HD
BRANCH  22  25
ATOM     25  C   UNL     1      -1.152  -0.438   0.925  0.00  0.00    +0.208 C 
BRANCH  25  26
ATOM     26  N   UNL     1      -0.265   0.504   0.238  0.00  0.00    -0.289 N 
ATOM     27  C   UNL     1      -0.417   1.875   0.470  0.00  0.00    +0.048 A 
ATOM     28  C   UNL     1      -1.681   2.422   0.625  0.00  0.00    +0.024 A 
ATOM     29  C   UNL     1      -1.825   3.778   0.858  0.00  0.00    +0.002 A 
ATOM     30  C   UNL     1      -0.714   4.598   0.928  0.00  0.00    +0.001 A 
ATOM     31  C   UNL     1       0.554   4.062   0.771  0.00  0.00    +0.017 A 
ATOM     32  C   UNL     1       0.703   2.708   0.543  0.00  0.00    +0.034 A 
ATOM     33  S   UNL     1       2.305   1.997   0.340  0.00  0.00    -0.086 S 
ATOM     34  C   UNL     1       1.972   0.606  -0.696  0.00  0.00    +0.034 A 
ATOM     35  C   UNL     1       0.712   0.006  -0.632  0.00  0.00    +0.048 A 
ATOM     36  C   UNL     1       0.438  -1.086  -1.440  0.00  0.00    +0.024 A 
ATOM     37  C   UNL     1       1.408  -1.572  -2.299  0.00  0.00    +0.002 A 
ATOM     38  C   UNL     1       2.653  -0.976  -2.358  0.00  0.00    +0.001 A 
ATOM     39  C   UNL     1       2.938   0.117  -1.554  0.00  0.00    +0.017 A 
ENDBRANCH  25  26
ENDBRANCH  22  25
ENDBRANCH   2  21
TORSDOF 6
