REMARK  Name = ZINC04084841
REMARK  7 active torsions:
REMARK  status: ('A' for Active; 'I' for Inactive)
REMARK    1  A    between atoms: C_1  and  C_2
REMARK    2  A    between atoms: C_2  and  C_4
REMARK    3  A    between atoms: C_2  and  N_10
REMARK    4  A    between atoms: C_11  and  C_13
REMARK    5  A    between atoms: C_13  and  C_15
REMARK    6  A    between atoms: C_13  and  N_21
REMARK    7  A    between atoms: C_22  and  C_24
REMARK                            x       y       z     vdW  Elec       q    Type
REMARK                         _______ _______ _______ _____ _____    ______ ____
ROOT
ATOM      1  C   UNL     1       5.948  -1.157  -0.885  0.00  0.00    +0.189 C 
ENDROOT
BRANCH   1   2
ATOM      2  C   UNL     1       6.838  -0.302  -0.020  0.00  0.00    -0.018 A 
ATOM      3  C   UNL     1       6.885   1.065  -0.214  0.00  0.00    +0.006 A 
ATOM      4  C   UNL     1       7.698   1.850   0.582  0.00  0.00    +0.000 A 
ATOM      5  C   UNL     1       8.471   1.265   1.568  0.00  0.00    +0.000 A 
ATOM      6  C   UNL     1       8.428  -0.103   1.759  0.00  0.00    +0.000 A 
ATOM      7  C   UNL     1       7.612  -0.887   0.966  0.00  0.00    +0.006 A 
ENDBRANCH   1   2
BRANCH   1   9
ATOM      8  N   UNL     1       7.815  -2.025  -2.256  0.00  0.00    -0.307 N 
ATOM      9  C   UNL     1       6.621  -1.401  -2.211  0.00  0.00    +0.238 C 
ATOM     10  O   UNL     1       6.089  -1.036  -3.238  0.00  0.00    -0.273 OA
ATOM     11  H   UNL     1       8.241  -2.317  -1.435  0.00  0.00    +0.149 HD
BRANCH   8  13
ATOM     12  C   UNL     1       9.268  -1.021  -3.948  0.00  0.00    +0.033 C 
ATOM     13  C   UNL     1       8.470  -2.262  -3.545  0.00  0.00    +0.100 C 
BRANCH  13  14
ATOM     14  C   UNL     1       9.400  -3.441  -3.426  0.00  0.00    -0.027 A 
ATOM     15  C   UNL     1      10.170  -3.603  -2.289  0.00  0.00    +0.005 A 
ATOM     16  C   UNL     1      11.020  -4.687  -2.178  0.00  0.00    +0.000 A 
ATOM     17  C   UNL     1      11.109  -5.604  -3.208  0.00  0.00    +0.000 A 
ATOM     18  C   UNL     1      10.343  -5.440  -4.348  0.00  0.00    +0.000 A 
ATOM     19  C   UNL     1       9.489  -4.358  -4.457  0.00  0.00    +0.005 A 
ENDBRANCH  13  14
ENDBRANCH   8  13
ENDBRANCH   1   9
BRANCH   1  20
ATOM     20  N   UNL     1       4.673  -0.469  -1.104  0.00  0.00    -0.302 N 
ATOM     21  C   UNL     1       3.682  -0.582  -0.197  0.00  0.00    +0.200 C 
ATOM     22  O   UNL     1       3.846  -1.253   0.799  0.00  0.00    -0.278 OA
ATOM     23  H   UNL     1       4.543   0.068  -1.901  0.00  0.00    +0.150 HD
BRANCH  21  24
ATOM     24  C   UNL     1       2.371   0.126  -0.422  0.00  0.00    +0.021 C 
ATOM     25  C   UNL     1       2.500   1.591  -0.007  0.00  0.00    +0.028 C 
ATOM     26  C   UNL     1       1.142   2.245   0.003  0.00  0.00    -0.047 A 
ATOM     27  C   UNL     1       1.075   3.630   0.007  0.00  0.00    +0.004 A 
ATOM     28  C   UNL     1      -0.148   4.269   0.021  0.00  0.00    +0.000 A 
ATOM     29  C   UNL     1      -1.313   3.524   0.030  0.00  0.00    +0.000 A 
ATOM     30  C   UNL     1      -1.247   2.146   0.020  0.00  0.00    +0.002 A 
ATOM     31  C   UNL     1      -0.018   1.502   0.010  0.00  0.00    -0.061 A 
ATOM     32  C   UNL     1       0.002  -0.004   0.002  0.00  0.00    -0.045 C 
ATOM     33  N   UNL     1       1.324  -0.505   0.402  0.00  0.00    +0.389 N 
ATOM     34  H   UNL     1       1.488  -0.281   1.391  0.00  0.00    -0.084 HD
ATOM     35  H   UNL     1       1.356  -1.523   0.273  0.00  0.00    -0.084 HD
ENDBRANCH  21  24
ENDBRANCH   1  20
TORSDOF 6
