REMARK  Name = ZINC22366938
REMARK  12 active torsions:
REMARK  status: ('A' for Active; 'I' for Inactive)
REMARK    1  A    between atoms: C_1  and  C_2
REMARK    2  A    between atoms: C_2  and  C_3
REMARK    3  A    between atoms: N_9  and  C_10
REMARK    4  A    between atoms: C_10  and  C_11
REMARK    5  A    between atoms: C_11  and  C_12
REMARK    6  A    between atoms: C_12  and  N_13
REMARK    7  A    between atoms: C_14  and  C_16
REMARK    8  A    between atoms: C_16  and  N_17
REMARK    9  A    between atoms: N_17  and  C_18
REMARK   10  A    between atoms: N_17  and  S_34
REMARK   11  A    between atoms: C_21  and  C_24
REMARK   12  A    between atoms: S_34  and  C_37
REMARK                            x       y       z     vdW  Elec       q    Type
REMARK                         _______ _______ _______ _____ _____    ______ ____
ROOT
ATOM      1  N   UNL     1      -1.087   3.768   0.104  0.00  0.00    -0.199 N 
ENDROOT
BRANCH   1   2
ATOM      2  C   UNL     1      -2.118   4.691  -0.086  0.00  0.00    +0.051 A 
ATOM      3  C   UNL     1      -1.878   5.870  -0.781  0.00  0.00    +0.025 A 
ATOM      4  C   UNL     1      -2.901   6.778  -0.971  0.00  0.00    +0.006 A 
ATOM      5  C   UNL     1      -4.161   6.520  -0.462  0.00  0.00    -0.041 A 
ATOM      6  C   UNL     1      -4.402   5.350   0.235  0.00  0.00    +0.006 A 
ATOM      7  C   UNL     1      -3.385   4.435   0.424  0.00  0.00    +0.025 A 
BRANCH   5   8
ATOM      8  C   UNL     1      -5.273   7.516  -0.667  0.00  0.00    -0.003 C 
ATOM      9  C   UNL     1      -5.787   7.994   0.693  0.00  0.00    +0.015 C 
ATOM     10  C   UNL     1      -6.916   9.005   0.485  0.00  0.00    -0.010 C 
ATOM     11  C   UNL     1      -6.390  10.201  -0.310  0.00  0.00    +0.007 C 
ATOM     12  C   UNL     1      -5.876   9.723  -1.670  0.00  0.00    -0.010 C 
ATOM     13  C   UNL     1      -4.747   8.712  -1.462  0.00  0.00    +0.015 C 
ATOM     14  C   UNL     1      -7.018   9.060  -2.442  0.00  0.00    +0.007 C 
ATOM     15  C   UNL     1      -7.545   7.864  -1.647  0.00  0.00    -0.010 C 
ATOM     16  C   UNL     1      -8.058   8.341  -0.288  0.00  0.00    +0.007 C 
ATOM     17  C   UNL     1      -6.415   6.853  -1.439  0.00  0.00    +0.015 C 
ENDBRANCH   5   8
ENDBRANCH   1   2
BRANCH   1  18
ATOM     18  S   UNL     1      -1.442   2.170   0.354  0.00  0.00    +0.043 S 
ATOM     19  O   UNL     1      -2.706   1.978  -0.267  0.00  0.00    -0.155 OA
ATOM     20  O   UNL     1      -0.296   1.468  -0.106  0.00  0.00    -0.155 OA
ATOM     21  C   UNL     1      -1.598   2.003   2.153  0.00  0.00    +0.218 C 
ENDBRANCH   1  18
BRANCH   1  22
ATOM     22  C   UNL     1       0.308   4.213   0.076  0.00  0.00    +0.226 C 
BRANCH  22  24
ATOM     23  N   UNL     1       2.058   4.636  -1.620  0.00  0.00    -0.314 N 
ATOM     24  C   UNL     1       0.794   4.254  -1.350  0.00  0.00    +0.232 C 
ATOM     25  O   UNL     1       0.048   3.942  -2.254  0.00  0.00    -0.274 OA
ATOM     26  H   UNL     1       2.734   4.919  -0.800  0.00  0.00    +0.149 HD
BRANCH  23  27
ATOM     27  C   UNL     1       2.530   4.676  -3.006  0.00  0.00    +0.102 C 
BRANCH  27  28
ATOM     28  C   UNL     1       3.988   5.140  -3.035  0.00  0.00    +0.000 C 
BRANCH  28  29
ATOM     29  C   UNL     1       4.481   5.182  -4.483  0.00  0.00    -0.077 C 
BRANCH  29  35
ATOM     30  C   UNL     1       6.420   5.583  -5.876  0.00  0.00    -0.069 C 
ATOM     31  C   UNL     1       7.825   6.189  -5.891  0.00  0.00    -0.015 C 
ATOM     32  C   UNL     1       8.727   5.397  -4.939  0.00  0.00    -0.003 C 
ATOM     33  C   UNL     1       8.117   5.419  -3.535  0.00  0.00    -0.019 C 
ATOM     34  C   UNL     1       6.704   4.835  -3.588  0.00  0.00    -0.078 C 
ATOM     35  N   UNL     1       5.881   5.628  -4.511  0.00  0.00    +0.382 N 
ATOM     36  H   UNL     1       5.910   6.674  -4.173  0.00  0.00    -0.081 HD
BRANCH  30  38
ATOM     37  C   UNL     1       5.998   6.228  -8.252  0.00  0.00    +0.002 C 
ATOM     38  C   UNL     1       5.511   6.383  -6.810  0.00  0.00    -0.019 C 
ENDBRANCH  30  38
ENDBRANCH  29  35
ENDBRANCH  28  29
ENDBRANCH  27  28
ENDBRANCH  23  27
ENDBRANCH  22  24
ENDBRANCH   1  22
TORSDOF 10
