REMARK  Name = ZINC08818419
REMARK  13 active torsions:
REMARK  status: ('A' for Active; 'I' for Inactive)
REMARK    1  A    between atoms: C_1  and  C_2
REMARK    2  A    between atoms: C_2  and  C_3
REMARK    3  A    between atoms: C_3  and  O_32
REMARK    4  A    between atoms: C_4  and  C_31
REMARK    5  A    between atoms: C_6  and  C_22
REMARK    6  A    between atoms: C_8  and  C_13
REMARK    7  A    between atoms: C_10  and  C_12
REMARK    8  A    between atoms: C_16  and  N_19
REMARK    9  A    between atoms: N_19  and  C_20
REMARK   10  A    between atoms: N_19  and  C_21
REMARK   11  A    between atoms: C_25  and  N_28
REMARK   12  A    between atoms: N_28  and  C_29
REMARK   13  A    between atoms: N_28  and  C_30
REMARK                            x       y       z     vdW  Elec       q    Type
REMARK                         _______ _______ _______ _____ _____    ______ ____
ROOT
ATOM      1  C   UNL     1      -0.753   3.103   1.168  0.00  0.00    +0.069 C 
ATOM      2  C   UNL     1      -1.284   3.696   2.464  0.00  0.00    +0.008 C 
ATOM      3  C   UNL     1      -0.214   3.814   3.542  0.00  0.00    -0.034 C 
ATOM      4  C   UNL     1       1.578   3.720   1.950  0.00  0.00    -0.034 C 
ATOM      5  C   UNL     1       0.627   3.598   0.766  0.00  0.00    +0.008 C 
ATOM      6  C   UNL     1       0.539   4.933   0.023  0.00  0.00    +0.009 C 
ATOM      7  C   UNL     1      -1.938   5.057   2.220  0.00  0.00    +0.009 C 
ATOM      8  N   UNL     1       0.955   4.526   3.008  0.00  0.00    +0.389 N 
ATOM      9  H   UNL     1       1.633   4.684   3.762  0.00  0.00    -0.084 HD
ATOM     10  H   UNL     1       0.657   5.429   2.620  0.00  0.00    -0.084 HD
ENDROOT
BRANCH   4  11
ATOM     11  C   UNL     1       2.855   4.387   1.506  0.00  0.00    -0.061 A 
ATOM     12  C   UNL     1       2.903   5.763   1.371  0.00  0.00    +0.004 A 
ATOM     13  C   UNL     1       4.073   6.378   0.970  0.00  0.00    +0.023 A 
ATOM     14  C   UNL     1       5.198   5.612   0.691  0.00  0.00    +0.029 A 
ATOM     15  C   UNL     1       5.144   4.231   0.822  0.00  0.00    +0.023 A 
ATOM     16  C   UNL     1       3.973   3.622   1.229  0.00  0.00    +0.004 A 
BRANCH  14  17
ATOM     17  N   UNL     1       6.381   6.231   0.279  0.00  0.00    -0.336 N 
ATOM     18  C   UNL     1       7.529   5.418  -0.129  0.00  0.00    +0.129 C 
ATOM     19  C   UNL     1       6.473   7.693   0.256  0.00  0.00    +0.129 C 
ENDBRANCH  14  17
ENDBRANCH   4  11
BRANCH   3  20
ATOM     20  C   UNL     1      -0.765   4.578   4.719  0.00  0.00    -0.061 A 
ATOM     21  C   UNL     1      -0.820   5.959   4.679  0.00  0.00    +0.004 A 
ATOM     22  C   UNL     1      -1.329   6.662   5.754  0.00  0.00    +0.023 A 
ATOM     23  C   UNL     1      -1.775   5.981   6.879  0.00  0.00    +0.029 A 
ATOM     24  C   UNL     1      -1.713   4.593   6.918  0.00  0.00    +0.023 A 
ATOM     25  C   UNL     1      -1.208   3.896   5.837  0.00  0.00    +0.004 A 
BRANCH  23  26
ATOM     26  N   UNL     1      -2.285   6.689   7.970  0.00  0.00    -0.336 N 
ATOM     27  C   UNL     1      -2.756   5.968   9.155  0.00  0.00    +0.129 C 
ATOM     28  C   UNL     1      -2.350   8.152   7.928  0.00  0.00    +0.129 C 
ENDBRANCH  23  26
ENDBRANCH   3  20
BRANCH   1  30
ATOM     29  C   UNL     1      -2.141   1.044   1.502  0.00  0.00    +0.007 C 
ATOM     30  C   UNL     1      -0.719   1.570   1.295  0.00  0.00    +0.032 C 
ENDBRANCH   1  30
BRANCH   1  31
ATOM     31  O   UNL     1      -1.677   3.427   0.110  0.00  0.00    -0.388 OA
ATOM     32  H   UNL     1      -1.436   3.056  -0.750  0.00  0.00    +0.210 HD
ENDBRANCH   1  31
TORSDOF 6
