REMARK  Name = ZINC54402592
REMARK  8 active torsions:
REMARK  status: ('A' for Active; 'I' for Inactive)
REMARK    1  A    between atoms: C_1  and  C_2
REMARK    2  A    between atoms: C_10  and  C_11
REMARK    3  A    between atoms: N_13  and  N_14
REMARK    4  A    between atoms: N_17  and  C_18
REMARK    5  A    between atoms: C_18  and  C_19
REMARK    6  A    between atoms: C_19  and  N_25
REMARK    7  A    between atoms: N_25  and  C_26
REMARK    8  A    between atoms: N_25  and  C_27
REMARK                            x       y       z     vdW  Elec       q    Type
REMARK                         _______ _______ _______ _____ _____    ______ ____
ROOT
ATOM      1  N   UNL     1       0.266  -0.900   4.497  0.00  0.00    -0.218 N 
ATOM      2  C   UNL     1       0.274  -1.765   5.532  0.00  0.00    +0.316 C 
ATOM      3  O   UNL     1       0.298  -1.347   6.673  0.00  0.00    -0.251 OA
ATOM      4  N   UNL     1       0.254  -3.092   5.300  0.00  0.00    -0.300 N 
ATOM      5  H   UNL     1       0.280   0.055   4.664  0.00  0.00    +0.174 HD
ATOM      6  H   UNL     1       0.234  -3.426   4.389  0.00  0.00    +0.150 HD
ENDROOT
BRANCH   1   9
ATOM      7  C   UNL     1       0.229  -0.518   2.148  0.00  0.00    +0.296 C 
ATOM      8  O   UNL     1       0.247   0.681   2.357  0.00  0.00    -0.265 OA
ATOM      9  N   UNL     1       0.237  -1.382   3.182  0.00  0.00    -0.227 N 
ATOM     10  H   UNL     1       0.223  -2.337   3.016  0.00  0.00    +0.173 HD
BRANCH   7  20
ATOM     11  C   UNL     1       0.205   1.257  -0.406  0.00  0.00    +0.048 C 
ATOM     12  C   UNL     1       0.189  -0.248  -0.347  0.00  0.00    +0.008 A 
ATOM     13  C   UNL     1       0.165  -1.172  -1.481  0.00  0.00    +0.024 A 
ATOM     14  C   UNL     1       0.150  -1.010  -2.869  0.00  0.00    +0.012 A 
ATOM     15  C   UNL     1       0.128  -2.110  -3.679  0.00  0.00    +0.001 A 
ATOM     16  C   UNL     1       0.119  -3.386  -3.132  0.00  0.00    +0.004 A 
ATOM     17  C   UNL     1       0.134  -3.567  -1.766  0.00  0.00    +0.047 A 
ATOM     18  C   UNL     1       0.157  -2.463  -0.921  0.00  0.00    +0.136 A 
ATOM     19  O   UNL     1       0.174  -2.326   0.419  0.00  0.00    -0.450 OA
ATOM     20  C   UNL     1       0.199  -1.023   0.768  0.00  0.00    +0.195 A 
ENDBRANCH   7  20
ENDBRANCH   1   9
BRANCH   4  21
ATOM     21  C   UNL     1       0.263  -4.032   6.424  0.00  0.00    +0.094 C 
BRANCH  21  22
ATOM     22  C   UNL     1       0.093  -5.458   5.898  0.00  0.00    -0.050 C 
ATOM     23  C   UNL     1      -0.028  -6.426   7.077  0.00  0.00    -0.010 C 
ATOM     24  C   UNL     1       1.237  -6.346   7.934  0.00  0.00    -0.001 C 
ATOM     25  C   UNL     1       2.453  -6.725   7.086  0.00  0.00    -0.000 C 
ATOM     26  C   UNL     1       2.574  -5.757   5.907  0.00  0.00    -0.001 C 
ATOM     27  C   UNL     1       1.309  -5.837   5.050  0.00  0.00    -0.010 C 
BRANCH  22  28
ATOM     28  N   UNL     1      -1.121  -5.535   5.075  0.00  0.00    +0.381 N 
ATOM     29  C   UNL     1      -1.304  -6.913   4.598  0.00  0.00    -0.096 C 
ATOM     30  C   UNL     1      -2.284  -5.138   5.880  0.00  0.00    -0.096 C 
ATOM     31  H   UNL     1      -1.032  -4.915   4.284  0.00  0.00    -0.082 HD
ENDBRANCH  22  28
ENDBRANCH  21  22
ENDBRANCH   4  21
TORSDOF 5
