REMARK  Name = ZINC04717972
REMARK  7 active torsions:
REMARK  status: ('A' for Active; 'I' for Inactive)
REMARK    1  A    between atoms: C_1  and  O_2
REMARK    2  A    between atoms: O_2  and  C_3
REMARK    3  A    between atoms: C_13  and  C_17
REMARK    4  A    between atoms: C_20  and  O_25
REMARK    5  A    between atoms: C_21  and  O_23
REMARK    6  A    between atoms: O_23  and  C_24
REMARK    7  A    between atoms: O_25  and  C_26
REMARK                            x       y       z     vdW  Elec       q    Type
REMARK                         _______ _______ _______ _____ _____    ______ ____
ROOT
ATOM      1  C   UNL     1       2.484   4.553  -0.674  0.00  0.00    +0.121 A 
ATOM      2  C   UNL     1       3.079   3.298  -0.783  0.00  0.00    +0.047 A 
ATOM      3  C   UNL     1       2.322   2.153  -0.686  0.00  0.00    +0.030 A 
ATOM      4  C   UNL     1       0.949   2.240  -0.480  0.00  0.00    +0.047 A 
ATOM      5  C   UNL     1       0.343   3.507  -0.368  0.00  0.00    +0.006 A 
ATOM      6  C   UNL     1       1.124   4.662  -0.468  0.00  0.00    +0.056 A 
ATOM      7  C   UNL     1      -1.075   3.251  -0.159  0.00  0.00    -0.022 A 
ATOM      8  C   UNL     1      -1.251   1.914  -0.160  0.00  0.00    +0.010 A 
ATOM      9  N   UNL     1      -0.049   1.296  -0.345  0.00  0.00    -0.359 N 
ATOM     10  H   UNL     1       0.084   0.336  -0.381  0.00  0.00    +0.166 HD
ATOM     11  C   UNL     1      -2.600   1.262   0.034  0.00  0.00    +0.007 C 
ATOM     12  C   UNL     1      -3.404   3.486   0.599  0.00  0.00    -0.076 C 
ATOM     13  C   UNL     1      -2.195   4.242   0.030  0.00  0.00    +0.018 C 
ATOM     14  N   UNL     1      -3.653   2.273  -0.208  0.00  0.00    +0.387 N 
ATOM     15  H   UNL     1      -4.566   1.878   0.049  0.00  0.00    -0.084 HD
ATOM     16  H   UNL     1      -3.657   2.524  -1.203  0.00  0.00    -0.084 HD
ENDROOT
BRANCH  11  17
ATOM     17  C   UNL     1      -2.761   0.132  -0.950  0.00  0.00    -0.052 A 
ATOM     18  C   UNL     1      -3.095   0.404  -2.264  0.00  0.00    +0.006 A 
ATOM     19  C   UNL     1      -3.244  -0.629  -3.171  0.00  0.00    +0.049 A 
ATOM     20  C   UNL     1      -3.058  -1.940  -2.764  0.00  0.00    +0.162 A 
ATOM     21  C   UNL     1      -2.722  -2.214  -1.442  0.00  0.00    +0.162 A 
ATOM     22  C   UNL     1      -2.569  -1.174  -0.539  0.00  0.00    +0.051 A 
BRANCH  21  23
ATOM     23  O   UNL     1      -2.538  -3.500  -1.037  0.00  0.00    -0.491 OA
ATOM     24  C   UNL     1      -2.194  -3.706   0.334  0.00  0.00    +0.277 C 
ENDBRANCH  21  23
BRANCH  20  25
ATOM     25  O   UNL     1      -3.204  -2.958  -3.654  0.00  0.00    -0.485 OA
BRANCH  25  26
ATOM     26  C   UNL     1      -3.427  -2.598  -5.019  0.00  0.00    +0.174 C 
ATOM     27  C   UNL     1      -4.934  -2.385  -5.271  0.00  0.00    +0.044 C 
ATOM     28  C   UNL     1      -5.163  -2.949  -6.696  0.00  0.00    +0.004 C 
ATOM     29  C   UNL     1      -4.235  -4.188  -6.728  0.00  0.00    +0.004 C 
ATOM     30  C   UNL     1      -2.982  -3.743  -5.946  0.00  0.00    +0.044 C 
ENDBRANCH  25  26
ENDBRANCH  20  25
ENDBRANCH  11  17
BRANCH   1  32
ATOM     31  C   UNL     1       4.647   5.490  -0.984  0.00  0.00    +0.277 C 
ATOM     32  O   UNL     1       3.246   5.675  -0.770  0.00  0.00    -0.495 OA
ENDBRANCH   1  32
TORSDOF 5
