REMARK  Name = ZINC63686708
REMARK  7 active torsions:
REMARK  status: ('A' for Active; 'I' for Inactive)
REMARK    1  A    between atoms: C_7  and  C_10
REMARK    2  A    between atoms: C_10  and  C_11
REMARK    3  A    between atoms: C_11  and  N_12
REMARK    4  A    between atoms: C_13  and  C_15
REMARK    5  A    between atoms: C_15  and  C_16
REMARK    6  A    between atoms: C_20  and  N_23
REMARK    7  A    between atoms: N_26  and  C_27
REMARK                            x       y       z     vdW  Elec       q    Type
REMARK                         _______ _______ _______ _____ _____    ______ ____
ROOT
ATOM      1  C   UNL     1      -1.986  -7.007  -4.055  0.00  0.00    +0.075 C 
ATOM      2  C   UNL     1      -2.818  -8.323  -4.037  0.00  0.00    +0.091 C 
ATOM      3  S   UNL     1      -3.471  -8.257  -5.765  0.00  0.00    -0.121 S 
ATOM      4  C   UNL     1      -3.537  -6.422  -5.920  0.00  0.00    +0.203 C 
ATOM      5  N   UNL     1      -2.688  -5.961  -4.800  0.00  0.00    -0.286 NA
ATOM      6  H   UNL     1      -3.206  -5.359  -4.178  0.00  0.00    +0.125 HD
ENDROOT
BRANCH   4   7
ATOM      7  N   UNL     1      -2.985  -5.990  -7.206  0.00  0.00    -0.275 N 
ATOM      8  C   UNL     1      -3.713  -6.129  -8.332  0.00  0.00    +0.306 C 
ATOM      9  O   UNL     1      -4.827  -6.612  -8.280  0.00  0.00    -0.252 OA
ATOM     10  N   UNL     1      -3.205  -5.732  -9.516  0.00  0.00    -0.269 N 
ATOM     11  H   UNL     1      -2.096  -5.605  -7.248  0.00  0.00    +0.153 HD
ATOM     12  H   UNL     1      -2.345  -5.286  -9.550  0.00  0.00    +0.156 HD
BRANCH  10  13
ATOM     13  C   UNL     1      -3.920  -5.964 -10.697  0.00  0.00    +0.035 A 
ATOM     14  C   UNL     1      -3.244  -6.268 -11.871  0.00  0.00    +0.025 A 
ATOM     15  C   UNL     1      -3.951  -6.496 -13.035  0.00  0.00    +0.022 A 
ATOM     16  C   UNL     1      -5.333  -6.423 -13.032  0.00  0.00    +0.041 A 
ATOM     17  C   UNL     1      -6.009  -6.120 -11.864  0.00  0.00    +0.022 A 
ATOM     18  C   UNL     1      -5.307  -5.897 -10.696  0.00  0.00    +0.025 A 
ATOM     19 CL   UNL     1      -6.219  -6.710 -14.497  0.00  0.00    -0.084 Cl
ENDBRANCH  10  13
ENDBRANCH   4   7
BRANCH   1  20
ATOM     20  C   UNL     1      -1.758  -6.535  -2.618  0.00  0.00    +0.115 C 
BRANCH  20  22
ATOM     21  N   UNL     1      -0.479  -4.764  -1.457  0.00  0.00    -0.315 N 
ATOM     22  C   UNL     1      -0.825  -5.352  -2.620  0.00  0.00    +0.215 C 
ATOM     23  O   UNL     1      -0.386  -4.927  -3.668  0.00  0.00    -0.276 OA
ATOM     24  H   UNL     1      -0.830  -5.104  -0.619  0.00  0.00    +0.149 HD
BRANCH  21  25
ATOM     25  C   UNL     1       0.428  -3.614  -1.459  0.00  0.00    +0.108 C 
BRANCH  25  26
ATOM     26  C   UNL     1       0.656  -3.142  -0.022  0.00  0.00    +0.052 C 
BRANCH  26  33
ATOM     27  C   UNL     1      -0.083   1.387   0.003  0.00  0.00    +0.001 A 
ATOM     28  C   UNL     1       1.094   2.148  -0.004  0.00  0.00    +0.002 A 
ATOM     29  C   UNL     1       2.323   1.591  -0.015  0.00  0.00    +0.026 A 
ATOM     30  C   UNL     1       2.471   0.176  -0.022  0.00  0.00    +0.043 A 
ATOM     31  N   UNL     1       3.534  -0.590  -0.034  0.00  0.00    -0.380 N 
ATOM     32  C   UNL     1       3.101  -1.992  -0.036  0.00  0.00    +0.144 C 
ATOM     33  C   UNL     1       1.589  -1.958  -0.024  0.00  0.00    -0.040 C 
ATOM     34  C   UNL     1       1.243  -0.650  -0.015  0.00  0.00    -0.001 A 
ATOM     35  C   UNL     1      -0.055   0.035  -0.002  0.00  0.00    +0.010 A 
ATOM     36  H   UNL     1       4.454  -0.282  -0.041  0.00  0.00    +0.160 HD
ENDBRANCH  26  33
ENDBRANCH  25  26
ENDBRANCH  21  25
ENDBRANCH  20  22
ENDBRANCH   1  20
TORSDOF 7
