REMARK  Name = ZINC63588950
REMARK  11 active torsions:
REMARK  status: ('A' for Active; 'I' for Inactive)
REMARK    1  A    between atoms: C_1  and  C_2
REMARK    2  A    between atoms: C_2  and  O_3
REMARK    3  A    between atoms: O_3  and  C_4
REMARK    4  A    between atoms: C_9  and  N_10
REMARK    5  A    between atoms: N_12  and  C_13
REMARK    6  A    between atoms: C_13  and  C_14
REMARK    7  A    between atoms: C_14  and  C_15
REMARK    8  A    between atoms: N_24  and  C_25
REMARK    9  A    between atoms: C_25  and  C_27
REMARK   10  A    between atoms: C_31  and  O_33
REMARK   11  A    between atoms: O_33  and  C_34
REMARK                            x       y       z     vdW  Elec       q    Type
REMARK                         _______ _______ _______ _____ _____    ______ ____
ROOT
ATOM      1  N   UNL     1      -4.795  -2.145  -1.089  0.00  0.00    -0.325 N 
ATOM      2  C   UNL     1      -5.845  -2.288  -0.229  0.00  0.00    +0.194 C 
ATOM      3  N   UNL     1      -6.492  -1.185   0.247  0.00  0.00    -0.357 N 
ATOM      4  N   UNL     1      -6.237  -3.497   0.143  0.00  0.00    -0.143 NA
ATOM      5  H   UNL     1      -7.204  -1.283   0.898  0.00  0.00    +0.162 HD
ATOM      6  H   UNL     1      -4.902  -2.369  -2.026  0.00  0.00    +0.169 HD
ENDROOT
BRANCH   1  12
ATOM      7  C   UNL     1      -2.535  -1.388  -1.513  0.00  0.00    +0.144 A 
ATOM      8  C   UNL     1      -1.321  -0.918  -1.040  0.00  0.00    +0.048 A 
ATOM      9  C   UNL     1      -1.128  -0.740   0.317  0.00  0.00    +0.004 A 
ATOM     10  C   UNL     1      -2.146  -1.029   1.207  0.00  0.00    +0.002 A 
ATOM     11  C   UNL     1      -3.361  -1.498   0.744  0.00  0.00    +0.029 A 
ATOM     12  C   UNL     1      -3.563  -1.675  -0.617  0.00  0.00    +0.084 A 
BRANCH   7  13
ATOM     13  O   UNL     1      -2.726  -1.563  -2.847  0.00  0.00    -0.490 OA
BRANCH  13  15
ATOM     14  C   UNL     1      -2.028  -1.507  -5.160  0.00  0.00    +0.048 C 
ATOM     15  C   UNL     1      -1.628  -1.249  -3.707  0.00  0.00    +0.226 C 
ENDBRANCH  13  15
ENDBRANCH   7  13
ENDBRANCH   1  12
BRANCH   4  16
ATOM     16  C   UNL     1      -5.494  -4.567  -0.169  0.00  0.00    +0.270 C 
ATOM     17  O   UNL     1      -4.401  -4.420  -0.684  0.00  0.00    -0.268 OA
BRANCH  16  18
ATOM     18  C   UNL     1      -6.002  -5.929   0.114  0.00  0.00    +0.042 A 
ATOM     19  C   UNL     1      -7.301  -6.106   0.594  0.00  0.00    +0.013 A 
ATOM     20  C   UNL     1      -7.771  -7.377   0.856  0.00  0.00    +0.004 A 
ATOM     21  C   UNL     1      -6.960  -8.476   0.644  0.00  0.00    +0.045 A 
ATOM     22  C   UNL     1      -5.667  -8.309   0.168  0.00  0.00    +0.121 A 
ATOM     23  C   UNL     1      -5.187  -7.039  -0.104  0.00  0.00    +0.058 A 
BRANCH  22  24
ATOM     24  O   UNL     1      -4.874  -9.394  -0.038  0.00  0.00    -0.495 OA
ATOM     25  C   UNL     1      -5.435 -10.674   0.257  0.00  0.00    +0.277 C 
ENDBRANCH  22  24
ENDBRANCH  16  18
ENDBRANCH   4  16
BRANCH   3  26
ATOM     26  C   UNL     1      -6.111   0.149  -0.226  0.00  0.00    +0.120 C 
BRANCH  26  27
ATOM     27  C   UNL     1      -6.949   1.205   0.498  0.00  0.00    +0.054 C 
BRANCH  27  28
ATOM     28  C   UNL     1      -6.641   2.566  -0.071  0.00  0.00    -0.040 C 
ATOM     29  C   UNL     1      -7.178   3.124  -1.181  0.00  0.00    -0.001 A 
ATOM     30  C   UNL     1      -8.169   2.647  -2.153  0.00  0.00    +0.010 A 
ATOM     31  C   UNL     1      -8.513   3.450  -3.185  0.00  0.00    +0.001 A 
ATOM     32  C   UNL     1      -7.948   4.723  -3.350  0.00  0.00    +0.002 A 
ATOM     33  C   UNL     1      -7.032   5.229  -2.498  0.00  0.00    +0.026 A 
ATOM     34  C   UNL     1      -6.597   4.471  -1.376  0.00  0.00    +0.043 A 
ATOM     35  N   UNL     1      -5.735   4.736  -0.425  0.00  0.00    -0.380 N 
ATOM     36  C   UNL     1      -5.676   3.588   0.486  0.00  0.00    +0.144 C 
ATOM     37  H   UNL     1      -5.224   5.556  -0.336  0.00  0.00    +0.160 HD
ENDBRANCH  27  28
ENDBRANCH  26  27
ENDBRANCH   3  26
TORSDOF 9
