REMARK  Name = ZINC12917604
REMARK  12 active torsions:
REMARK  status: ('A' for Active; 'I' for Inactive)
REMARK    1  A    between atoms: C_1  and  C_2
REMARK    2  A    between atoms: C_5  and  N_9
REMARK    3  A    between atoms: C_6  and  C_8
REMARK    4  A    between atoms: C_13  and  C_15
REMARK    5  A    between atoms: C_15  and  C_17
REMARK    6  A    between atoms: C_15  and  N_60
REMARK    7  A    between atoms: C_18  and  N_60
REMARK    8  A    between atoms: C_19  and  C_20
REMARK    9  A    between atoms: C_19  and  N_60
REMARK   10  A    between atoms: N_22  and  C_23
REMARK   11  A    between atoms: C_24  and  C_30
REMARK   12  A    between atoms: C_28  and  C_29
REMARK                            x       y       z     vdW  Elec       q    Type
REMARK                         _______ _______ _______ _____ _____    ______ ____
ROOT
ATOM      1  C   UNL     1      -1.917   5.917  -0.492  0.00  0.00    +0.017 C 
ATOM      2  C   UNL     1      -0.777   6.777  -1.041  0.00  0.00    -0.004 C 
ENDROOT
BRANCH   1   7
ATOM      3  N   UNL     1      -5.236   9.318  -1.220  0.00  0.00    -0.269 N 
ATOM      4  C   UNL     1      -4.814   8.053  -1.418  0.00  0.00    +0.310 C 
ATOM      5  O   UNL     1      -5.488   7.284  -2.075  0.00  0.00    -0.252 OA
ATOM      6  N   UNL     1      -3.646   7.642  -0.887  0.00  0.00    -0.241 N 
ATOM      7  C   UNL     1      -3.224   6.377  -1.085  0.00  0.00    +0.207 C 
ATOM      8  O   UNL     1      -3.895   5.609  -1.740  0.00  0.00    -0.277 OA
ATOM      9  H   UNL     1      -4.741   9.907  -0.630  0.00  0.00    +0.156 HD
ATOM     10  H   UNL     1      -3.108   8.256  -0.363  0.00  0.00    +0.159 HD
BRANCH   3  15
ATOM     11  C   UNL     1      -9.907  11.192  -3.839  0.00  0.00    +0.044 C 
ATOM     12  C   UNL     1      -8.666  10.694  -3.144  0.00  0.00    -0.050 A 
ATOM     13  C   UNL     1      -8.000   9.584  -3.631  0.00  0.00    +0.005 A 
ATOM     14  C   UNL     1      -6.863   9.125  -2.995  0.00  0.00    +0.024 A 
ATOM     15  C   UNL     1      -6.388   9.780  -1.866  0.00  0.00    +0.038 A 
ATOM     16  C   UNL     1      -7.061  10.891  -1.377  0.00  0.00    -0.029 A 
ATOM     17  C   UNL     1      -8.195  11.349  -2.020  0.00  0.00    +0.008 A 
ATOM     18  C   UNL     1      -6.553  11.601  -0.149  0.00  0.00    +0.045 C 
ENDBRANCH   3  15
ENDBRANCH   1   7
BRANCH   1  20
ATOM     19  C   UNL     1      -1.484   4.362  -2.296  0.00  0.00    -0.094 C 
ATOM     20  N   UNL     1      -1.708   4.496  -0.841  0.00  0.00    +0.391 N 
ATOM     21  H   UNL     1      -2.547   3.963  -0.583  0.00  0.00    -0.080 HD
BRANCH  20  22
ATOM     22  C   UNL     1      -0.549   3.958  -0.099  0.00  0.00    +0.020 C 
BRANCH  22  23
ATOM     23  C   UNL     1      -0.493   2.466  -0.301  0.00  0.00    +0.201 C 
ATOM     24  O   UNL     1      -1.318   1.917  -1.000  0.00  0.00    -0.278 OA
ATOM     25  N   UNL     1       0.474   1.741   0.296  0.00  0.00    -0.287 N 
ATOM     26  H   UNL     1       1.087   2.167   0.916  0.00  0.00    +0.155 HD
BRANCH  25  27
ATOM     27  C   UNL     1       0.599   0.376   0.016  0.00  0.00    +0.039 A 
ATOM     28  C   UNL     1      -0.476  -0.478   0.224  0.00  0.00    -0.029 A 
ATOM     29  C   UNL     1      -0.351  -1.824  -0.060  0.00  0.00    +0.005 A 
ATOM     30  C   UNL     1       0.846  -2.324  -0.538  0.00  0.00    +0.001 A 
ATOM     31  C   UNL     1       1.920  -1.477  -0.741  0.00  0.00    +0.005 A 
ATOM     32  C   UNL     1       1.800  -0.129  -0.465  0.00  0.00    -0.029 A 
ATOM     33  C   UNL     1       2.971   0.793  -0.687  0.00  0.00    +0.045 C 
ATOM     34  C   UNL     1      -1.779   0.064   0.752  0.00  0.00    +0.045 C 
ENDBRANCH  25  27
ENDBRANCH  22  23
ENDBRANCH  20  22
ENDBRANCH   1  20
TORSDOF 6
