REMARK  Name = ZINC38802609
REMARK  8 active torsions:
REMARK  status: ('A' for Active; 'I' for Inactive)
REMARK    1  A    between atoms: C_1  and  C_2
REMARK    2  A    between atoms: C_2  and  C_3
REMARK    3  A    between atoms: C_2  and  C_4
REMARK    4  A    between atoms: C_4  and  C_5
REMARK    5  A    between atoms: C_5  and  N_6
REMARK    6  A    between atoms: C_14  and  C_16
REMARK    7  A    between atoms: N_17  and  N_18
REMARK    8  A    between atoms: N_18  and  C_19
REMARK                            x       y       z     vdW  Elec       q    Type
REMARK                         _______ _______ _______ _____ _____    ______ ____
ROOT
ATOM      1  N   UNL     1       0.667  -0.609   3.684  0.00  0.00    -0.306 N 
ATOM      2  C   UNL     1       0.502  -1.859   4.297  0.00  0.00    +0.053 A 
ATOM      3  C   UNL     1      -0.331  -2.922   3.968  0.00  0.00    +0.025 A 
ATOM      4  C   UNL     1      -0.321  -4.073   4.733  0.00  0.00    +0.002 A 
ATOM      5  C   UNL     1       0.517  -4.172   5.828  0.00  0.00    +0.002 A 
ATOM      6  C   UNL     1       1.349  -3.120   6.162  0.00  0.00    +0.025 A 
ATOM      7  C   UNL     1       1.346  -1.959   5.399  0.00  0.00    +0.050 A 
ATOM      8  N   UNL     1       2.087  -0.777   5.538  0.00  0.00    -0.320 N 
ATOM      9  C   UNL     1       1.686   0.121   4.448  0.00  0.00    +0.203 C 
ATOM     10  H   UNL     1       2.745  -0.589   6.224  0.00  0.00    +0.148 HD
ENDROOT
BRANCH   9  11
ATOM     11  C   UNL     1       2.868   0.437   3.568  0.00  0.00    +0.144 C 
ATOM     12  N   UNL     1       4.029  -0.009   3.871  0.00  0.00    -0.193 NA
BRANCH  12  13
ATOM     13  N   UNL     1       5.128   0.285   3.054  0.00  0.00    -0.229 N 
ATOM     14  H   UNL     1       5.009   0.827   2.258  0.00  0.00    +0.172 HD
BRANCH  13  15
ATOM     15  C   UNL     1       6.456  -0.227   3.401  0.00  0.00    +0.283 C 
ATOM     16  N   UNL     1       7.186   0.767   4.198  0.00  0.00    -0.347 N 
ATOM     17  C   UNL     1       8.259   1.089   3.535  0.00  0.00    +0.061 A 
ATOM     18  C   UNL     1       9.364   2.016   3.812  0.00  0.00    +0.027 A 
ATOM     19  C   UNL     1      10.365   2.145   2.917  0.00  0.00    +0.002 A 
ATOM     20  C   UNL     1      10.401   1.422   1.712  0.00  0.00    +0.002 A 
ATOM     21  C   UNL     1       9.438   0.547   1.360  0.00  0.00    +0.027 A 
ATOM     22  C   UNL     1       8.297   0.323   2.259  0.00  0.00    +0.061 A 
ATOM     23  N   UNL     1       7.247  -0.442   2.182  0.00  0.00    -0.347 N 
ATOM     24  H   UNL     1       6.918   1.119   5.061  0.00  0.00    +0.163 HD
ATOM     25  H   UNL     1       7.027  -1.044   1.454  0.00  0.00    +0.163 HD
ENDBRANCH  13  15
ENDBRANCH  12  13
ENDBRANCH   9  11
BRANCH   1  26
ATOM     26  C   UNL     1      -0.042  -0.124   2.497  0.00  0.00    +0.107 C 
BRANCH  26  27
ATOM     27  C   UNL     1       0.742  -0.511   1.242  0.00  0.00    +0.022 C 
BRANCH  27  29
ATOM     28  C   UNL     1      -0.019   1.526   0.010  0.00  0.00    +0.007 C 
ATOM     29  C   UNL     1       0.002  -0.004   0.002  0.00  0.00    -0.016 C 
ATOM     30  C   UNL     1       0.718  -0.497  -1.257  0.00  0.00    +0.007 C 
ENDBRANCH  27  29
ENDBRANCH  26  27
ENDBRANCH   1  26
TORSDOF 6
