REMARK  Name = ZINC36643206
REMARK  11 active torsions:
REMARK  status: ('A' for Active; 'I' for Inactive)
REMARK    1  A    between atoms: C_1  and  N_2
REMARK    2  A    between atoms: N_2  and  C_3
REMARK    3  A    between atoms: N_2  and  C_4
REMARK    4  A    between atoms: C_4  and  C_5
REMARK    5  A    between atoms: C_5  and  C_6
REMARK    6  A    between atoms: C_6  and  N_7
REMARK    7  A    between atoms: C_13  and  O_17
REMARK    8  A    between atoms: O_17  and  C_18
REMARK    9  A    between atoms: C_19  and  C_21
REMARK   10  A    between atoms: C_24  and  S_27
REMARK   11  A    between atoms: S_27  and  N_30
REMARK                            x       y       z     vdW  Elec       q    Type
REMARK                         _______ _______ _______ _____ _____    ______ ____
ROOT
ATOM      1  N   UNL     1      -2.980  -4.008  -0.379  0.00  0.00    -0.246 N 
ATOM      2  C   UNL     1      -3.021  -4.882   0.694  0.00  0.00    +0.168 A 
ATOM      3  N   UNL     1      -3.227  -4.619   1.963  0.00  0.00    -0.224 NA
ATOM      4  C   UNL     1      -3.241  -5.582   2.912  0.00  0.00    +0.081 A 
ATOM      5  C   UNL     1      -3.450  -5.433   4.302  0.00  0.00    +0.032 A 
ATOM      6  C   UNL     1      -3.432  -6.520   5.135  0.00  0.00    +0.048 A 
ATOM      7  C   UNL     1      -3.207  -7.804   4.647  0.00  0.00    +0.121 A 
ATOM      8  C   UNL     1      -2.999  -7.986   3.288  0.00  0.00    +0.063 A 
ATOM      9  C   UNL     1      -3.017  -6.899   2.450  0.00  0.00    +0.044 A 
ATOM     10  S   UNL     1      -2.812  -6.657   0.702  0.00  0.00    -0.052 S 
ATOM     11  C   UNL     1      -2.758  -4.477  -1.623  0.00  0.00    +0.252 C 
ATOM     12  O   UNL     1      -2.664  -5.673  -1.813  0.00  0.00    -0.270 OA
ENDROOT
BRANCH  11  13
ATOM     13  C   UNL     1      -2.629  -3.536  -2.755  0.00  0.00    +0.037 A 
ATOM     14  C   UNL     1      -2.023  -2.292  -2.568  0.00  0.00    +0.015 A 
ATOM     15  C   UNL     1      -1.906  -1.419  -3.629  0.00  0.00    +0.029 A 
ATOM     16  C   UNL     1      -2.388  -1.773  -4.877  0.00  0.00    +0.106 A 
ATOM     17  C   UNL     1      -2.989  -3.004  -5.070  0.00  0.00    +0.029 A 
ATOM     18  C   UNL     1      -3.107  -3.889  -4.018  0.00  0.00    +0.015 A 
BRANCH  16  19
ATOM     19  S   UNL     1      -2.234  -0.651  -6.227  0.00  0.00    +0.061 S 
ATOM     20  O   UNL     1      -3.250  -0.997  -7.160  0.00  0.00    -0.153 OA
ATOM     21  O   UNL     1      -2.127   0.649  -5.665  0.00  0.00    -0.153 OA
BRANCH  19  22
ATOM     22  N   UNL     1      -0.786  -0.969  -6.966  0.00  0.00    -0.177 NA
ATOM     23  C   UNL     1       0.393  -0.268  -6.509  0.00  0.00    +0.109 C 
ATOM     24  C   UNL     1       0.547   1.057  -7.297  0.00  0.00    +0.017 C 
ATOM     25  C   UNL     1       0.947   0.781  -8.686  0.00  0.00    +0.001 C 
ATOM     26  C   UNL     1      -0.076  -0.018  -9.488  0.00  0.00    +0.001 C 
ATOM     27  C   UNL     1       0.131  -1.491  -9.234  0.00  0.00    +0.017 C 
ATOM     28  C   UNL     1      -0.752  -1.960  -8.059  0.00  0.00    +0.109 C 
ENDBRANCH  19  22
ENDBRANCH  16  19
ENDBRANCH  11  13
BRANCH   7  29
ATOM     29  O   UNL     1      -3.193  -8.869   5.494  0.00  0.00    -0.495 OA
ATOM     30  C   UNL     1      -3.416  -8.599   6.879  0.00  0.00    +0.277 C 
ENDBRANCH   7  29
BRANCH   1  31
ATOM     31  C   UNL     1      -3.178  -2.572  -0.162  0.00  0.00    +0.114 C 
BRANCH  31  32
ATOM     32  C   UNL     1      -1.926  -1.976   0.485  0.00  0.00    +0.001 C 
BRANCH  32  33
ATOM     33  C   UNL     1      -2.070  -0.456   0.569  0.00  0.00    -0.078 C 
BRANCH  33  35
ATOM     34  C   UNL     1      -0.953   1.583   1.162  0.00  0.00    -0.097 C 
ATOM     35  N   UNL     1      -0.868   0.117   1.190  0.00  0.00    +0.376 N 
ATOM     36  C   UNL     1      -0.770  -0.342   2.582  0.00  0.00    -0.097 C 
ATOM     37  H   UNL     1      -0.051  -0.182   0.679  0.00  0.00    -0.083 HD
ENDBRANCH  33  35
ENDBRANCH  32  33
ENDBRANCH  31  32
ENDBRANCH   1  31
TORSDOF 8
