REMARK  Name = ZINC52094642
REMARK  9 active torsions:
REMARK  status: ('A' for Active; 'I' for Inactive)
REMARK    1  A    between atoms: C_1  and  C_2
REMARK    2  A    between atoms: C_2  and  N_3
REMARK    3  A    between atoms: N_3  and  C_4
REMARK    4  A    between atoms: C_4  and  C_6
REMARK    5  A    between atoms: C_4  and  C_11
REMARK    6  A    between atoms: C_6  and  C_7
REMARK    7  A    between atoms: C_7  and  C_8
REMARK    8  A    between atoms: C_8  and  C_9
REMARK    9  A    between atoms: C_8  and  C_10
REMARK                            x       y       z     vdW  Elec       q    Type
REMARK                         _______ _______ _______ _____ _____    ______ ____
ROOT
ATOM      1  C   UNL     1       1.543  -2.445   0.010  0.00  0.00    -0.045 A 
ATOM      2  C   UNL     1       2.525  -1.636  -0.529  0.00  0.00    +0.031 A 
ATOM      3  C   UNL     1       3.271  -2.082  -1.609  0.00  0.00    +0.067 A 
ATOM      4  C   UNL     1       3.026  -3.347  -2.148  0.00  0.00    +0.068 A 
ATOM      5  C   UNL     1       2.039  -4.152  -1.602  0.00  0.00    +0.043 A 
ATOM      6  C   UNL     1       1.304  -3.701  -0.521  0.00  0.00    +0.022 A 
ATOM      7 BR   UNL     1      -0.037  -4.801   0.231  0.00  0.00    -0.050 Br
ATOM      8  N   UNL     1       3.917  -3.512  -3.206  0.00  0.00    -0.306 N 
ATOM      9  H   UNL     1       3.984  -4.296  -3.775  0.00  0.00    +0.170 HD
ATOM     10  C   UNL     1       4.669  -2.400  -3.306  0.00  0.00    +0.325 A 
ATOM     11  O   UNL     1       5.545  -2.218  -4.130  0.00  0.00    -0.247 OA
ATOM     12  N   UNL     1       4.303  -1.519  -2.356  0.00  0.00    -0.306 N 
ATOM     13  H   UNL     1       4.691  -0.641  -2.216  0.00  0.00    +0.170 HD
ENDROOT
BRANCH   1  14
ATOM     14  C   UNL     1       0.733  -1.960   1.184  0.00  0.00    -0.040 C 
BRANCH  14  15
ATOM     15  N   UNL     1       0.713  -0.491   1.192  0.00  0.00    +0.383 N 
ATOM     16  H   UNL     1       1.659  -0.141   1.185  0.00  0.00    -0.085 HD
ATOM     17  H   UNL     1       0.240  -0.165   2.022  0.00  0.00    -0.085 HD
BRANCH  15  19
ATOM     18  C   UNL     1      -0.019   1.526   0.010  0.00  0.00    -0.017 C 
ATOM     19  C   UNL     1       0.002  -0.004   0.002  0.00  0.00    -0.085 C 
ENDBRANCH  15  19
ENDBRANCH  14  15
BRANCH  14  20
ATOM     20  C   UNL     1       1.361  -2.468   2.483  0.00  0.00    -0.011 C 
BRANCH  20  21
ATOM     21  C   UNL     1       0.471  -2.082   3.666  0.00  0.00    +0.002 C 
BRANCH  21  22
ATOM     22  C   UNL     1       1.100  -2.591   4.965  0.00  0.00    -0.017 C 
ATOM     23  C   UNL     1       0.278  -2.098   6.157  0.00  0.00    +0.007 C 
ATOM     24  C   UNL     1       1.121  -4.120   4.956  0.00  0.00    +0.007 C 
ENDBRANCH  21  22
ENDBRANCH  20  21
ENDBRANCH  14  20
ENDBRANCH   1  14
TORSDOF 6
