REMARK  Name = ZINC65965132
REMARK  7 active torsions:
REMARK  status: ('A' for Active; 'I' for Inactive)
REMARK    1  A    between atoms: C_1  and  C_2
REMARK    2  A    between atoms: C_2  and  C_3
REMARK    3  A    between atoms: C_2  and  N_13
REMARK    4  A    between atoms: N_5  and  C_6
REMARK    5  A    between atoms: C_6  and  C_7
REMARK    6  A    between atoms: C_16  and  C_19
REMARK    7  A    between atoms: N_21  and  C_22
REMARK                            x       y       z     vdW  Elec       q    Type
REMARK                         _______ _______ _______ _____ _____    ______ ____
ROOT
ATOM      1  N   UNL     1       0.324  -0.924   1.101  0.00  0.00    +0.387 N 
ATOM      2  C   UNL     1      -0.449  -0.551   2.292  0.00  0.00    -0.077 C 
ATOM      3  C   UNL     1      -0.058  -1.456   3.462  0.00  0.00    -0.006 C 
ATOM      4  C   UNL     1      -0.354  -2.913   3.096  0.00  0.00    +0.071 C 
ATOM      5  C   UNL     1       0.399  -3.268   1.810  0.00  0.00    -0.006 C 
ATOM      6  C   UNL     1      -0.009  -2.297   0.701  0.00  0.00    -0.077 C 
ATOM      7  H   UNL     1       1.309  -0.866   1.310  0.00  0.00    -0.081 HD
ENDROOT
BRANCH   4   8
ATOM      8  C   UNL     1       0.101  -3.816   4.213  0.00  0.00    +0.216 C 
ATOM      9  O   UNL     1       0.612  -3.342   5.205  0.00  0.00    -0.276 OA
ATOM     10  N   UNL     1      -0.060  -5.150   4.109  0.00  0.00    -0.312 N 
ATOM     11  H   UNL     1      -0.469  -5.529   3.315  0.00  0.00    +0.149 HD
BRANCH  10  12
ATOM     12  C   UNL     1       0.382  -6.028   5.195  0.00  0.00    +0.073 C 
ATOM     13  C   UNL     1       1.870  -6.342   5.023  0.00  0.00    +0.022 C 
ATOM     14  C   UNL     1       2.332  -7.259   6.157  0.00  0.00    +0.002 C 
ATOM     15  C   UNL     1       1.528  -8.561   6.120  0.00  0.00    +0.000 C 
ATOM     16  C   UNL     1       0.041  -8.247   6.292  0.00  0.00    +0.002 C 
ATOM     17  C   UNL     1      -0.421  -7.330   5.158  0.00  0.00    +0.022 C 
ENDBRANCH  10  12
ENDBRANCH   4   8
BRANCH   1  19
ATOM     18  C   UNL     1       0.361   1.425   0.412  0.00  0.00    -0.004 C 
ATOM     19  C   UNL     1       0.002  -0.004   0.002  0.00  0.00    +0.016 C 
BRANCH  19  20
ATOM     20  C   UNL     1       0.792  -0.388  -1.223  0.00  0.00    +0.199 C 
ATOM     21  O   UNL     1       1.868  -0.935  -1.103  0.00  0.00    -0.278 OA
ATOM     22  N   UNL     1       0.303  -0.124  -2.450  0.00  0.00    -0.316 N 
ATOM     23  H   UNL     1      -0.558   0.314  -2.546  0.00  0.00    +0.149 HD
BRANCH  22  24
ATOM     24  C   UNL     1       1.071  -0.498  -3.641  0.00  0.00    +0.107 C 
BRANCH  24  25
ATOM     25  C   UNL     1       0.297  -0.089  -4.896  0.00  0.00    +0.006 C 
ATOM     26  C   UNL     1      -1.000  -0.896  -4.981  0.00  0.00    +0.005 C 
ATOM     27  C   UNL     1      -1.774  -0.487  -6.236  0.00  0.00    +0.000 C 
ATOM     28  C   UNL     1      -0.919  -0.763  -7.474  0.00  0.00    +0.000 C 
ATOM     29  C   UNL     1       0.378   0.044  -7.389  0.00  0.00    +0.000 C 
ATOM     30  C   UNL     1       1.151  -0.365  -6.134  0.00  0.00    +0.005 C 
ENDBRANCH  24  25
ENDBRANCH  22  24
ENDBRANCH  19  20
ENDBRANCH   1  19
TORSDOF 6
