REMARK  Name = ZINC13013755
REMARK  6 active torsions:
REMARK  status: ('A' for Active; 'I' for Inactive)
REMARK    1  A    between atoms: C_1  and  C_2
REMARK    2  A    between atoms: C_2  and  C_14
REMARK    3  A    between atoms: N_12  and  C_13
REMARK    4  A    between atoms: C_17  and  O_20
REMARK    5  A    between atoms: O_20  and  C_21
REMARK    6  A    between atoms: C_21  and  C_22
REMARK                            x       y       z     vdW  Elec       q    Type
REMARK                         _______ _______ _______ _____ _____    ______ ____
ROOT
ATOM      1  C   UNL     1      -0.013   1.086   0.008  0.00  0.00    +0.059 C 
ATOM      2  C   UNL     1      -0.729   1.579   1.267  0.00  0.00    +0.125 C 
ATOM      3  N   UNL     1      -0.764   3.047   1.262  0.00  0.00    -0.319 N 
ATOM      4  C   UNL     1      -1.072   3.707   2.446  0.00  0.00    +0.041 A 
ATOM      5  C   UNL     1      -1.709   4.936   2.456  0.00  0.00    +0.024 A 
ATOM      6  C   UNL     1      -1.999   5.546   3.662  0.00  0.00    +0.002 A 
ATOM      7  C   UNL     1      -1.658   4.937   4.859  0.00  0.00    +0.001 A 
ATOM      8  C   UNL     1      -1.022   3.713   4.867  0.00  0.00    +0.015 A 
ATOM      9  C   UNL     1      -0.722   3.088   3.659  0.00  0.00    +0.058 A 
ATOM     10  C   UNL     1      -0.039   1.783   3.609  0.00  0.00    +0.250 C 
ATOM     11  O   UNL     1       0.501   1.333   4.602  0.00  0.00    -0.270 OA
ATOM     12  N   UNL     1      -0.019   1.093   2.450  0.00  0.00    -0.276 N 
ATOM     13  C   UNL     1       0.727  -0.165   2.374  0.00  0.00    +0.135 C 
ATOM     14  H   UNL     1      -0.577   3.545   0.451  0.00  0.00    +0.148 HD
ENDROOT
BRANCH   2  15
ATOM     15  C   UNL     1      -2.139   1.049   1.278  0.00  0.00    -0.006 A 
ATOM     16  C   UNL     1      -2.414  -0.169   1.871  0.00  0.00    +0.011 A 
ATOM     17  C   UNL     1      -3.707  -0.655   1.888  0.00  0.00    +0.046 A 
ATOM     18  C   UNL     1      -4.729   0.076   1.299  0.00  0.00    +0.121 A 
ATOM     19  C   UNL     1      -4.450   1.296   0.700  0.00  0.00    +0.046 A 
ATOM     20  C   UNL     1      -3.156   1.780   0.692  0.00  0.00    +0.011 A 
BRANCH  18  21
ATOM     21  O   UNL     1      -6.001  -0.402   1.309  0.00  0.00    -0.481 OA
BRANCH  21  22
ATOM     22  C   UNL     1      -6.215  -1.665   1.944  0.00  0.00    +0.353 C 
BRANCH  22  23
ATOM     23  C   UNL     1      -7.674  -2.030   1.857  0.00  0.00    +0.393 C 
ATOM     24  O   UNL     1      -8.451  -1.286   1.308  0.00  0.00    -0.243 OA
ATOM     25  O   UNL     1      -8.110  -3.183   2.389  0.00  0.00    -0.243 OA
ENDBRANCH  22  23
ENDBRANCH  21  22
ENDBRANCH  18  21
ENDBRANCH   2  15
TORSDOF 4
