REMARK  Name = ZINC63743757
REMARK  3 active torsions:
REMARK  status: ('A' for Active; 'I' for Inactive)
REMARK    1  A    between atoms: C_6  and  C_11
REMARK    2  A    between atoms: C_14  and  N_17
REMARK    3  A    between atoms: N_20  and  C_21
REMARK                            x       y       z     vdW  Elec       q    Type
REMARK                         _______ _______ _______ _____ _____    ______ ____
ROOT
ATOM      1  C   UNL     1       4.133  -2.311   1.268  0.00  0.00    -0.021 A 
ATOM      2  C   UNL     1       4.343  -1.700   2.491  0.00  0.00    +0.008 A 
ATOM      3  C   UNL     1       4.688  -2.458   3.592  0.00  0.00    +0.024 A 
ATOM      4  C   UNL     1       4.824  -3.835   3.471  0.00  0.00    +0.035 A 
ATOM      5  C   UNL     1       4.612  -4.445   2.241  0.00  0.00    +0.024 A 
ATOM      6  C   UNL     1       4.261  -3.682   1.145  0.00  0.00    +0.008 A 
ENDROOT
BRANCH   1  12
ATOM      7  C   UNL     1       1.518   2.582   0.268  0.00  0.00    +0.001 A 
ATOM      8  C   UNL     1       2.846   3.028   0.211  0.00  0.00    +0.002 A 
ATOM      9  C   UNL     1       3.896   2.183   0.141  0.00  0.00    +0.026 A 
ATOM     10  C   UNL     1       3.687   0.776   0.121  0.00  0.00    +0.043 A 
ATOM     11  N   UNL     1       4.525  -0.230   0.057  0.00  0.00    -0.374 N 
ATOM     12  C   UNL     1       3.756  -1.480   0.068  0.00  0.00    +0.133 C 
ATOM     13  C   UNL     1       2.302  -1.072   0.150  0.00  0.00    +0.012 C 
ATOM     14  C   UNL     1       2.293   0.280   0.180  0.00  0.00    -0.004 A 
ATOM     15  C   UNL     1       1.209   1.266   0.255  0.00  0.00    +0.010 A 
ATOM     16  H   UNL     1       5.491  -0.160   0.010  0.00  0.00    +0.161 HD
ENDBRANCH   1  12
BRANCH   4  17
ATOM     17  N   UNL     1       5.174  -4.606   4.585  0.00  0.00    -0.269 N 
ATOM     18  C   UNL     1       4.757  -4.243   5.814  0.00  0.00    +0.308 C 
ATOM     19  O   UNL     1       3.999  -3.301   5.945  0.00  0.00    -0.252 OA
ATOM     20  N   UNL     1       5.179  -4.924   6.898  0.00  0.00    -0.269 N 
ATOM     21  H   UNL     1       5.717  -5.402   4.473  0.00  0.00    +0.156 HD
ATOM     22  H   UNL     1       5.841  -5.627   6.801  0.00  0.00    +0.156 HD
BRANCH  20  23
ATOM     23  C   UNL     1       4.663  -4.618   8.162  0.00  0.00    +0.036 A 
ATOM     24  C   UNL     1       3.347  -4.192   8.291  0.00  0.00    +0.023 A 
ATOM     25  C   UNL     1       2.840  -3.890   9.540  0.00  0.00    +0.003 A 
ATOM     26  C   UNL     1       3.641  -4.012  10.661  0.00  0.00    +0.015 A 
ATOM     27  C   UNL     1       4.952  -4.436  10.536  0.00  0.00    +0.020 A 
ATOM     28  C   UNL     1       5.463  -4.745   9.289  0.00  0.00    +0.038 A 
ATOM     29 BR   UNL     1       6.043  -4.600  12.071  0.00  0.00    -0.050 Br
ENDBRANCH  20  23
ENDBRANCH   4  17
TORSDOF 3
