REMARK  Name = ZINC09969243
REMARK  8 active torsions:
REMARK  status: ('A' for Active; 'I' for Inactive)
REMARK    1  A    between atoms: C_1  and  C_2
REMARK    2  A    between atoms: C_2  and  C_3
REMARK    3  A    between atoms: C_2  and  C_4
REMARK    4  A    between atoms: C_7  and  S_10
REMARK    5  A    between atoms: S_10  and  C_13
REMARK    6  A    between atoms: N_25  and  C_26
REMARK    7  A    between atoms: C_30  and  O_32
REMARK    8  A    between atoms: O_32  and  C_33
REMARK                            x       y       z     vdW  Elec       q    Type
REMARK                         _______ _______ _______ _____ _____    ______ ____
ROOT
ATOM      1  C   UNL     1      -8.804  -0.541   2.279  0.00  0.00    +0.249 A 
ATOM      2  C   UNL     1      -7.957   0.220   3.069  0.00  0.00    +0.204 A 
ATOM      3  N   UNL     1      -6.652   0.522   2.965  0.00  0.00    -0.208 NA
ATOM      4  C   UNL     1      -6.067   1.287   3.871  0.00  0.00    +0.141 A 
ATOM      5  C   UNL     1      -6.810   1.782   4.948  0.00  0.00    +0.078 A 
ATOM      6  C   UNL     1      -8.172   1.498   5.093  0.00  0.00    +0.087 A 
ATOM      7  N   UNL     1      -8.724   0.685   4.100  0.00  0.00    -0.192 N 
ATOM      8  N   UNL     1     -10.015   0.186   3.898  0.00  0.00    -0.057 NA
ATOM      9  N   UNL     1     -10.015  -0.524   2.824  0.00  0.00    -0.108 NA
ATOM     10  C   UNL     1      -8.794   2.060   6.210  0.00  0.00    +0.036 A 
ATOM     11  C   UNL     1      -8.086   2.828   7.069  0.00  0.00    +0.048 A 
ATOM     12  S   UNL     1      -6.454   2.813   6.347  0.00  0.00    -0.092 S 
ATOM     13  N   UNL     1      -4.722   1.593   3.758  0.00  0.00    -0.298 N 
ATOM     14  H   UNL     1      -4.274   2.083   4.465  0.00  0.00    +0.154 HD
ENDROOT
BRANCH  13  15
ATOM     15  C   UNL     1      -4.008   1.196   2.623  0.00  0.00    +0.036 A 
ATOM     16  C   UNL     1      -4.638   1.149   1.386  0.00  0.00    +0.023 A 
ATOM     17  C   UNL     1      -3.933   0.755   0.265  0.00  0.00    +0.005 A 
ATOM     18  C   UNL     1      -2.598   0.413   0.370  0.00  0.00    +0.046 A 
ATOM     19  C   UNL     1      -1.965   0.453   1.605  0.00  0.00    +0.122 A 
ATOM     20  C   UNL     1      -2.669   0.847   2.732  0.00  0.00    +0.069 A 
BRANCH  19  21
ATOM     21  O   UNL     1      -0.654   0.110   1.707  0.00  0.00    -0.495 OA
ATOM     22  C   UNL     1       0.009  -0.286   0.505  0.00  0.00    +0.277 C 
ENDBRANCH  19  21
ENDBRANCH  13  15
BRANCH   1  23
ATOM     23  S   UNL     1      -8.351  -1.389   0.802  0.00  0.00    +0.047 S 
ATOM     24  O   UNL     1      -9.543  -1.549   0.044  0.00  0.00    -0.163 OA
ATOM     25  O   UNL     1      -7.205  -0.725   0.289  0.00  0.00    -0.163 OA
BRANCH  23  29
ATOM     26  C   UNL     1      -7.012  -5.544   2.001  0.00  0.00    -0.045 A 
ATOM     27  C   UNL     1      -8.340  -5.305   1.701  0.00  0.00    +0.006 A 
ATOM     28  C   UNL     1      -8.749  -4.037   1.335  0.00  0.00    +0.028 A 
ATOM     29  C   UNL     1      -7.830  -3.006   1.269  0.00  0.00    +0.095 A 
ATOM     30  C   UNL     1      -6.501  -3.246   1.564  0.00  0.00    +0.028 A 
ATOM     31  C   UNL     1      -6.093  -4.514   1.934  0.00  0.00    +0.006 A 
BRANCH  26  33
ATOM     32  C   UNL     1      -5.517  -7.432   1.408  0.00  0.00    +0.012 C 
ATOM     33  C   UNL     1      -6.566  -6.927   2.400  0.00  0.00    +0.013 C 
ATOM     34  C   UNL     1      -5.960  -6.881   3.804  0.00  0.00    +0.012 C 
ENDBRANCH  26  33
ENDBRANCH  23  29
ENDBRANCH   1  23
TORSDOF 5
