REMARK  Name = ZINC39994326
REMARK  7 active torsions:
REMARK  status: ('A' for Active; 'I' for Inactive)
REMARK    1  A    between atoms: C_1  and  C_2
REMARK    2  A    between atoms: C_9  and  N_28
REMARK    3  A    between atoms: C_10  and  C_13
REMARK    4  A    between atoms: C_14  and  C_15
REMARK    5  A    between atoms: C_14  and  C_17
REMARK    6  A    between atoms: N_19  and  C_20
REMARK    7  A    between atoms: N_31  and  C_34
REMARK                            x       y       z     vdW  Elec       q    Type
REMARK                         _______ _______ _______ _____ _____    ______ ____
ROOT
ATOM      1  C   UNL     1       0.829   1.206  -0.105  0.00  0.00    +0.047 C 
ATOM      2  C   UNL     1       0.590  -0.280  -0.045  0.00  0.00    -0.007 A 
ATOM      3  C   UNL     1       0.654  -1.032  -1.181  0.00  0.00    +0.008 A 
ATOM      4  C   UNL     1       0.430  -2.413  -1.109  0.00  0.00    +0.019 A 
ATOM      5  C   UNL     1       0.152  -2.994   0.080  0.00  0.00    +0.096 A 
ATOM      6  N   UNL     1       0.085  -2.251   1.221  0.00  0.00    -0.267 N 
ATOM      7  C   UNL     1       0.305  -0.902   1.183  0.00  0.00    +0.145 A 
ATOM      8  N   UNL     1       0.249  -0.158   2.289  0.00  0.00    -0.213 NA
ATOM      9  C   UNL     1      -0.015  -0.688   3.473  0.00  0.00    +0.136 A 
ATOM     10  C   UNL     1      -0.246  -2.084   3.576  0.00  0.00    +0.081 A 
ATOM     11  C   UNL     1      -0.195  -2.863   2.391  0.00  0.00    +0.267 A 
ATOM     12  O   UNL     1      -0.387  -4.065   2.431  0.00  0.00    -0.267 OA
ENDROOT
BRANCH   9  13
ATOM     13  N   UNL     1      -0.064   0.108   4.594  0.00  0.00    -0.318 N 
ATOM     14  C   UNL     1       0.485  -0.357   5.877  0.00  0.00    +0.088 C 
ATOM     15  C   UNL     1       1.416   0.728   6.428  0.00  0.00    -0.060 C 
ATOM     16  N   UNL     1       0.690   2.002   6.506  0.00  0.00    +0.380 N 
ATOM     17  C   UNL     1       0.318   2.448   5.157  0.00  0.00    -0.060 C 
ATOM     18  C   UNL     1      -0.663   1.451   4.542  0.00  0.00    +0.088 C 
ATOM     19  C   UNL     1       1.547   3.014   7.136  0.00  0.00    -0.096 C 
ATOM     20  H   UNL     1      -0.144   1.878   7.060  0.00  0.00    -0.082 HD
ENDBRANCH   9  13
BRANCH  10  21
ATOM     21  C   UNL     1      -0.529  -2.678   4.819  0.00  0.00    +0.040 C 
ATOM     22  C   UNL     1       0.353  -3.601   5.364  0.00  0.00    +0.114 C 
BRANCH  22  23
ATOM     23  C   UNL     1       0.002  -4.311   6.598  0.00  0.00    +0.259 C 
ATOM     24  O   UNL     1      -1.063  -4.091   7.144  0.00  0.00    -0.269 OA
ATOM     25  N   UNL     1       0.859  -5.207   7.127  0.00  0.00    -0.280 N 
ATOM     26  H   UNL     1       1.676  -5.432   6.657  0.00  0.00    +0.155 HD
BRANCH  25  27
ATOM     27  C   UNL     1       0.568  -5.811   8.355  0.00  0.00    +0.054 A 
ATOM     28  C   UNL     1      -0.748  -6.092   8.698  0.00  0.00    +0.025 A 
ATOM     29  C   UNL     1      -1.032  -6.689   9.911  0.00  0.00    +0.003 A 
ATOM     30  C   UNL     1      -0.008  -7.007  10.784  0.00  0.00    +0.021 A 
ATOM     31  C   UNL     1       1.305  -6.729  10.447  0.00  0.00    +0.061 A 
ATOM     32  C   UNL     1       1.596  -6.137   9.231  0.00  0.00    +0.080 A 
ATOM     33 CL   UNL     1       3.244  -5.795   8.803  0.00  0.00    -0.080 Cl
ATOM     34 CL   UNL     1       2.587  -7.130  11.546  0.00  0.00    -0.082 Cl
ENDBRANCH  25  27
ENDBRANCH  22  23
BRANCH  22  35
ATOM     35  C   UNL     1       1.607  -3.860   4.721  0.00  0.00    +0.104 C 
ATOM     36  N   UNL     1       2.601  -4.065   4.211  0.00  0.00    -0.191 NA
ENDBRANCH  22  35
ENDBRANCH  10  21
TORSDOF 5
