REMARK  Name = ZINC48107339
REMARK  10 active torsions:
REMARK  status: ('A' for Active; 'I' for Inactive)
REMARK    1  A    between atoms: C_1  and  C_2
REMARK    2  A    between atoms: N_7  and  C_9
REMARK    3  A    between atoms: C_9  and  C_11
REMARK    4  A    between atoms: C_9  and  C_12
REMARK    5  A    between atoms: C_12  and  N_13
REMARK    6  A    between atoms: N_16  and  C_17
REMARK    7  A    between atoms: C_20  and  C_23
REMARK    8  A    between atoms: N_25  and  C_26
REMARK    9  A    between atoms: C_26  and  C_27
REMARK   10  A    between atoms: C_26  and  C_28
REMARK                            x       y       z     vdW  Elec       q    Type
REMARK                         _______ _______ _______ _____ _____    ______ ____
ROOT
ATOM      1  N   UNL     1       2.004  -4.565   1.357  0.00  0.00    -0.301 N 
ATOM      2  C   UNL     1       1.963  -5.895   1.145  0.00  0.00    +0.304 C 
ATOM      3  O   UNL     1       1.376  -6.618   1.927  0.00  0.00    -0.253 OA
ATOM      4  N   UNL     1       2.574  -6.424   0.067  0.00  0.00    -0.269 N 
ATOM      5  H   UNL     1       2.472  -3.988   0.734  0.00  0.00    +0.150 HD
ATOM      6  H   UNL     1       2.982  -5.843  -0.594  0.00  0.00    +0.156 HD
ENDROOT
BRANCH   4   7
ATOM      7  C   UNL     1       2.620  -7.808  -0.099  0.00  0.00    +0.035 A 
ATOM      8  C   UNL     1       1.541  -8.591   0.297  0.00  0.00    +0.024 A 
ATOM      9  C   UNL     1       1.583  -9.957   0.135  0.00  0.00    +0.015 A 
ATOM     10  C   UNL     1       2.712 -10.558  -0.430  0.00  0.00    +0.037 A 
ATOM     11  C   UNL     1       3.794  -9.768  -0.828  0.00  0.00    +0.015 A 
ATOM     12  C   UNL     1       3.743  -8.402  -0.667  0.00  0.00    +0.024 A 
BRANCH  10  13
ATOM     13  C   UNL     1       2.761 -12.022  -0.605  0.00  0.00    +0.244 C 
ATOM     14  O   UNL     1       1.818 -12.708  -0.259  0.00  0.00    -0.270 OA
ATOM     15  N   UNL     1       3.850 -12.600  -1.150  0.00  0.00    -0.309 N 
ATOM     16  H   UNL     1       4.601 -12.053  -1.427  0.00  0.00    +0.149 HD
BRANCH  15  17
ATOM     17  C   UNL     1       3.898 -14.053  -1.324  0.00  0.00    +0.067 C 
ATOM     18  C   UNL     1       3.219 -14.432  -2.642  0.00  0.00    +0.027 C 
ATOM     19  C   UNL     1       5.357 -14.516  -1.351  0.00  0.00    +0.027 C 
ENDBRANCH  15  17
ENDBRANCH  10  13
ENDBRANCH   4   7
BRANCH   1  20
ATOM     20  C   UNL     1       1.339  -3.990   2.530  0.00  0.00    +0.090 C 
BRANCH  20  21
ATOM     21  C   UNL     1       1.425  -2.463   2.467  0.00  0.00    -0.054 C 
ATOM     22  C   UNL     1       0.632  -1.859   3.627  0.00  0.00    -0.012 C 
BRANCH  21  28
ATOM     23  C   UNL     1      -2.609  -2.310  -0.302  0.00  0.00    +0.005 C 
ATOM     24  C   UNL     1      -1.127  -1.937  -0.234  0.00  0.00    -0.031 C 
ATOM     25  C   UNL     1      -0.972  -0.423  -0.406  0.00  0.00    -0.001 C 
ATOM     26  C   UNL     1       0.506  -0.051  -0.258  0.00  0.00    -0.018 C 
ATOM     27  C   UNL     1       1.015  -0.536   1.101  0.00  0.00    -0.078 C 
ATOM     28  N   UNL     1       0.864  -1.993   1.193  0.00  0.00    +0.383 N 
ATOM     29  C   UNL     1      -0.557  -2.353   1.123  0.00  0.00    -0.075 C 
ATOM     30  H   UNL     1       1.358  -2.430   0.429  0.00  0.00    -0.081 HD
ENDBRANCH  21  28
ENDBRANCH  20  21
ENDBRANCH   1  20
TORSDOF 6
