REMARK  Name = ZINC59170376
REMARK  6 active torsions:
REMARK  status: ('A' for Active; 'I' for Inactive)
REMARK    1  A    between atoms: C_1  and  C_2
REMARK    2  A    between atoms: C_9  and  C_23
REMARK    3  A    between atoms: N_11  and  C_12
REMARK    4  A    between atoms: C_15  and  S_18
REMARK    5  A    between atoms: S_18  and  N_21
REMARK    6  A    between atoms: N_25  and  C_26
REMARK                            x       y       z     vdW  Elec       q    Type
REMARK                         _______ _______ _______ _____ _____    ______ ____
ROOT
ATOM      1  C   UNL     1      -1.184   1.318  -0.002  0.00  0.00    +0.044 C 
ATOM      2  C   UNL     1      -0.658  -0.093  -0.062  0.00  0.00    -0.050 A 
ATOM      3  C   UNL     1       0.216  -0.459  -1.075  0.00  0.00    +0.007 A 
ATOM      4  C   UNL     1       0.708  -1.747  -1.149  0.00  0.00    +0.047 A 
ATOM      5  C   UNL     1       0.327  -2.686  -0.202  0.00  0.00    +0.137 A 
ATOM      6  C   UNL     1      -0.557  -2.312   0.828  0.00  0.00    +0.018 A 
ATOM      7  C   UNL     1      -1.042  -1.000   0.886  0.00  0.00    +0.015 A 
ATOM      8  C   UNL     1      -0.951  -3.302   1.832  0.00  0.00    +0.030 A 
ATOM      9  C   UNL     1      -0.225  -4.485   1.880  0.00  0.00    +0.098 A 
ATOM     10  C   UNL     1       0.878  -4.637   0.911  0.00  0.00    +0.212 A 
ATOM     11  N   UNL     1       1.911  -5.409   1.174  0.00  0.00    -0.325 N 
ATOM     12  O   UNL     1       0.795  -3.956  -0.261  0.00  0.00    -0.439 OA
ATOM     13  H   UNL     1       2.047  -5.746   2.074  0.00  0.00    +0.169 HD
ENDROOT
BRANCH  11  14
ATOM     14  C   UNL     1       2.791  -5.736   0.181  0.00  0.00    +0.042 A 
ATOM     15  C   UNL     1       2.319  -6.128  -1.075  0.00  0.00    +0.027 A 
ATOM     16  C   UNL     1       3.213  -6.456  -2.072  0.00  0.00    +0.030 A 
ATOM     17  C   UNL     1       4.574  -6.399  -1.832  0.00  0.00    +0.105 A 
ATOM     18  C   UNL     1       5.049  -6.012  -0.591  0.00  0.00    +0.030 A 
ATOM     19  C   UNL     1       4.167  -5.675   0.414  0.00  0.00    +0.027 A 
BRANCH  17  20
ATOM     20  S   UNL     1       5.709  -6.822  -3.112  0.00  0.00    +0.056 S 
ATOM     21  O   UNL     1       6.915  -7.214  -2.472  0.00  0.00    -0.153 OA
ATOM     22  O   UNL     1       5.010  -7.675  -4.009  0.00  0.00    -0.153 OA
BRANCH  20  23
ATOM     23  N   UNL     1       6.045  -5.432  -3.947  0.00  0.00    -0.204 NA
ATOM     24  H   UNL     1       6.910  -5.319  -4.372  0.00  0.00    +0.144 HD
ATOM     25  H   UNL     1       5.378  -4.731  -4.011  0.00  0.00    +0.144 HD
ENDBRANCH  20  23
ENDBRANCH  17  20
ENDBRANCH  11  14
BRANCH   9  26
ATOM     26  C   UNL     1      -0.542  -5.543   2.855  0.00  0.00    +0.253 C 
ATOM     27  O   UNL     1      -1.378  -5.345   3.716  0.00  0.00    -0.270 OA
ATOM     28  N   UNL     1       0.093  -6.729   2.793  0.00  0.00    -0.281 N 
ATOM     29  H   UNL     1       0.783  -6.876   2.127  0.00  0.00    +0.155 HD
BRANCH  28  30
ATOM     30  C   UNL     1      -0.242  -7.750   3.688  0.00  0.00    +0.034 A 
ATOM     31  C   UNL     1      -0.694  -7.436   4.963  0.00  0.00    +0.023 A 
ATOM     32  C   UNL     1      -1.025  -8.446   5.845  0.00  0.00    +0.002 A 
ATOM     33  C   UNL     1      -0.906  -9.769   5.460  0.00  0.00    +0.000 A 
ATOM     34  C   UNL     1      -0.455 -10.085   4.191  0.00  0.00    +0.002 A 
ATOM     35  C   UNL     1      -0.128  -9.079   3.303  0.00  0.00    +0.023 A 
ENDBRANCH  28  30
ENDBRANCH   9  26
TORSDOF 5
