REMARK  Name = ZINC59382612
REMARK  11 active torsions:
REMARK  status: ('A' for Active; 'I' for Inactive)
REMARK    1  A    between atoms: C_4  and  C_7
REMARK    2  A    between atoms: C_7  and  O_9
REMARK    3  A    between atoms: C_7  and  C_10
REMARK    4  A    between atoms: C_10  and  C_35
REMARK    5  A    between atoms: N_11  and  N_12
REMARK    6  A    between atoms: C_13  and  C_15
REMARK    7  A    between atoms: N_17  and  N_18
REMARK    8  A    between atoms: C_19  and  C_20
REMARK    9  A    between atoms: C_19  and  C_29
REMARK   10  A    between atoms: C_20  and  O_22
REMARK   11  A    between atoms: C_20  and  C_23
REMARK                            x       y       z     vdW  Elec       q    Type
REMARK                         _______ _______ _______ _____ _____    ______ ____
ROOT
ATOM      1  N   UNL     1       6.159   0.735  -2.280  0.00  0.00    -0.199 N 
ATOM      2  C   UNL     1       7.352   0.460  -1.717  0.00  0.00    +0.320 C 
ATOM      3  O   UNL     1       7.542  -0.618  -1.192  0.00  0.00    -0.263 OA
ATOM      4  H   UNL     1       6.008   1.597  -2.700  0.00  0.00    +0.178 HD
ENDROOT
BRANCH   2   5
ATOM      5  C   UNL     1       8.439   1.479  -1.739  0.00  0.00    +0.320 C 
ATOM      6  O   UNL     1       8.250   2.558  -2.265  0.00  0.00    -0.263 OA
ATOM      7  N   UNL     1       9.632   1.204  -1.176  0.00  0.00    -0.199 N 
ATOM      8  H   UNL     1       9.784   0.343  -0.757  0.00  0.00    +0.178 HD
BRANCH   7   9
ATOM      9  N   UNL     1      10.654   2.162  -1.197  0.00  0.00    -0.181 NA
ATOM     10  C   UNL     1      11.778   1.926  -0.591  0.00  0.00    +0.099 C 
BRANCH  10  11
ATOM     11  C   UNL     1      12.931   2.822  -0.799  0.00  0.00    +0.001 A 
ATOM     12  C   UNL     1      14.232   2.320  -0.727  0.00  0.00    +0.010 A 
ATOM     13  C   UNL     1      15.305   3.164  -0.923  0.00  0.00    +0.001 A 
ATOM     14  C   UNL     1      15.095   4.505  -1.190  0.00  0.00    +0.000 A 
ATOM     15  C   UNL     1      13.808   5.010  -1.263  0.00  0.00    +0.001 A 
ATOM     16  C   UNL     1      12.726   4.176  -1.075  0.00  0.00    +0.010 A 
ENDBRANCH  10  11
BRANCH  10  17
ATOM     17  C   UNL     1      11.905   0.736   0.325  0.00  0.00    +0.195 C 
BRANCH  17  18
ATOM     18  C   UNL     1      10.711   0.678   1.242  0.00  0.00    -0.013 A 
ATOM     19  C   UNL     1      10.494   1.690   2.159  0.00  0.00    +0.006 A 
ATOM     20  C   UNL     1       9.398   1.637   3.000  0.00  0.00    +0.000 A 
ATOM     21  C   UNL     1       8.519   0.573   2.924  0.00  0.00    +0.000 A 
ATOM     22  C   UNL     1       8.736  -0.438   2.007  0.00  0.00    +0.000 A 
ATOM     23  C   UNL     1       9.829  -0.383   1.163  0.00  0.00    +0.006 A 
ENDBRANCH  17  18
BRANCH  17  24
ATOM     24  O   UNL     1      13.098   0.858   1.103  0.00  0.00    -0.381 OA
ATOM     25  H   UNL     1      13.091   1.604   1.719  0.00  0.00    +0.211 HD
ENDBRANCH  17  24
ENDBRANCH  10  17
ENDBRANCH   7   9
ENDBRANCH   2   5
BRANCH   1  27
ATOM     26  C   UNL     1       3.950   0.085  -2.687  0.00  0.00    +0.099 C 
ATOM     27  N   UNL     1       5.137  -0.223  -2.259  0.00  0.00    -0.181 NA
BRANCH  26  28
ATOM     28  C   UNL     1       2.937  -0.971  -2.873  0.00  0.00    +0.001 A 
ATOM     29  C   UNL     1       1.932  -0.818  -3.830  0.00  0.00    +0.010 A 
ATOM     30  C   UNL     1       0.988  -1.809  -3.998  0.00  0.00    +0.001 A 
ATOM     31  C   UNL     1       1.035  -2.953  -3.221  0.00  0.00    +0.000 A 
ATOM     32  C   UNL     1       2.028  -3.111  -2.270  0.00  0.00    +0.001 A 
ATOM     33  C   UNL     1       2.982  -2.131  -2.095  0.00  0.00    +0.010 A 
ENDBRANCH  26  28
BRANCH  26  34
ATOM     34  C   UNL     1       3.608   1.520  -2.995  0.00  0.00    +0.195 C 
BRANCH  34  38
ATOM     35  C   UNL     1       4.870   4.010   0.238  0.00  0.00    +0.000 A 
ATOM     36  C   UNL     1       5.466   4.134  -1.003  0.00  0.00    +0.000 A 
ATOM     37  C   UNL     1       5.058   3.328  -2.049  0.00  0.00    +0.006 A 
ATOM     38  C   UNL     1       4.054   2.398  -1.854  0.00  0.00    -0.013 A 
ATOM     39  C   UNL     1       3.458   2.273  -0.612  0.00  0.00    +0.006 A 
ATOM     40  C   UNL     1       3.866   3.080   0.433  0.00  0.00    +0.000 A 
ENDBRANCH  34  38
BRANCH  34  41
ATOM     41  O   UNL     1       2.195   1.646  -3.169  0.00  0.00    -0.381 OA
ATOM     42  H   UNL     1       1.683   1.468  -2.368  0.00  0.00    +0.211 HD
ENDBRANCH  34  41
ENDBRANCH  26  34
ENDBRANCH   1  27
TORSDOF 11
