REMARK  Name = ZINC19569622
REMARK  7 active torsions:
REMARK  status: ('A' for Active; 'I' for Inactive)
REMARK    1  A    between atoms: C_1  and  C_2
REMARK    2  A    between atoms: C_4  and  C_29
REMARK    3  A    between atoms: C_6  and  C_8
REMARK    4  A    between atoms: C_8  and  C_14
REMARK    5  A    between atoms: C_14  and  N_15
REMARK    6  A    between atoms: N_15  and  C_16
REMARK    7  A    between atoms: C_16  and  C_17
REMARK                            x       y       z     vdW  Elec       q    Type
REMARK                         _______ _______ _______ _____ _____    ______ ____
ROOT
ATOM      1  N   UNL     1      -0.118  -4.694   0.619  0.00  0.00    +0.382 N 
ATOM      2  H   UNL     1      -0.136  -5.793   0.640  0.00  0.00    -0.085 HD
ATOM      3  H   UNL     1      -1.044  -4.303   1.066  0.00  0.00    -0.085 HD
ENDROOT
BRANCH   1   4
ATOM      4  C   UNL     1       1.038  -4.208   1.384  0.00  0.00    -0.070 C 
BRANCH   4   5
ATOM      5  C   UNL     1       0.861  -4.569   2.860  0.00  0.00    -0.015 C 
ATOM      6  C   UNL     1       2.000  -3.954   3.679  0.00  0.00    +0.038 C 
ATOM      7  C   UNL     1       3.330  -4.562   3.220  0.00  0.00    +0.160 C 
ATOM      8  O   UNL     1       3.281  -5.982   3.369  0.00  0.00    -0.380 OA
ATOM      9  C   UNL     1       2.264  -6.615   2.590  0.00  0.00    +0.160 C 
ATOM     10  C   UNL     1       0.892  -6.092   3.023  0.00  0.00    +0.038 C 
BRANCH   5  16
ATOM     11  C   UNL     1      -3.586  -5.336   5.025  0.00  0.00    +0.044 C 
ATOM     12  C   UNL     1      -2.587  -4.403   4.389  0.00  0.00    -0.050 A 
ATOM     13  C   UNL     1      -2.882  -3.059   4.260  0.00  0.00    +0.006 A 
ATOM     14  C   UNL     1      -1.966  -2.204   3.677  0.00  0.00    -0.050 A 
ATOM     15  C   UNL     1      -0.755  -2.692   3.224  0.00  0.00    +0.007 A 
ATOM     16  C   UNL     1      -0.460  -4.036   3.354  0.00  0.00    -0.042 A 
ATOM     17  C   UNL     1      -1.377  -4.893   3.933  0.00  0.00    +0.007 A 
ATOM     18  C   UNL     1      -2.288  -0.738   3.535  0.00  0.00    +0.044 C 
ENDBRANCH   5  16
ENDBRANCH   4   5
ENDBRANCH   1   4
BRANCH   1  19
ATOM     19  C   UNL     1      -0.047  -4.251  -0.780  0.00  0.00    -0.041 C 
BRANCH  19  20
ATOM     20  C   UNL     1      -1.247  -4.768  -1.532  0.00  0.00    +0.001 A 
ATOM     21  C   UNL     1      -2.342  -3.982  -1.677  0.00  0.00    +0.017 A 
ATOM     22  C   UNL     1      -3.491  -4.513  -2.412  0.00  0.00    -0.001 A 
ATOM     23  C   UNL     1      -4.650  -3.750  -2.595  0.00  0.00    +0.010 A 
ATOM     24  C   UNL     1      -5.704  -4.274  -3.287  0.00  0.00    +0.001 A 
ATOM     25  C   UNL     1      -5.637  -5.558  -3.811  0.00  0.00    +0.002 A 
ATOM     26  C   UNL     1      -4.506  -6.328  -3.644  0.00  0.00    +0.026 A 
ATOM     27  C   UNL     1      -3.420  -5.815  -2.942  0.00  0.00    +0.049 A 
ATOM     28  N   UNL     1      -2.276  -6.563  -2.760  0.00  0.00    -0.322 N 
ATOM     29  H   UNL     1      -2.213  -7.581  -3.171  0.00  0.00    +0.169 HD
ATOM     30  C   UNL     1      -1.226  -6.067  -2.083  0.00  0.00    +0.251 A 
ATOM     31  O   UNL     1      -0.231  -6.756  -1.940  0.00  0.00    -0.268 OA
ENDBRANCH  19  20
ENDBRANCH   1  19
TORSDOF 5
