REMARK  Name = ZINC00129494
REMARK  10 active torsions:
REMARK  status: ('A' for Active; 'I' for Inactive)
REMARK    1  A    between atoms: C_1  and  C_2
REMARK    2  A    between atoms: C_2  and  C_21
REMARK    3  A    between atoms: C_4  and  N_9
REMARK    4  A    between atoms: C_6  and  C_7
REMARK    5  A    between atoms: C_6  and  C_8
REMARK    6  A    between atoms: N_9  and  C_10
REMARK    7  A    between atoms: C_10  and  N_12
REMARK    8  A    between atoms: N_12  and  C_13
REMARK    9  A    between atoms: C_18  and  O_19
REMARK   10  A    between atoms: O_19  and  C_20
REMARK                            x       y       z     vdW  Elec       q    Type
REMARK                         _______ _______ _______ _____ _____    ______ ____
ROOT
ATOM      1  N   UNL     1       0.013   5.075  -1.137  0.00  0.00    -0.324 N 
ATOM      2  H   UNL     1       0.476   5.511  -0.406  0.00  0.00    +0.148 HD
ENDROOT
BRANCH   1   6
ATOM      3  C   UNL     1      -2.578   1.541  -1.698  0.00  0.00    -0.010 C 
ATOM      4  C   UNL     1      -2.261   2.144  -0.324  0.00  0.00    -0.072 C 
ATOM      5  C   UNL     1      -1.824   3.597  -0.494  0.00  0.00    +0.009 C 
ATOM      6  C   UNL     1      -0.390   3.668  -1.016  0.00  0.00    +0.069 C 
ATOM      7  C   UNL     1       0.525   2.969  -0.008  0.00  0.00    +0.009 C 
ATOM      8  C   UNL     1       0.122   1.501   0.130  0.00  0.00    -0.072 C 
ATOM      9  C   UNL     1       0.904   0.915   1.325  0.00  0.00    -0.010 C 
ATOM     10  C   UNL     1       0.552   0.728  -1.121  0.00  0.00    -0.010 C 
ATOM     11  C   UNL     1      -3.578   2.148   0.486  0.00  0.00    -0.010 C 
ATOM     12  N   UNL     1      -1.317   1.289   0.443  0.00  0.00    +0.386 N 
ATOM     13  H   UNL     1      -1.545   0.307   0.245  0.00  0.00    -0.084 HD
ATOM     14  H   UNL     1      -1.457   1.477   1.442  0.00  0.00    -0.084 HD
ENDBRANCH   1   6
BRANCH   1  15
ATOM     15  C   UNL     1      -0.263   5.759  -2.265  0.00  0.00    +0.135 C 
ATOM     16  S   UNL     1      -1.082   4.989  -3.556  0.00  0.00    -0.019 S 
BRANCH  15  17
ATOM     17  N   UNL     1       0.106   7.051  -2.376  0.00  0.00    -0.294 N 
ATOM     18  H   UNL     1       0.498   7.510  -1.617  0.00  0.00    +0.154 HD
BRANCH  17  19
ATOM     19  C   UNL     1      -0.077   7.730  -3.588  0.00  0.00    +0.075 A 
ATOM     20  C   UNL     1       0.259   7.116  -4.787  0.00  0.00    +0.027 A 
ATOM     21  C   UNL     1       0.073   7.786  -5.981  0.00  0.00    +0.002 A 
ATOM     22  C   UNL     1      -0.437   9.072  -5.985  0.00  0.00    +0.004 A 
ATOM     23  C   UNL     1      -0.769   9.691  -4.794  0.00  0.00    +0.047 A 
ATOM     24  C   UNL     1      -0.590   9.025  -3.593  0.00  0.00    +0.141 A 
BRANCH  24  25
ATOM     25  O   UNL     1      -0.916   9.633  -2.421  0.00  0.00    -0.493 OA
ATOM     26  C   UNL     1      -1.437  10.961  -2.502  0.00  0.00    +0.277 C 
ENDBRANCH  24  25
ENDBRANCH  17  19
ENDBRANCH  15  17
ENDBRANCH   1  15
TORSDOF 5
