REMARK  Name = ZINC64461286
REMARK  9 active torsions:
REMARK  status: ('A' for Active; 'I' for Inactive)
REMARK    1  A    between atoms: C_1  and  C_2
REMARK    2  A    between atoms: C_2  and  C_3
REMARK    3  A    between atoms: C_3  and  N_4
REMARK    4  A    between atoms: C_9  and  C_19
REMARK    5  A    between atoms: C_19  and  C_20
REMARK    6  A    between atoms: C_20  and  C_21
REMARK    7  A    between atoms: N_23  and  C_24
REMARK    8  A    between atoms: C_24  and  C_25
REMARK    9  A    between atoms: C_25  and  C_26
REMARK                            x       y       z     vdW  Elec       q    Type
REMARK                         _______ _______ _______ _____ _____    ______ ____
ROOT
ATOM      1  N   UNL     1       0.762  -1.976   1.234  0.00  0.00    -0.265 N 
ATOM      2  C   UNL     1      -0.323  -2.715   1.869  0.00  0.00    +0.253 C 
ATOM      3  N   UNL     1      -0.924  -1.994   3.002  0.00  0.00    -0.219 NA
ATOM      4  N   UNL     1      -0.485  -2.712   4.210  0.00  0.00    -0.234 NA
ATOM      5  C   UNL     1      -0.371  -4.129   3.753  0.00  0.00    +0.159 C 
ATOM      6  N   UNL     1       0.197  -3.978   2.436  0.00  0.00    -0.280 N 
ATOM      7  C   UNL     1       1.130  -4.746   1.743  0.00  0.00    +0.053 A 
ATOM      8  C   UNL     1       1.421  -6.088   1.779  0.00  0.00    +0.031 A 
ATOM      9  C   UNL     1       2.402  -6.580   0.981  0.00  0.00    +0.048 A 
ATOM     10  S   UNL     1       2.976  -5.238   0.141  0.00  0.00    -0.090 S 
ATOM     11  C   UNL     1       1.924  -4.008   0.834  0.00  0.00    +0.095 A 
ATOM     12  C   UNL     1       1.790  -2.631   0.628  0.00  0.00    +0.257 C 
ATOM     13  O   UNL     1       2.581  -2.029  -0.075  0.00  0.00    -0.269 OA
ATOM     14  H   UNL     1      -1.930  -1.985   2.933  0.00  0.00    +0.144 HD
ATOM     15  H   UNL     1       0.405  -2.365   4.535  0.00  0.00    +0.143 HD
ENDROOT
BRANCH   1  16
ATOM     16  C   UNL     1       0.742  -0.511   1.242  0.00  0.00    +0.111 C 
BRANCH  16  18
ATOM     17  C   UNL     1      -0.019   1.526   0.010  0.00  0.00    +0.005 C 
ATOM     18  C   UNL     1       0.002  -0.004   0.002  0.00  0.00    +0.016 C 
ENDBRANCH  16  18
ENDBRANCH   1  16
BRANCH   5  19
ATOM     19  C   UNL     1       0.571  -4.920   4.663  0.00  0.00    +0.049 C 
BRANCH  19  20
ATOM     20  C   UNL     1      -0.049  -5.042   6.056  0.00  0.00    +0.099 C 
BRANCH  20  21
ATOM     21  C   UNL     1       0.879  -5.821   6.952  0.00  0.00    +0.213 C 
ATOM     22  O   UNL     1       1.933  -6.236   6.519  0.00  0.00    -0.276 OA
ATOM     23  N   UNL     1       0.539  -6.054   8.235  0.00  0.00    -0.315 N 
ATOM     24  H   UNL     1      -0.304  -5.722   8.582  0.00  0.00    +0.149 HD
BRANCH  23  25
ATOM     25  C   UNL     1       1.441  -6.811   9.107  0.00  0.00    +0.108 C 
BRANCH  25  26
ATOM     26  C   UNL     1       0.821  -6.934  10.500  0.00  0.00    +0.052 C 
BRANCH  26  27
ATOM     27  C   UNL     1       1.750  -7.712  11.396  0.00  0.00    -0.040 C 
ATOM     28  C   UNL     1       2.669  -7.207  12.250  0.00  0.00    -0.001 A 
ATOM     29  C   UNL     1       3.065  -5.834  12.587  0.00  0.00    +0.010 A 
ATOM     30  C   UNL     1       4.041  -5.639  13.502  0.00  0.00    +0.001 A 
ATOM     31  C   UNL     1       4.683  -6.712  14.136  0.00  0.00    +0.002 A 
ATOM     32  C   UNL     1       4.374  -8.000  13.879  0.00  0.00    +0.026 A 
ATOM     33  C   UNL     1       3.361  -8.322  12.934  0.00  0.00    +0.043 A 
ATOM     34  N   UNL     1       2.889  -9.473  12.518  0.00  0.00    -0.380 N 
ATOM     35  C   UNL     1       1.838  -9.216  11.527  0.00  0.00    +0.144 C 
ATOM     36  H   UNL     1       3.183 -10.347  12.819  0.00  0.00    +0.160 HD
ENDBRANCH  26  27
ENDBRANCH  25  26
ENDBRANCH  23  25
ENDBRANCH  20  21
ENDBRANCH  19  20
ENDBRANCH   5  19
TORSDOF 8
