REMARK  Name = ZINC66665892
REMARK  8 active torsions:
REMARK  status: ('A' for Active; 'I' for Inactive)
REMARK    1  A    between atoms: C_6  and  N_7
REMARK    2  A    between atoms: N_7  and  C_8
REMARK    3  A    between atoms: C_8  and  C_9
REMARK    4  A    between atoms: C_9  and  C_10
REMARK    5  A    between atoms: C_13  and  C_15
REMARK    6  A    between atoms: C_15  and  N_16
REMARK    7  A    between atoms: C_20  and  C_22
REMARK    8  A    between atoms: C_22  and  N_23
REMARK                            x       y       z     vdW  Elec       q    Type
REMARK                         _______ _______ _______ _____ _____    ______ ____
ROOT
ATOM      1  N   UNL     1      -1.375  -0.281  -0.488  0.00  0.00    -0.272 N 
ATOM      2  C   UNL     1      -2.573   0.284  -0.243  0.00  0.00    +0.203 C 
ATOM      3  O   UNL     1      -2.675   1.492  -0.190  0.00  0.00    -0.277 OA
ENDROOT
BRANCH   1   9
ATOM      4  C   UNL     1       0.135   1.343   0.471  0.00  0.00    +0.026 A 
ATOM      5  C   UNL     1       1.265   2.131   0.372  0.00  0.00    +0.040 A 
ATOM      6  C   UNL     1       2.033   2.101  -0.779  0.00  0.00    +0.124 A 
ATOM      7  C   UNL     1       1.671   1.280  -1.834  0.00  0.00    +0.040 A 
ATOM      8  C   UNL     1       0.542   0.490  -1.739  0.00  0.00    +0.026 A 
ATOM      9  C   UNL     1      -0.230   0.519  -0.586  0.00  0.00    +0.036 A 
ATOM     10  F   UNL     1       3.138   2.873  -0.873  0.00  0.00    -0.205 F 
ENDBRANCH   1   9
BRANCH   1  11
ATOM     11  C   UNL     1      -1.270  -1.733  -0.652  0.00  0.00    +0.123 C 
BRANCH  11  12
ATOM     12  C   UNL     1      -1.011  -2.383   0.709  0.00  0.00    +0.115 C 
BRANCH  12  13
ATOM     13  C   UNL     1      -0.903  -3.876   0.541  0.00  0.00    +0.212 C 
ATOM     14  O   UNL     1      -1.021  -4.372  -0.560  0.00  0.00    -0.276 OA
ATOM     15  N   UNL     1      -0.675  -4.661   1.613  0.00  0.00    -0.329 N 
ATOM     16  H   UNL     1      -0.581  -4.264   2.493  0.00  0.00    +0.145 HD
ATOM     17  H   UNL     1      -0.606  -5.622   1.504  0.00  0.00    +0.145 HD
ENDBRANCH  12  13
ENDBRANCH  11  12
ENDBRANCH   1  11
BRANCH   2  18
ATOM     18  C   UNL     1      -3.788  -0.583  -0.035  0.00  0.00    +0.019 C 
BRANCH  18  19
ATOM     19  N   UNL     1      -4.960   0.266   0.212  0.00  0.00    +0.386 N 
ATOM     20  C   UNL     1      -5.270   1.053  -1.000  0.00  0.00    -0.078 C 
ATOM     21  C   UNL     1      -6.361   0.235  -1.735  0.00  0.00    -0.020 C 
ATOM     22  C   UNL     1      -7.194  -0.314  -0.547  0.00  0.00    -0.019 C 
ATOM     23  C   UNL     1      -6.125  -0.578   0.534  0.00  0.00    -0.085 C 
ATOM     24  H   UNL     1      -4.771   0.891   0.981  0.00  0.00    -0.081 HD
BRANCH  23  25
ATOM     25  C   UNL     1      -6.676  -0.202   1.912  0.00  0.00    -0.094 C 
BRANCH  25  26
ATOM     26  N   UNL     1      -7.775  -1.111   2.265  0.00  0.00    +0.379 N 
ATOM     27  C   UNL     1      -7.248  -2.476   2.522  0.00  0.00    -0.079 C 
ATOM     28  C   UNL     1      -8.354  -3.124   3.392  0.00  0.00    -0.020 C 
ATOM     29  C   UNL     1      -8.820  -1.954   4.287  0.00  0.00    -0.020 C 
ATOM     30  C   UNL     1      -8.408  -0.678   3.529  0.00  0.00    -0.079 C 
ATOM     31  H   UNL     1      -8.459  -1.134   1.523  0.00  0.00    -0.082 HD
ENDBRANCH  25  26
ENDBRANCH  23  25
ENDBRANCH  18  19
ENDBRANCH   2  18
TORSDOF 8
