REMARK  Name = ZINC01916170
REMARK  13 active torsions:
REMARK  status: ('A' for Active; 'I' for Inactive)
REMARK    1  A    between atoms: C_1  and  C_2
REMARK    2  A    between atoms: C_2  and  C_3
REMARK    3  A    between atoms: C_3  and  C_4
REMARK    4  A    between atoms: C_4  and  N_58
REMARK    5  A    between atoms: C_5  and  N_58
REMARK    6  A    between atoms: C_6  and  C_7
REMARK    7  A    between atoms: C_6  and  N_58
REMARK    8  A    between atoms: C_8  and  O_32
REMARK    9  A    between atoms: C_14  and  C_28
REMARK   10  A    between atoms: C_15  and  O_18
REMARK   11  A    between atoms: O_18  and  C_19
REMARK   12  A    between atoms: C_21  and  C_27
REMARK   13  A    between atoms: C_23  and  C_25
REMARK                            x       y       z     vdW  Elec       q    Type
REMARK                         _______ _______ _______ _____ _____    ______ ____
ROOT
ATOM      1  C   UNL     1      -0.018   1.503   0.010  0.00  0.00    +0.020 A 
ATOM      2  C   UNL     1       1.170   2.214   0.003  0.00  0.00    +0.122 A 
ATOM      3  C   UNL     1       1.162   3.607   0.011  0.00  0.00    +0.046 A 
ATOM      4  C   UNL     1      -0.020   4.292   0.026  0.00  0.00    +0.019 A 
ATOM      5  C   UNL     1      -1.226   3.589   0.033  0.00  0.00    +0.068 A 
ATOM      6  C   UNL     1      -1.228   2.183   0.020  0.00  0.00    +0.144 A 
ATOM      7  O   UNL     1      -2.399   1.515   0.021  0.00  0.00    -0.447 OA
ATOM      8  C   UNL     1      -3.583   2.142   0.030  0.00  0.00    +0.254 A 
ATOM      9  C   UNL     1      -3.697   3.485   0.037  0.00  0.00    +0.222 A 
ATOM     10  C   UNL     1      -2.522   4.290   0.049  0.00  0.00    +0.235 A 
ATOM     11  O   UNL     1      -2.586   5.507   0.057  0.00  0.00    -0.283 OA
ENDROOT
BRANCH   8  12
ATOM     12  C   UNL     1      -4.840   1.311   0.031  0.00  0.00    +0.454 C 
ATOM     13  F   UNL     1      -5.235   1.060  -1.288  0.00  0.00    -0.163 F 
ATOM     14  F   UNL     1      -4.596   0.097   0.683  0.00  0.00    -0.163 F 
ATOM     15  F   UNL     1      -5.856   2.003   0.699  0.00  0.00    -0.163 F 
ENDBRANCH   8  12
BRANCH   2  16
ATOM     16  O   UNL     1       2.353   1.548  -0.012  0.00  0.00    -0.506 OA
ATOM     17  H   UNL     1       2.687   1.360  -0.900  0.00  0.00    +0.292 HD
ENDBRANCH   2  16
BRANCH   1  18
ATOM     18  C   UNL     1       0.002  -0.004   0.002  0.00  0.00    -0.036 C 
BRANCH  18  20
ATOM     19  C   UNL     1       1.277  -0.138   2.056  0.00  0.00    -0.096 C 
ATOM     20  N   UNL     1       0.000  -0.489   1.398  0.00  0.00    +0.381 N 
ATOM     21  H   UNL     1      -0.771  -0.040   1.906  0.00  0.00    -0.082 HD
BRANCH  20  22
ATOM     22  C   UNL     1      -0.196  -1.953   1.425  0.00  0.00    -0.079 C 
BRANCH  22  23
ATOM     23  C   UNL     1      -0.417  -2.396   2.873  0.00  0.00    -0.019 C 
BRANCH  23  25
ATOM     24  C   UNL     1      -0.866  -4.351   4.362  0.00  0.00    +0.004 C 
ATOM     25  C   UNL     1      -0.644  -3.908   2.915  0.00  0.00    -0.005 C 
ENDBRANCH  23  25
ENDBRANCH  22  23
ENDBRANCH  20  22
ENDBRANCH  18  20
ENDBRANCH   1  18
BRANCH   9  26
ATOM     26  O   UNL     1      -4.927   4.068   0.046  0.00  0.00    -0.448 OA
BRANCH  26  27
ATOM     27  C   UNL     1      -5.498   4.335   1.250  0.00  0.00    +0.129 A 
ATOM     28  C   UNL     1      -4.832   4.009   2.422  0.00  0.00    +0.051 A 
ATOM     29  C   UNL     1      -5.412   4.286   3.645  0.00  0.00    -0.028 A 
ATOM     30  C   UNL     1      -6.661   4.878   3.701  0.00  0.00    +0.047 A 
ATOM     31  C   UNL     1      -7.329   5.199   2.533  0.00  0.00    -0.028 A 
ATOM     32  C   UNL     1      -6.750   4.929   1.308  0.00  0.00    +0.051 A 
ATOM     33  C   UNL     1      -8.690   5.844   2.596  0.00  0.00    +0.045 C 
ATOM     34 CL   UNL     1      -7.390   5.220   5.239  0.00  0.00    -0.083 Cl
ATOM     35  C   UNL     1      -4.686   3.938   4.919  0.00  0.00    +0.045 C 
ENDBRANCH  26  27
ENDBRANCH   9  26
TORSDOF 9
