REMARK  Name = ZINC43227070
REMARK  10 active torsions:
REMARK  status: ('A' for Active; 'I' for Inactive)
REMARK    1  A    between atoms: C_1  and  C_2
REMARK    2  A    between atoms: C_2  and  C_4
REMARK    3  A    between atoms: C_2  and  N_14
REMARK    4  A    between atoms: C_15  and  C_17
REMARK    5  A    between atoms: C_20  and  C_22
REMARK    6  A    between atoms: C_22  and  C_24
REMARK    7  A    between atoms: C_22  and  N_28
REMARK    8  A    between atoms: C_24  and  C_25
REMARK    9  A    between atoms: C_25  and  C_26
REMARK   10  A    between atoms: C_25  and  C_27
REMARK                            x       y       z     vdW  Elec       q    Type
REMARK                         _______ _______ _______ _____ _____    ______ ____
ROOT
ATOM      1  N   UNL     1      -1.372  -0.511   0.012  0.00  0.00    -0.307 N 
ATOM      2  C   UNL     1      -2.051  -0.643  -1.145  0.00  0.00    +0.263 C 
ATOM      3  O   UNL     1      -1.522  -0.341  -2.197  0.00  0.00    -0.269 OA
ATOM      4  H   UNL     1      -1.794  -0.752   0.852  0.00  0.00    +0.149 HD
ENDROOT
BRANCH   2   5
ATOM      5  C   UNL     1      -3.432  -1.153  -1.134  0.00  0.00    +0.133 A 
ATOM      6  C   UNL     1      -4.157  -1.308  -2.286  0.00  0.00    +0.079 A 
ATOM      7  S   UNL     1      -5.621  -1.902  -1.715  0.00  0.00    -0.081 S 
ATOM      8  C   UNL     1      -5.278  -1.935  -0.072  0.00  0.00    +0.065 A 
ATOM      9  N   UNL     1      -4.051  -1.496  -0.000  0.00  0.00    -0.241 NA
BRANCH   8  10
ATOM     10  C   UNL     1      -6.176  -2.375   1.056  0.00  0.00    -0.018 C 
BRANCH  10  11
ATOM     11  N   UNL     1      -7.516  -1.802   0.867  0.00  0.00    +0.384 N 
ATOM     12  H   UNL     1      -8.117  -2.096   1.622  0.00  0.00    -0.089 HD
ATOM     13  H   UNL     1      -7.453  -0.795   0.860  0.00  0.00    -0.089 HD
ATOM     14  H   UNL     1      -7.897  -2.122  -0.011  0.00  0.00    -0.089 HD
ENDBRANCH  10  11
BRANCH  10  15
ATOM     15  C   UNL     1      -6.271  -3.902   1.066  0.00  0.00    -0.007 C 
BRANCH  15  16
ATOM     16  C   UNL     1      -7.080  -4.354   2.284  0.00  0.00    -0.018 C 
ATOM     17  C   UNL     1      -7.281  -5.870   2.228  0.00  0.00    +0.007 C 
ATOM     18  C   UNL     1      -6.325  -3.986   3.563  0.00  0.00    +0.007 C 
ENDBRANCH  15  16
ENDBRANCH  10  15
ENDBRANCH   8  10
ENDBRANCH   2   5
BRANCH   1  20
ATOM     19  C   UNL     1      -0.019   1.526   0.010  0.00  0.00    +0.028 C 
ATOM     20  C   UNL     1       0.002  -0.004   0.002  0.00  0.00    +0.076 C 
BRANCH  20  21
ATOM     21  C   UNL     1       0.742  -0.511   1.242  0.00  0.00    -0.010 C 
ATOM     22  C   UNL     1       0.763  -2.041   1.233  0.00  0.00    +0.012 C 
ATOM     23  C   UNL     1       1.503  -2.548   2.473  0.00  0.00    -0.010 C 
ATOM     24  C   UNL     1       2.938  -2.018   2.462  0.00  0.00    +0.007 C 
ATOM     25  C   UNL     1       2.917  -0.488   2.470  0.00  0.00    -0.010 C 
ATOM     26  C   UNL     1       2.178   0.019   1.231  0.00  0.00    +0.012 C 
ATOM     27  C   UNL     1       2.201   0.005   3.729  0.00  0.00    +0.007 C 
ATOM     28  C   UNL     1       0.766  -0.524   3.740  0.00  0.00    -0.010 C 
ATOM     29  C   UNL     1       0.787  -2.054   3.732  0.00  0.00    +0.007 C 
ATOM     30  C   UNL     1       0.026  -0.018   2.500  0.00  0.00    +0.012 C 
ENDBRANCH  20  21
ENDBRANCH   1  20
TORSDOF 7
