REMARK  Name = ZINC09136598
REMARK  4 active torsions:
REMARK  status: ('A' for Active; 'I' for Inactive)
REMARK    1  A    between atoms: C_4  and  C_7
REMARK    2  A    between atoms: C_7  and  C_9
REMARK    3  A    between atoms: C_11  and  C_33
REMARK    4  A    between atoms: C_33  and  C_35
REMARK                            x       y       z     vdW  Elec       q    Type
REMARK                         _______ _______ _______ _____ _____    ______ ____
ROOT
ATOM      1  C   UNL     1       5.631   2.031  -1.468  0.00  0.00    +0.140 C 
ATOM      2  C   UNL     1       4.747   3.132  -2.098  0.00  0.00    +0.108 C 
ATOM      3  C   UNL     1       3.675   3.406  -1.026  0.00  0.00    +0.107 C 
ATOM      4  C   UNL     1       2.364   3.685  -1.686  0.00  0.00    -0.008 A 
ATOM      5  C   UNL     1       1.573   2.929  -2.525  0.00  0.00    +0.006 A 
ATOM      6  C   UNL     1       0.389   3.506  -2.973  0.00  0.00    +0.000 A 
ATOM      7  C   UNL     1       0.027   4.785  -2.602  0.00  0.00    +0.002 A 
ATOM      8  C   UNL     1       0.821   5.558  -1.772  0.00  0.00    +0.023 A 
ATOM      9  C   UNL     1       2.011   4.990  -1.314  0.00  0.00    +0.038 A 
ATOM     10  N   UNL     1       2.980   5.536  -0.492  0.00  0.00    -0.284 N 
ATOM     11  C   UNL     1       3.984   4.665  -0.249  0.00  0.00    +0.231 C 
ATOM     12  O   UNL     1       4.934   4.859   0.479  0.00  0.00    -0.274 OA
ATOM     13  C   UNL     1       3.679   2.197  -0.100  0.00  0.00    +0.107 C 
ATOM     14  C   UNL     1       4.831  -0.050  -0.231  0.00  0.00    +0.054 C 
ATOM     15  C   UNL     1       3.685  -0.692   0.056  0.00  0.00    +0.022 C 
ATOM     16  C   UNL     1       2.405   0.042  -0.001  0.00  0.00    -0.019 A 
ATOM     17  C   UNL     1       2.382   1.444  -0.040  0.00  0.00    -0.020 A 
ATOM     18  C   UNL     1       1.169   2.094   0.002  0.00  0.00    +0.006 A 
ATOM     19  C   UNL     1      -0.017   1.379   0.010  0.00  0.00    +0.000 A 
ATOM     20  C   UNL     1       0.002  -0.004   0.002  0.00  0.00    +0.001 A 
ATOM     21  C   UNL     1       1.207  -0.675   0.012  0.00  0.00    +0.008 A 
ATOM     22  H   UNL     1       2.945   6.436  -0.133  0.00  0.00    +0.155 HD
ATOM     23  N   UNL     1       4.494   1.284  -0.866  0.00  0.00    -0.384 NA
ATOM     24  H   UNL     1       3.899   1.025  -1.663  0.00  0.00    +0.127 HD
ENDROOT
BRANCH   1  25
ATOM     25  C   UNL     1       6.782   2.619  -0.696  0.00  0.00    +0.183 C 
ATOM     26  O   UNL     1       6.743   2.656   0.516  0.00  0.00    -0.290 OA
BRANCH  25  30
ATOM     27  C   UNL     1      10.159   4.148  -2.756  0.00  0.00    +0.000 A 
ATOM     28  C   UNL     1      10.118   4.192  -1.374  0.00  0.00    +0.001 A 
ATOM     29  C   UNL     1       9.024   3.697  -0.696  0.00  0.00    +0.011 A 
ATOM     30  C   UNL     1       7.953   3.150  -1.411  0.00  0.00    +0.019 A 
ATOM     31  C   UNL     1       8.004   3.104  -2.807  0.00  0.00    +0.011 A 
ATOM     32  C   UNL     1       9.104   3.607  -3.470  0.00  0.00    +0.001 A 
ENDBRANCH  25  30
ENDBRANCH   1  25
BRANCH   2  33
ATOM     33  C   UNL     1       5.547   4.369  -2.416  0.00  0.00    +0.170 C 
ATOM     34  O   UNL     1       5.725   5.212  -1.562  0.00  0.00    -0.292 OA
BRANCH  33  35
ATOM     35  C   UNL     1       6.113   4.553  -3.760  0.00  0.00    +0.018 A 
ATOM     36  C   UNL     1       5.915   3.580  -4.745  0.00  0.00    +0.014 A 
ATOM     37  C   UNL     1       6.443   3.761  -6.005  0.00  0.00    +0.039 A 
ATOM     38  C   UNL     1       7.179   4.901  -6.293  0.00  0.00    +0.123 A 
ATOM     39  C   UNL     1       7.384   5.867  -5.320  0.00  0.00    +0.039 A 
ATOM     40  C   UNL     1       6.857   5.700  -4.058  0.00  0.00    +0.014 A 
ATOM     41  F   UNL     1       7.699   5.071  -7.529  0.00  0.00    -0.205 F 
ENDBRANCH  33  35
ENDBRANCH   2  33
TORSDOF 4
