REMARK  Name = ZINC10048604
REMARK  12 active torsions:
REMARK  status: ('A' for Active; 'I' for Inactive)
REMARK    1  A    between atoms: C_1  and  C_2
REMARK    2  A    between atoms: N_9  and  C_10
REMARK    3  A    between atoms: C_14  and  O_16
REMARK    4  A    between atoms: O_16  and  C_17
REMARK    5  A    between atoms: N_18  and  C_37
REMARK    6  A    between atoms: N_21  and  C_24
REMARK    7  A    between atoms: C_24  and  C_25
REMARK    8  A    between atoms: C_25  and  C_27
REMARK    9  A    between atoms: C_25  and  C_28
REMARK   10  A    between atoms: C_28  and  N_29
REMARK   11  A    between atoms: N_29  and  C_30
REMARK   12  A    between atoms: C_35  and  N_36
REMARK                            x       y       z     vdW  Elec       q    Type
REMARK                         _______ _______ _______ _____ _____    ______ ____
ROOT
ATOM      1  C   UNL     1      -6.547  -1.380  -7.383  0.00  0.00    +0.065 C 
ATOM      2  C   UNL     1      -5.428  -0.459  -6.970  0.00  0.00    +0.040 A 
ATOM      3  C   UNL     1      -4.613  -0.637  -5.935  0.00  0.00    +0.116 A 
ATOM      4  N   UNL     1      -3.724   0.423  -5.891  0.00  0.00    -0.277 N 
ATOM      5  C   UNL     1      -2.651   0.974  -5.208  0.00  0.00    +0.157 A 
ATOM      6  C   UNL     1      -2.326   2.154  -5.876  0.00  0.00    +0.170 A 
ATOM      7  N   UNL     1      -3.170   2.281  -6.897  0.00  0.00    -0.193 NA
ATOM      8  C   UNL     1      -4.010   1.256  -6.919  0.00  0.00    +0.223 A 
ATOM      9  N   UNL     1      -5.072   0.719  -7.602  0.00  0.00    -0.283 N 
ATOM     10  N   UNL     1      -1.273   2.922  -5.402  0.00  0.00    -0.279 N 
ATOM     11  C   UNL     1      -0.586   2.523  -4.315  0.00  0.00    +0.333 A 
ATOM     12  O   UNL     1       0.336   3.207  -3.912  0.00  0.00    -0.246 OA
ATOM     13  N   UNL     1      -0.891   1.387  -3.665  0.00  0.00    -0.259 N 
ATOM     14  C   UNL     1      -1.901   0.596  -4.082  0.00  0.00    +0.283 A 
ATOM     15  O   UNL     1      -2.164  -0.433  -3.485  0.00  0.00    -0.265 OA
ATOM     16  C   UNL     1      -0.908   4.166  -6.083  0.00  0.00    +0.155 C 
ENDROOT
BRANCH   9  17
ATOM     17  C   UNL     1      -5.686   1.266  -8.735  0.00  0.00    +0.053 A 
ATOM     18  C   UNL     1      -4.976   1.377  -9.925  0.00  0.00    +0.026 A 
ATOM     19  C   UNL     1      -5.582   1.916 -11.043  0.00  0.00    +0.006 A 
ATOM     20  C   UNL     1      -6.894   2.345 -10.982  0.00  0.00    +0.046 A 
ATOM     21  C   UNL     1      -7.608   2.236  -9.797  0.00  0.00    +0.122 A 
ATOM     22  C   UNL     1      -7.005   1.692  -8.674  0.00  0.00    +0.071 A 
BRANCH  21  23
ATOM     23  O   UNL     1      -8.898   2.658  -9.739  0.00  0.00    -0.495 OA
ATOM     24  C   UNL     1      -9.457   3.203 -10.936  0.00  0.00    +0.277 C 
ENDBRANCH  21  23
ENDBRANCH   9  17
BRANCH  13  25
ATOM     25  C   UNL     1      -0.111   0.998  -2.487  0.00  0.00    +0.134 C 
BRANCH  25  26
ATOM     26  C   UNL     1      -0.753   1.593  -1.232  0.00  0.00    +0.023 C 
ATOM     27  C   UNL     1      -0.666   3.119  -1.289  0.00  0.00    +0.011 C 
BRANCH  26  28
ATOM     28  C   UNL     1      -0.013   1.086   0.008  0.00  0.00    +0.106 C 
BRANCH  28  29
ATOM     29  N   UNL     1      -0.698   1.558   1.213  0.00  0.00    -0.342 N 
ATOM     30  H   UNL     1      -1.495   2.106   1.135  0.00  0.00    +0.146 HD
BRANCH  29  31
ATOM     31  C   UNL     1      -0.203   1.220   2.479  0.00  0.00    +0.048 A 
ATOM     32  C   UNL     1       0.932   0.433   2.593  0.00  0.00    +0.025 A 
ATOM     33  C   UNL     1       1.422   0.103   3.844  0.00  0.00    +0.002 A 
ATOM     34  C   UNL     1       0.777   0.548   4.982  0.00  0.00    +0.002 A 
ATOM     35  C   UNL     1      -0.359   1.329   4.877  0.00  0.00    +0.024 A 
ATOM     36  C   UNL     1      -0.855   1.668   3.627  0.00  0.00    +0.046 A 
BRANCH  36  37
ATOM     37  N   UNL     1      -2.005   2.459   3.519  0.00  0.00    -0.357 N 
ATOM     38  H   UNL     1      -2.351   2.695   2.644  0.00  0.00    +0.142 HD
ATOM     39  H   UNL     1      -2.457   2.770   4.319  0.00  0.00    +0.142 HD
ENDBRANCH  36  37
ENDBRANCH  29  31
ENDBRANCH  28  29
ENDBRANCH  26  28
ENDBRANCH  25  26
ENDBRANCH  13  25
TORSDOF 8
