REMARK  Name = ZINC12712505
REMARK  15 active torsions:
REMARK  status: ('A' for Active; 'I' for Inactive)
REMARK    1  A    between atoms: C_1  and  C_2
REMARK    2  A    between atoms: C_5  and  C_8
REMARK    3  A    between atoms: C_8  and  C_10
REMARK    4  A    between atoms: C_8  and  N_18
REMARK    5  A    between atoms: N_12  and  C_13
REMARK    6  A    between atoms: C_13  and  C_14
REMARK    7  A    between atoms: C_14  and  C_15
REMARK    8  A    between atoms: C_15  and  C_16
REMARK    9  A    between atoms: C_15  and  C_17
REMARK   10  A    between atoms: N_18  and  C_19
REMARK   11  A    between atoms: C_21  and  C_27
REMARK   12  A    between atoms: C_24  and  O_25
REMARK   13  A    between atoms: O_25  and  C_26
REMARK   14  A    between atoms: C_28  and  C_30
REMARK   15  A    between atoms: C_30  and  N_31
REMARK                            x       y       z     vdW  Elec       q    Type
REMARK                         _______ _______ _______ _____ _____    ______ ____
ROOT
ATOM      1  N   UNL     1      -2.718   3.847   0.142  0.00  0.00    -0.250 N 
ATOM      2  C   UNL     1      -3.337   4.395   1.206  0.00  0.00    +0.242 C 
ATOM      3  O   UNL     1      -4.171   5.261   1.043  0.00  0.00    -0.273 OA
ENDROOT
BRANCH   1   4
ATOM      4  C   UNL     1      -1.755   2.847   0.330  0.00  0.00    +0.079 A 
ATOM      5  C   UNL     1      -0.432   3.191   0.571  0.00  0.00    +0.030 A 
ATOM      6  C   UNL     1       0.516   2.203   0.756  0.00  0.00    -0.048 A 
ATOM      7  C   UNL     1       0.150   0.870   0.702  0.00  0.00    +0.007 A 
ATOM      8  C   UNL     1      -1.165   0.520   0.462  0.00  0.00    +0.048 A 
ATOM      9  C   UNL     1      -2.121   1.504   0.270  0.00  0.00    +0.141 A 
ATOM     10  C   UNL     1       1.952   2.579   1.016  0.00  0.00    +0.044 C 
BRANCH   9  11
ATOM     11  O   UNL     1      -3.414   1.161   0.029  0.00  0.00    -0.493 OA
ATOM     12  C   UNL     1      -3.718  -0.235  -0.013  0.00  0.00    +0.277 C 
ENDBRANCH   9  11
ENDBRANCH   1   4
BRANCH   1  13
ATOM     13  C   UNL     1      -3.052   4.296  -1.212  0.00  0.00    +0.197 C 
BRANCH  13  18
ATOM     14  C   UNL     1      -4.483  -0.264  -4.459  0.00  0.00    +0.044 C 
ATOM     15  C   UNL     1      -4.110   0.925  -3.612  0.00  0.00    -0.050 A 
ATOM     16  C   UNL     1      -5.063   1.875  -3.297  0.00  0.00    +0.004 A 
ATOM     17  C   UNL     1      -4.721   2.966  -2.520  0.00  0.00    +0.006 A 
ATOM     18  C   UNL     1      -3.425   3.107  -2.059  0.00  0.00    -0.018 A 
ATOM     19  C   UNL     1      -2.471   2.159  -2.378  0.00  0.00    +0.006 A 
ATOM     20  C   UNL     1      -2.815   1.065  -3.151  0.00  0.00    +0.004 A 
ENDBRANCH  13  18
BRANCH  13  21
ATOM     21  C   UNL     1      -1.860   4.991  -1.819  0.00  0.00    +0.238 C 
ATOM     22  O   UNL     1      -0.833   5.099  -1.184  0.00  0.00    -0.273 OA
ATOM     23  N   UNL     1      -1.936   5.491  -3.068  0.00  0.00    -0.313 N 
ATOM     24  H   UNL     1      -2.758   5.404  -3.577  0.00  0.00    +0.149 HD
BRANCH  23  25
ATOM     25  C   UNL     1      -0.777   6.166  -3.659  0.00  0.00    +0.104 C 
BRANCH  25  26
ATOM     26  C   UNL     1      -1.126   6.635  -5.073  0.00  0.00    +0.022 C 
BRANCH  26  27
ATOM     27  C   UNL     1       0.084   7.340  -5.689  0.00  0.00    -0.016 C 
ATOM     28  C   UNL     1      -0.222   7.699  -7.145  0.00  0.00    +0.007 C 
ATOM     29  C   UNL     1       0.386   8.617  -4.902  0.00  0.00    +0.007 C 
ENDBRANCH  26  27
ENDBRANCH  25  26
ENDBRANCH  23  25
ENDBRANCH  13  21
ENDBRANCH   1  13
BRANCH   2  30
ATOM     30  C   UNL     1      -2.993   3.933   2.598  0.00  0.00    +0.242 C 
BRANCH  30  31
ATOM     31  N   UNL     1      -3.796   4.677   3.572  0.00  0.00    -0.235 N 
ATOM     32  C   UNL     1      -5.034   4.325   4.057  0.00  0.00    +0.090 A 
ATOM     33  C   UNL     1      -5.891   3.254   3.833  0.00  0.00    +0.029 A 
ATOM     34  C   UNL     1      -7.088   3.192   4.491  0.00  0.00    +0.002 A 
ATOM     35  C   UNL     1      -7.456   4.191   5.383  0.00  0.00    +0.002 A 
ATOM     36  C   UNL     1      -6.633   5.252   5.621  0.00  0.00    +0.032 A 
ATOM     37  C   UNL     1      -5.400   5.340   4.959  0.00  0.00    +0.113 A 
ATOM     38  N   UNL     1      -4.401   6.243   4.987  0.00  0.00    -0.129 NA
ATOM     39  N   UNL     1      -3.451   5.884   4.197  0.00  0.00    -0.064 NA
ENDBRANCH  30  31
ENDBRANCH   2  30
TORSDOF 10
