REMARK  Name = ZINC62504035
REMARK  11 active torsions:
REMARK  status: ('A' for Active; 'I' for Inactive)
REMARK    1  A    between atoms: C_1  and  C_2
REMARK    2  A    between atoms: C_2  and  C_3
REMARK    3  A    between atoms: C_2  and  N_8
REMARK    4  A    between atoms: C_3  and  C_4
REMARK    5  A    between atoms: C_4  and  N_5
REMARK    6  A    between atoms: N_5  and  C_6
REMARK    7  A    between atoms: N_5  and  C_7
REMARK    8  A    between atoms: N_11  and  C_12
REMARK    9  A    between atoms: C_12  and  C_13
REMARK   10  A    between atoms: C_13  and  C_14
REMARK   11  A    between atoms: N_16  and  C_17
REMARK                            x       y       z     vdW  Elec       q    Type
REMARK                         _______ _______ _______ _____ _____    ______ ____
ROOT
ATOM      1  N   UNL     1      -1.367  -0.527   0.011  0.00  0.00    -0.297 N 
ATOM      2  C   UNL     1      -2.048  -0.652  -1.145  0.00  0.00    +0.300 C 
ATOM      3  O   UNL     1      -1.522  -0.342  -2.196  0.00  0.00    -0.253 OA
ATOM      4  N   UNL     1      -3.312  -1.120  -1.136  0.00  0.00    -0.299 N 
ATOM      5  H   UNL     1      -1.786  -0.775   0.850  0.00  0.00    +0.151 HD
ATOM      6  H   UNL     1      -3.731  -1.367  -0.297  0.00  0.00    +0.150 HD
ENDROOT
BRANCH   1   8
ATOM      7  C   UNL     1      -0.016   1.511   0.020  0.00  0.00    +0.028 C 
ATOM      8  C   UNL     1       0.007  -0.018   0.001  0.00  0.00    +0.070 C 
BRANCH   8   9
ATOM      9  C   UNL     1       0.750  -0.533   1.236  0.00  0.00    +0.003 C 
BRANCH   9  10
ATOM     10  C   UNL     1       0.882  -2.055   1.154  0.00  0.00    -0.078 C 
BRANCH  10  11
ATOM     11  N   UNL     1       1.596  -2.549   2.339  0.00  0.00    +0.376 N 
ATOM     12  C   UNL     1       1.617  -4.018   2.321  0.00  0.00    -0.097 C 
ATOM     13  C   UNL     1       2.973  -2.039   2.329  0.00  0.00    -0.097 C 
ATOM     14  H   UNL     1       1.125  -2.230   3.173  0.00  0.00    -0.083 HD
ENDBRANCH  10  11
ENDBRANCH   9  10
ENDBRANCH   8   9
ENDBRANCH   1   8
BRANCH   4  15
ATOM     15  C   UNL     1      -4.052  -1.255  -2.393  0.00  0.00    +0.115 C 
BRANCH  15  16
ATOM     16  C   UNL     1      -5.451  -1.804  -2.104  0.00  0.00    +0.115 C 
BRANCH  16  17
ATOM     17  C   UNL     1      -6.212  -1.943  -3.397  0.00  0.00    +0.219 C 
ATOM     18  O   UNL     1      -5.688  -1.633  -4.446  0.00  0.00    -0.275 OA
ATOM     19  N   UNL     1      -7.476  -2.411  -3.388  0.00  0.00    -0.285 N 
ATOM     20  H   UNL     1      -7.872  -2.721  -2.559  0.00  0.00    +0.155 HD
BRANCH  19  21
ATOM     21  C   UNL     1      -8.217  -2.449  -4.575  0.00  0.00    +0.033 A 
ATOM     22  C   UNL     1      -9.583  -2.204  -4.550  0.00  0.00    +0.024 A 
ATOM     23  C   UNL     1     -10.312  -2.242  -5.723  0.00  0.00    +0.017 A 
ATOM     24  C   UNL     1      -9.681  -2.524  -6.922  0.00  0.00    +0.018 A 
ATOM     25  C   UNL     1      -8.320  -2.769  -6.949  0.00  0.00    +0.017 A 
ATOM     26  C   UNL     1      -7.585  -2.727  -5.780  0.00  0.00    +0.024 A 
ATOM     27 BR   UNL     1     -10.682  -2.576  -8.525  0.00  0.00    -0.050 Br
ENDBRANCH  19  21
ENDBRANCH  16  17
ENDBRANCH  15  16
ENDBRANCH   4  15
TORSDOF 8
