REMARK  Name = ZINC23993251
REMARK  6 active torsions:
REMARK  status: ('A' for Active; 'I' for Inactive)
REMARK    1  A    between atoms: C_1  and  C_2
REMARK    2  A    between atoms: C_2  and  C_4
REMARK    3  A    between atoms: C_2  and  N_17
REMARK    4  A    between atoms: N_6  and  C_7
REMARK    5  A    between atoms: C_9  and  N_14
REMARK    6  A    between atoms: C_20  and  O_23
REMARK                            x       y       z     vdW  Elec       q    Type
REMARK                         _______ _______ _______ _____ _____    ______ ____
ROOT
ATOM      1  C   UNL     1      -1.310  -0.438   0.203  0.00  0.00    +0.203 C 
ATOM      2  O   UNL     1      -1.540  -1.121   1.179  0.00  0.00    -0.277 OA
ATOM      3  N   UNL     1      -2.282  -0.208  -0.702  0.00  0.00    -0.286 N 
ATOM      4  H   UNL     1      -2.079   0.276  -1.518  0.00  0.00    +0.155 HD
ENDROOT
BRANCH   3   5
ATOM      5  C   UNL     1      -3.583  -0.667  -0.465  0.00  0.00    +0.054 A 
ATOM      6  C   UNL     1      -3.986  -0.979   0.827  0.00  0.00    +0.057 A 
ATOM      7  C   UNL     1      -5.270  -1.431   1.058  0.00  0.00    +0.128 A 
ATOM      8  C   UNL     1      -6.155  -1.574   0.004  0.00  0.00    +0.034 A 
ATOM      9  C   UNL     1      -5.758  -1.264  -1.283  0.00  0.00    +0.024 A 
ATOM     10  C   UNL     1      -4.476  -0.806  -1.521  0.00  0.00    +0.062 A 
ATOM     11 CL   UNL     1      -3.979  -0.410  -3.136  0.00  0.00    -0.082 Cl
BRANCH   7  12
ATOM     12  N   UNL     1      -5.700  -1.765   2.434  0.00  0.00    +0.056 N 
ATOM     13  O   UNL     1      -4.927  -1.641   3.356  0.00  0.00    -0.126 OA
ATOM     14  O   UNL     1      -6.824  -2.161   2.637  0.00  0.00    -0.126 OA
ENDBRANCH   7  12
ENDBRANCH   3   5
BRANCH   1  16
ATOM     15  C   UNL     1       0.108   1.553   0.617  0.00  0.00    -0.004 C 
ATOM     16  C   UNL     1       0.061   0.152   0.003  0.00  0.00    +0.016 C 
BRANCH  16  17
ATOM     17  N   UNL     1       1.062  -0.702   0.656  0.00  0.00    +0.387 N 
ATOM     18  C   UNL     1       1.059  -2.027   0.025  0.00  0.00    -0.075 C 
ATOM     19  C   UNL     1       2.042  -2.946   0.754  0.00  0.00    +0.013 C 
ATOM     20  C   UNL     1       3.448  -2.345   0.674  0.00  0.00    +0.111 C 
ATOM     21  C   UNL     1       3.424  -0.934   1.268  0.00  0.00    +0.013 C 
ATOM     22  C   UNL     1       2.389  -0.090   0.520  0.00  0.00    -0.075 C 
ATOM     23  H   UNL     1       0.835  -0.797   1.635  0.00  0.00    -0.081 HD
BRANCH  20  24
ATOM     24  O   UNL     1       4.358  -3.160   1.416  0.00  0.00    -0.392 OA
ATOM     25  H   UNL     1       5.270  -2.838   1.409  0.00  0.00    +0.210 HD
ENDBRANCH  20  24
ENDBRANCH  16  17
ENDBRANCH   1  16
TORSDOF 5
