REMARK  Name = ZINC06877456
REMARK  9 active torsions:
REMARK  status: ('A' for Active; 'I' for Inactive)
REMARK    1  A    between atoms: C_1  and  C_2
REMARK    2  A    between atoms: C_2  and  N_60
REMARK    3  A    between atoms: C_8  and  N_25
REMARK    4  A    between atoms: C_9  and  C_10
REMARK    5  A    between atoms: C_10  and  C_12
REMARK    6  A    between atoms: C_10  and  N_13
REMARK    7  A    between atoms: N_16  and  C_17
REMARK    8  A    between atoms: C_20  and  C_24
REMARK    9  A    between atoms: C_22  and  C_23
REMARK                            x       y       z     vdW  Elec       q    Type
REMARK                         _______ _______ _______ _____ _____    ______ ____
ROOT
ATOM      1  C   UNL     1      -2.015  -1.838   3.366  0.00  0.00    -0.074 C 
ATOM      2  C   UNL     1      -1.681  -0.928   2.181  0.00  0.00    +0.018 C 
ATOM      3  C   UNL     1      -0.165  -0.917   2.002  0.00  0.00    -0.034 A 
ATOM      4  C   UNL     1       0.633  -1.333   3.024  0.00  0.00    -0.021 A 
ATOM      5  S   UNL     1       2.273  -1.159   2.380  0.00  0.00    -0.077 S 
ATOM      6  C   UNL     1       1.833  -0.537   0.764  0.00  0.00    +0.090 A 
ATOM      7  C   UNL     1       0.476  -0.503   0.837  0.00  0.00    +0.007 A 
ATOM      8  C   UNL     1       0.191  -1.817   4.366  0.00  0.00    -0.035 C 
ATOM      9  N   UNL     1      -1.228  -1.422   4.545  0.00  0.00    +0.383 N 
ATOM     10  H   UNL     1      -1.282  -0.401   4.640  0.00  0.00    -0.081 HD
ENDROOT
BRANCH   6  11
ATOM     11  N   UNL     1       2.668  -0.177  -0.300  0.00  0.00    -0.317 N 
ATOM     12  C   UNL     1       4.021  -0.357  -0.347  0.00  0.00    +0.092 A 
ATOM     13  C   UNL     1       4.468   0.111  -1.530  0.00  0.00    +0.019 A 
ATOM     14  C   UNL     1       3.355   0.608  -2.236  0.00  0.00    +0.019 A 
ATOM     15  C   UNL     1       2.267   0.419  -1.461  0.00  0.00    +0.092 A 
ENDBRANCH   6  11
BRANCH   9  17
ATOM     16  C   UNL     1      -1.813  -3.571   5.617  0.00  0.00    -0.017 C 
ATOM     17  C   UNL     1      -1.778  -2.048   5.767  0.00  0.00    -0.082 C 
ENDBRANCH   9  17
BRANCH   7  18
ATOM     18  C   UNL     1      -0.333  -0.026  -0.342  0.00  0.00    +0.104 C 
ATOM     19  C   UNL     1      -0.173   1.489  -0.490  0.00  0.00    +0.033 C 
BRANCH  18  20
ATOM     20  N   UNL     1       0.140  -0.689  -1.560  0.00  0.00    -0.292 N 
ATOM     21  C   UNL     1      -0.623  -0.681  -2.671  0.00  0.00    +0.304 C 
ATOM     22  O   UNL     1      -1.703  -0.124  -2.663  0.00  0.00    -0.252 OA
ATOM     23  N   UNL     1      -0.187  -1.291  -3.791  0.00  0.00    -0.269 N 
ATOM     24  H   UNL     1       1.002  -1.133  -1.566  0.00  0.00    +0.151 HD
ATOM     25  H   UNL     1       0.707  -1.666  -3.823  0.00  0.00    +0.156 HD
BRANCH  23  26
ATOM     26  C   UNL     1      -1.025  -1.383  -4.909  0.00  0.00    +0.038 A 
ATOM     27  C   UNL     1      -2.404  -1.330  -4.751  0.00  0.00    +0.024 A 
ATOM     28  C   UNL     1      -3.227  -1.421  -5.856  0.00  0.00    +0.005 A 
ATOM     29  C   UNL     1      -2.680  -1.563  -7.118  0.00  0.00    -0.050 A 
ATOM     30  C   UNL     1      -1.308  -1.615  -7.278  0.00  0.00    +0.008 A 
ATOM     31  C   UNL     1      -0.479  -1.520  -6.178  0.00  0.00    -0.029 A 
ATOM     32  C   UNL     1       1.017  -1.572  -6.354  0.00  0.00    +0.045 C 
ATOM     33  C   UNL     1      -3.582  -1.661  -8.321  0.00  0.00    +0.044 C 
ENDBRANCH  23  26
ENDBRANCH  18  20
ENDBRANCH   7  18
TORSDOF 5
