REMARK  Name = ZINC12661711
REMARK  8 active torsions:
REMARK  status: ('A' for Active; 'I' for Inactive)
REMARK    1  A    between atoms: C_1  and  C_2
REMARK    2  A    between atoms: C_7  and  C_40
REMARK    3  A    between atoms: C_18  and  C_20
REMARK    4  A    between atoms: C_20  and  N_78
REMARK    5  A    between atoms: C_23  and  C_26
REMARK    6  A    between atoms: C_26  and  C_27
REMARK    7  A    between atoms: C_26  and  C_33
REMARK    8  A    between atoms: C_26  and  O_39
REMARK                            x       y       z     vdW  Elec       q    Type
REMARK                         _______ _______ _______ _____ _____    ______ ____
ROOT
ATOM      1  C   UNL     1      -2.418   3.238  -1.054  0.00  0.00    -0.078 C 
ATOM      2  C   UNL     1      -3.528   4.127  -1.620  0.00  0.00    -0.012 C 
ATOM      3  C   UNL     1      -3.898   3.641  -3.024  0.00  0.00    +0.026 C 
ATOM      4  C   UNL     1      -4.332   2.175  -2.950  0.00  0.00    -0.012 C 
ATOM      5  C   UNL     1      -3.199   1.342  -2.346  0.00  0.00    -0.078 C 
ATOM      6  N   UNL     1      -2.908   1.844  -0.986  0.00  0.00    +0.380 N 
ATOM      7  H   UNL     1      -3.771   1.821  -0.431  0.00  0.00    -0.082 HD
ENDROOT
BRANCH   6   8
ATOM      8  C   UNL     1      -1.896   0.985  -0.337  0.00  0.00    -0.063 C 
BRANCH   8  23
ATOM      9  C   UNL     1       0.091   1.510   4.051  0.00  0.00    +0.012 C 
ATOM     10  C   UNL     1       0.802   0.492   3.156  0.00  0.00    +0.012 C 
ATOM     11  C   UNL     1       1.849  -0.269   3.973  0.00  0.00    +0.007 C 
ATOM     12  C   UNL     1       1.142  -1.089   5.054  0.00  0.00    +0.001 C 
ATOM     13  C   UNL     1       0.271  -2.156   4.391  0.00  0.00    +0.011 C 
ATOM     14  C   UNL     1      -0.827  -1.486   3.558  0.00  0.00    -0.007 C 
ATOM     15  C   UNL     1      -0.211  -0.499   2.609  0.00  0.00    -0.064 C 
ATOM     16  C   UNL     1      -0.505  -0.437   1.349  0.00  0.00    -0.019 C 
ATOM     17  C   UNL     1      -1.488  -1.319   0.639  0.00  0.00    +0.064 C 
ATOM     18  C   UNL     1      -2.412  -2.012   1.665  0.00  0.00    +0.185 C 
ATOM     19  C   UNL     1      -1.626  -2.556   2.834  0.00  0.00    +0.056 C 
ATOM     20  O   UNL     1      -3.336  -0.953   2.053  0.00  0.00    -0.461 OA
ATOM     21  C   UNL     1      -3.652  -0.265   0.935  0.00  0.00    +0.309 C 
ATOM     22  O   UNL     1      -4.678   0.350   0.757  0.00  0.00    -0.251 OA
ATOM     23  C   UNL     1      -2.517  -0.386  -0.064  0.00  0.00    +0.092 C 
ATOM     24  C   UNL     1      -1.774  -0.739   4.500  0.00  0.00    +0.016 C 
ENDBRANCH   8  23
ENDBRANCH   6   8
BRANCH   3  25
ATOM     25  C   UNL     1      -5.049   4.488  -3.571  0.00  0.00    +0.119 C 
BRANCH  25  26
ATOM     26  C   UNL     1      -4.602   5.922  -3.695  0.00  0.00    -0.011 A 
ATOM     27  C   UNL     1      -3.439   6.227  -4.376  0.00  0.00    +0.007 A 
ATOM     28  C   UNL     1      -3.032   7.543  -4.494  0.00  0.00    +0.000 A 
ATOM     29  C   UNL     1      -3.783   8.553  -3.921  0.00  0.00    +0.000 A 
ATOM     30  C   UNL     1      -4.944   8.247  -3.236  0.00  0.00    +0.000 A 
ATOM     31  C   UNL     1      -5.353   6.932  -3.123  0.00  0.00    +0.007 A 
ENDBRANCH  25  26
BRANCH  25  32
ATOM     32  C   UNL     1      -5.454   3.969  -4.927  0.00  0.00    -0.011 A 
ATOM     33  C   UNL     1      -4.490   3.708  -5.883  0.00  0.00    +0.007 A 
ATOM     34  C   UNL     1      -4.862   3.227  -7.125  0.00  0.00    +0.000 A 
ATOM     35  C   UNL     1      -6.197   3.018  -7.414  0.00  0.00    +0.000 A 
ATOM     36  C   UNL     1      -7.161   3.285  -6.460  0.00  0.00    +0.000 A 
ATOM     37  C   UNL     1      -6.789   3.761  -5.216  0.00  0.00    +0.007 A 
ENDBRANCH  25  32
BRANCH  25  38
ATOM     38  O   UNL     1      -6.163   4.411  -2.680  0.00  0.00    -0.379 OA
ATOM     39  H   UNL     1      -6.503   3.515  -2.552  0.00  0.00    +0.211 HD
ENDBRANCH  25  38
ENDBRANCH   3  25
TORSDOF 6
