REMARK  Name = ZINC20728904
REMARK  2 active torsions:
REMARK  status: ('A' for Active; 'I' for Inactive)
REMARK    1  A    between atoms: C_1  and  C_2
REMARK    2  A    between atoms: C_18  and  C_20
REMARK                            x       y       z     vdW  Elec       q    Type
REMARK                         _______ _______ _______ _____ _____    ______ ____
ROOT
ATOM      1  C   UNL     1      -0.143   1.427   0.067  0.00  0.00    +0.068 C 
ATOM      2  C   UNL     1      -0.145  -0.079   0.016  0.00  0.00    +0.067 A 
ATOM      3  C   UNL     1      -0.195  -0.861  -1.159  0.00  0.00    +0.033 A 
ATOM      4  C   UNL     1      -0.177  -2.160  -0.791  0.00  0.00    +0.137 A 
ATOM      5  N   UNL     1      -0.120  -2.188   0.587  0.00  0.00    -0.183 N 
ATOM      6  N   UNL     1      -0.095  -0.872   1.048  0.00  0.00    -0.167 NA
ATOM      7  C   UNL     1      -0.087  -3.333   1.381  0.00  0.00    +0.253 A 
ATOM      8  N   UNL     1      -0.160  -3.208   2.697  0.00  0.00    -0.219 NA
ATOM      9  C   UNL     1      -0.132  -4.274   3.480  0.00  0.00    +0.116 A 
ATOM     10  C   UNL     1      -0.026  -5.532   2.906  0.00  0.00    +0.039 A 
ATOM     11  C   UNL     1       0.048  -5.625   1.525  0.00  0.00    +0.116 A 
ATOM     12  N   UNL     1       0.009  -4.519   0.801  0.00  0.00    -0.219 NA
ATOM     13  N   UNL     1      -0.202  -3.321  -1.524  0.00  0.00    -0.269 N 
ATOM     14  C   UNL     1      -0.300  -3.607  -2.788  0.00  0.00    +0.228 C 
ATOM     15  O   UNL     1      -0.391  -4.791  -3.037  0.00  0.00    -0.275 OA
ATOM     16  C   UNL     1      -0.317  -2.719  -3.969  0.00  0.00    +0.166 C 
ATOM     17  S   UNL     1      -1.230  -1.196  -3.689  0.00  0.00    -0.138 S 
ATOM     18  C   UNL     1      -0.257  -0.243  -2.520  0.00  0.00    +0.115 C 
ATOM     19  H   UNL     1      -0.129  -4.113  -0.968  0.00  0.00    +0.156 HD
ENDROOT
BRANCH  18  20
ATOM     20  C   UNL     1      -0.858   1.134  -2.400  0.00  0.00    +0.005 A 
ATOM     21  C   UNL     1      -0.048   2.251  -2.481  0.00  0.00    +0.010 A 
ATOM     22  C   UNL     1      -0.598   3.514  -2.371  0.00  0.00    +0.039 A 
ATOM     23  C   UNL     1      -1.962   3.662  -2.179  0.00  0.00    +0.126 A 
ATOM     24  C   UNL     1      -2.774   2.544  -2.097  0.00  0.00    +0.077 A 
ATOM     25  C   UNL     1      -2.222   1.279  -2.213  0.00  0.00    +0.131 A 
ATOM     26  F   UNL     1      -3.015   0.187  -2.140  0.00  0.00    -0.205 F 
ATOM     27  F   UNL     1      -2.499   4.896  -2.070  0.00  0.00    -0.205 F 
ENDBRANCH  18  20
TORSDOF 1
