REMARK  Name = ZINC54901171
REMARK  4 active torsions:
REMARK  status: ('A' for Active; 'I' for Inactive)
REMARK    1  A    between atoms: C_1  and  C_2
REMARK    2  A    between atoms: C_2  and  C_4
REMARK    3  A    between atoms: C_2  and  N_16
REMARK    4  A    between atoms: N_16  and  C_17
REMARK                            x       y       z     vdW  Elec       q    Type
REMARK                         _______ _______ _______ _____ _____    ______ ____
ROOT
ATOM      1  C   UNL     1       0.731  -0.503   1.223  0.00  0.00    -0.003 A 
ATOM      2  C   UNL     1       0.290  -0.639   2.497  0.00  0.00    +0.122 A 
ATOM      3  N   UNL     1       1.151  -1.108   3.383  0.00  0.00    -0.233 NA
ATOM      4  C   UNL     1       2.379  -1.426   3.035  0.00  0.00    +0.161 A 
ATOM      5  S   UNL     1       2.410  -1.086   1.387  0.00  0.00    -0.059 S 
ATOM      6  N   UNL     1       3.398  -1.925   3.831  0.00  0.00    -0.299 N 
ATOM      7  C   UNL     1       3.194  -2.178   5.268  0.00  0.00    +0.126 C 
ATOM      8  C   UNL     1       3.406  -3.672   5.524  0.00  0.00    +0.123 C 
ATOM      9  N   UNL     1       4.620  -4.141   4.869  0.00  0.00    -0.313 N 
ATOM     10  C   UNL     1       5.206  -3.535   3.836  0.00  0.00    +0.230 C 
ATOM     11  O   UNL     1       6.169  -4.065   3.325  0.00  0.00    -0.274 OA
ATOM     12  C   UNL     1       4.725  -2.229   3.275  0.00  0.00    +0.202 C 
ATOM     13  H   UNL     1       5.030  -4.952   5.209  0.00  0.00    +0.149 HD
ENDROOT
BRANCH   1  15
ATOM     14  C   UNL     1      -0.019   1.526   0.010  0.00  0.00    -0.008 C 
ATOM     15  C   UNL     1       0.002  -0.004   0.002  0.00  0.00    -0.036 C 
BRANCH  15  16
ATOM     16  N   UNL     1      -1.376  -0.512   0.012  0.00  0.00    +0.382 N 
ATOM     17  C   UNL     1      -2.050  -0.126  -1.234  0.00  0.00    -0.100 C 
ATOM     18  H   UNL     1      -1.363  -1.518   0.090  0.00  0.00    -0.085 HD
ATOM     19  H   UNL     1      -1.873  -0.121   0.799  0.00  0.00    -0.085 HD
ENDBRANCH  15  16
ENDBRANCH   1  15
TORSDOF 2
