REMARK  Name = ZINC67315992
REMARK  11 active torsions:
REMARK  status: ('A' for Active; 'I' for Inactive)
REMARK    1  A    between atoms: C_1  and  C_2
REMARK    2  A    between atoms: C_2  and  O_3
REMARK    3  A    between atoms: O_3  and  C_4
REMARK    4  A    between atoms: C_7  and  C_26
REMARK    5  A    between atoms: C_9  and  N_10
REMARK    6  A    between atoms: C_11  and  C_13
REMARK    7  A    between atoms: N_15  and  C_16
REMARK    8  A    between atoms: C_18  and  C_24
REMARK    9  A    between atoms: C_18  and  C_25
REMARK   10  A    between atoms: C_20  and  C_22
REMARK   11  A    between atoms: C_20  and  C_23
REMARK                            x       y       z     vdW  Elec       q    Type
REMARK                         _______ _______ _______ _____ _____    ______ ____
ROOT
ATOM      1  C   UNL     1      -6.663  -0.685  -0.120  0.00  0.00    +0.300 C 
ATOM      2  O   UNL     1      -6.580   0.522  -0.026  0.00  0.00    -0.265 OA
ATOM      3  N   UNL     1      -7.874  -1.272  -0.207  0.00  0.00    -0.305 N 
ATOM      4  H   UNL     1      -7.940  -2.236  -0.282  0.00  0.00    +0.149 HD
ENDROOT
BRANCH   3   5
ATOM      5  C   UNL     1      -9.091  -0.450  -0.188  0.00  0.00    +0.071 C 
ATOM      6  C   UNL     1      -9.512  -0.210   1.263  0.00  0.00    +0.009 C 
ATOM      7  C   UNL     1     -10.786   0.633   1.299  0.00  0.00    -0.072 C 
ATOM      8  N   UNL     1     -11.852   0.051   0.497  0.00  0.00    +0.386 N 
ATOM      9  C   UNL     1     -11.517  -0.407  -0.841  0.00  0.00    -0.072 C 
ATOM     10  C   UNL     1     -10.217  -1.202  -0.896  0.00  0.00    +0.009 C 
ATOM     11  C   UNL     1     -11.463   0.751  -1.840  0.00  0.00    -0.010 C 
ATOM     12  C   UNL     1     -12.652  -1.351  -1.306  0.00  0.00    -0.010 C 
ATOM     13  C   UNL     1     -10.478   2.073   0.890  0.00  0.00    -0.010 C 
ATOM     14  C   UNL     1     -11.271   0.668   2.767  0.00  0.00    -0.010 C 
ATOM     15  H   UNL     1     -12.251  -0.735   1.017  0.00  0.00    -0.084 HD
ATOM     16  H   UNL     1     -12.609   0.736   0.424  0.00  0.00    -0.084 HD
ENDBRANCH   3   5
BRANCH   1  18
ATOM     17  N   UNL     1      -4.215  -0.933  -0.052  0.00  0.00    -0.275 N 
ATOM     18  C   UNL     1      -5.426  -1.520  -0.139  0.00  0.00    +0.303 C 
ATOM     19  O   UNL     1      -5.509  -2.727  -0.233  0.00  0.00    -0.265 OA
ATOM     20  H   UNL     1      -4.150   0.025   0.085  0.00  0.00    +0.155 HD
BRANCH  17  26
ATOM     21  C   UNL     1      -1.876  -1.133  -0.641  0.00  0.00    +0.142 A 
ATOM     22  C   UNL     1      -0.721  -1.896  -0.743  0.00  0.00    +0.049 A 
ATOM     23  C   UNL     1      -0.733  -3.223  -0.373  0.00  0.00    +0.022 A 
ATOM     24  C   UNL     1      -1.910  -3.805   0.106  0.00  0.00    +0.054 A 
ATOM     25  C   UNL     1      -3.073  -3.039   0.209  0.00  0.00    +0.046 A 
ATOM     26  C   UNL     1      -3.054  -1.705  -0.159  0.00  0.00    +0.077 A 
BRANCH  24  27
ATOM     27  C   UNL     1      -1.923  -5.185   0.491  0.00  0.00    +0.099 C 
ATOM     28  N   UNL     1      -1.933  -6.279   0.795  0.00  0.00    -0.191 NA
ENDBRANCH  24  27
BRANCH  21  29
ATOM     29  O   UNL     1      -1.859   0.175  -1.008  0.00  0.00    -0.490 OA
BRANCH  29  31
ATOM     30  C   UNL     1      -0.794   2.173  -1.853  0.00  0.00    +0.048 C 
ATOM     31  C   UNL     1      -0.620   0.696  -1.493  0.00  0.00    +0.226 C 
ENDBRANCH  29  31
ENDBRANCH  21  29
ENDBRANCH  17  26
ENDBRANCH   1  18
TORSDOF 6
