REMARK  Name = ZINC40322241
REMARK  7 active torsions:
REMARK  status: ('A' for Active; 'I' for Inactive)
REMARK    1  A    between atoms: C_3  and  C_6
REMARK    2  A    between atoms: C_6  and  C_8
REMARK    3  A    between atoms: C_6  and  N_27
REMARK    4  A    between atoms: C_8  and  N_9
REMARK    5  A    between atoms: C_10  and  C_12
REMARK    6  A    between atoms: C_15  and  S_17
REMARK    7  A    between atoms: S_17  and  C_20
REMARK                            x       y       z     vdW  Elec       q    Type
REMARK                         _______ _______ _______ _____ _____    ______ ____
ROOT
ATOM      1  N   UNL     1       5.604   2.630  -1.513  0.00  0.00    -0.310 N 
ATOM      2  C   UNL     1       6.196   2.927  -2.687  0.00  0.00    +0.279 C 
ATOM      3  O   UNL     1       5.646   2.644  -3.735  0.00  0.00    -0.267 OA
ATOM      4  H   UNL     1       6.042   2.856  -0.678  0.00  0.00    +0.149 HD
ENDROOT
BRANCH   2   5
ATOM      5  C   UNL     1       7.503   3.591  -2.701  0.00  0.00    +0.192 A 
ATOM      6  C   UNL     1       8.208   3.952  -3.813  0.00  0.00    +0.056 A 
ATOM      7  C   UNL     1       9.393   4.554  -3.362  0.00  0.00    +0.070 A 
ATOM      8  C   UNL     1       9.360   4.535  -2.012  0.00  0.00    +0.246 A 
ATOM      9  O   UNL     1       8.218   3.958  -1.617  0.00  0.00    -0.433 OA
BRANCH   8  10
ATOM     10  S   UNL     1      10.612   5.169  -0.946  0.00  0.00    +0.058 S 
ATOM     11  O   UNL     1      10.479   4.481   0.291  0.00  0.00    -0.161 OA
ATOM     12  O   UNL     1      11.821   5.166  -1.692  0.00  0.00    -0.161 OA
BRANCH  10  13
ATOM     13  C   UNL     1      10.220   6.857  -0.628  0.00  0.00    +0.097 A 
ATOM     14  C   UNL     1      10.707   7.848  -1.460  0.00  0.00    +0.029 A 
ATOM     15  C   UNL     1      10.399   9.172  -1.211  0.00  0.00    +0.022 A 
ATOM     16  C   UNL     1       9.604   9.506  -0.129  0.00  0.00    +0.041 A 
ATOM     17  C   UNL     1       9.117   8.514   0.703  0.00  0.00    +0.022 A 
ATOM     18  C   UNL     1       9.421   7.189   0.450  0.00  0.00    +0.029 A 
ATOM     19 CL   UNL     1       9.218  11.169   0.184  0.00  0.00    -0.084 Cl
ENDBRANCH  10  13
ENDBRANCH   8  10
ENDBRANCH   2   5
BRANCH   1  20
ATOM     20  C   UNL     1       4.298   1.966  -1.499  0.00  0.00    +0.094 C 
BRANCH  20  21
ATOM     21  C   UNL     1       3.801   1.847  -0.057  0.00  0.00    -0.013 C 
BRANCH  21  22
ATOM     22  N   UNL     1       4.822   1.175   0.758  0.00  0.00    +0.386 N 
ATOM     23  C   UNL     1       5.102  -0.149   0.168  0.00  0.00    -0.078 C 
ATOM     24  C   UNL     1       6.491  -0.568   0.582  0.00  0.00    -0.019 C 
ATOM     25  C   UNL     1       6.458  -1.482   1.821  0.00  0.00    -0.002 C 
ATOM     26  C   UNL     1       5.425  -1.000   2.860  0.00  0.00    -0.002 C 
ATOM     27  C   UNL     1       5.427   0.498   3.021  0.00  0.00    -0.019 C 
ATOM     28  C   UNL     1       4.370   1.108   2.077  0.00  0.00    -0.078 C 
ATOM     29  H   UNL     1       5.668   1.724   0.734  0.00  0.00    -0.081 HD
ENDBRANCH  21  22
BRANCH  21  32
ATOM     30  C   UNL     1       0.222   0.550   0.062  0.00  0.00    +0.008 A 
ATOM     31  C   UNL     1       1.245   1.479   0.052  0.00  0.00    +0.009 A 
ATOM     32  C   UNL     1       2.527   1.044  -0.028  0.00  0.00    -0.022 A 
ATOM     33  S   UNL     1       2.312  -0.727  -0.092  0.00  0.00    -0.103 S 
ATOM     34  C   UNL     1       0.529  -0.768  -0.008  0.00  0.00    +0.045 A 
ENDBRANCH  21  32
ENDBRANCH  20  21
ENDBRANCH   1  20
TORSDOF 7
