REMARK  Name = ZINC63557992
REMARK  9 active torsions:
REMARK  status: ('A' for Active; 'I' for Inactive)
REMARK    1  A    between atoms: C_1  and  O_2
REMARK    2  A    between atoms: O_2  and  C_3
REMARK    3  A    between atoms: C_9  and  C_12
REMARK    4  A    between atoms: C_12  and  C_13
REMARK    5  A    between atoms: C_13  and  N_14
REMARK    6  A    between atoms: C_16  and  C_21
REMARK    7  A    between atoms: N_23  and  C_24
REMARK    8  A    between atoms: C_28  and  C_31
REMARK    9  A    between atoms: C_31  and  C_32
REMARK                            x       y       z     vdW  Elec       q    Type
REMARK                         _______ _______ _______ _____ _____    ______ ____
ROOT
ATOM      1  N   UNL     1      -0.759  -6.798   1.434  0.00  0.00    -0.300 N 
ATOM      2  C   UNL     1      -1.183  -8.198   1.324  0.00  0.00    +0.121 C 
ATOM      3  C   UNL     1       0.030  -9.034   1.790  0.00  0.00    +0.101 C 
ATOM      4  C   UNL     1       1.206  -8.074   1.495  0.00  0.00    +0.110 C 
ATOM      5  C   UNL     1       0.579  -6.697   1.520  0.00  0.00    +0.216 C 
ATOM      6  O   UNL     1       1.193  -5.655   1.609  0.00  0.00    -0.276 OA
ENDROOT
BRANCH   3   7
ATOM      7  C   UNL     1       0.153 -10.302   0.984  0.00  0.00    +0.220 C 
ATOM      8  O   UNL     1      -0.648 -10.542   0.105  0.00  0.00    -0.275 OA
ATOM      9  N   UNL     1       1.153 -11.168   1.240  0.00  0.00    -0.290 N 
ATOM     10  H   UNL     1       1.793 -10.976   1.942  0.00  0.00    +0.151 HD
BRANCH   9  11
ATOM     11  C   UNL     1       1.272 -12.400   0.457  0.00  0.00    +0.216 C 
ATOM     12  N   UNL     1       2.280 -13.333   1.050  0.00  0.00    -0.227 NA
ATOM     13  N   UNL     1       2.810 -14.262   0.073  0.00  0.00    -0.241 NA
ATOM     14  C   UNL     1       2.918 -13.742  -1.311  0.00  0.00    +0.134 C 
ATOM     15  S   UNL     1       2.099 -12.095  -1.169  0.00  0.00    -0.101 S 
ATOM     16  H   UNL     1       3.022 -12.822   1.503  0.00  0.00    +0.143 HD
ATOM     17  H   UNL     1       3.687 -14.651   0.384  0.00  0.00    +0.142 HD
BRANCH  14  18
ATOM     18  C   UNL     1       4.383 -13.592  -1.725  0.00  0.00    +0.066 C 
BRANCH  18  19
ATOM     19  C   UNL     1       4.455 -13.063  -3.135  0.00  0.00    -0.045 A 
ATOM     20  C   UNL     1       4.479 -13.941  -4.202  0.00  0.00    +0.004 A 
ATOM     21  C   UNL     1       4.545 -13.457  -5.495  0.00  0.00    +0.000 A 
ATOM     22  C   UNL     1       4.587 -12.093  -5.720  0.00  0.00    +0.000 A 
ATOM     23  C   UNL     1       4.563 -11.215  -4.653  0.00  0.00    +0.000 A 
ATOM     24  C   UNL     1       4.492 -11.700  -3.360  0.00  0.00    +0.004 A 
ENDBRANCH  18  19
ENDBRANCH  14  18
ENDBRANCH   9  11
ENDBRANCH   3   7
BRANCH   1  25
ATOM     25  C   UNL     1      -1.676  -5.655   1.443  0.00  0.00    +0.112 C 
BRANCH  25  26
ATOM     26  C   UNL     1      -1.908  -5.176   0.009  0.00  0.00    +0.052 C 
BRANCH  26  33
ATOM     27  C   UNL     1      -1.200  -0.637   0.010  0.00  0.00    +0.121 A 
ATOM     28  C   UNL     1      -2.375   0.135   0.020  0.00  0.00    +0.047 A 
ATOM     29  C   UNL     1      -3.607  -0.415   0.028  0.00  0.00    +0.029 A 
ATOM     30  C   UNL     1      -3.753  -1.875   0.027  0.00  0.00    +0.043 A 
ATOM     31  N   UNL     1      -4.809  -2.650   0.034  0.00  0.00    -0.380 N 
ATOM     32  C   UNL     1      -4.362  -4.047   0.029  0.00  0.00    +0.144 C 
ATOM     33  C   UNL     1      -2.851  -4.000   0.018  0.00  0.00    -0.040 C 
ATOM     34  C   UNL     1      -2.516  -2.690   0.016  0.00  0.00    +0.002 A 
ATOM     35  C   UNL     1      -1.226  -1.992   0.003  0.00  0.00    +0.055 A 
ATOM     36  H   UNL     1      -5.731  -2.350   0.042  0.00  0.00    +0.160 HD
BRANCH  27  38
ATOM     37  C   UNL     1      -0.017   1.425   0.010  0.00  0.00    +0.277 C 
ATOM     38  O   UNL     1       0.002  -0.004   0.002  0.00  0.00    -0.495 OA
ENDBRANCH  27  38
ENDBRANCH  26  33
ENDBRANCH  25  26
ENDBRANCH   1  25
TORSDOF 8
