REMARK  Name = ZINC64046565
REMARK  9 active torsions:
REMARK  status: ('A' for Active; 'I' for Inactive)
REMARK    1  A    between atoms: C_1  and  C_2
REMARK    2  A    between atoms: C_4  and  C_9
REMARK    3  A    between atoms: C_5  and  C_8
REMARK    4  A    between atoms: C_9  and  C_10
REMARK    5  A    between atoms: N_12  and  C_13
REMARK    6  A    between atoms: C_13  and  C_14
REMARK    7  A    between atoms: C_14  and  C_16
REMARK    8  A    between atoms: C_14  and  C_22
REMARK    9  A    between atoms: C_30  and  C_32
REMARK                            x       y       z     vdW  Elec       q    Type
REMARK                         _______ _______ _______ _____ _____    ______ ____
ROOT
ATOM      1  C   UNL     1      -2.545  -2.013  -6.211  0.00  0.00    +0.065 C 
ENDROOT
BRANCH   1   2
ATOM      2  C   UNL     1      -3.368  -3.170  -6.715  0.00  0.00    -0.025 C 
ATOM      3  C   UNL     1      -3.963  -4.130  -5.970  0.00  0.00    +0.000 A 
ATOM      4  C   UNL     1      -4.020  -4.375  -4.524  0.00  0.00    +0.010 A 
ATOM      5  C   UNL     1      -4.710  -5.444  -4.066  0.00  0.00    +0.001 A 
ATOM      6  C   UNL     1      -5.371  -6.322  -4.936  0.00  0.00    +0.002 A 
ATOM      7  C   UNL     1      -5.365  -6.163  -6.276  0.00  0.00    +0.026 A 
ATOM      8  C   UNL     1      -4.670  -5.072  -6.867  0.00  0.00    +0.043 A 
ATOM      9  N   UNL     1      -4.518  -4.708  -8.118  0.00  0.00    -0.374 N 
ATOM     10  C   UNL     1      -3.702  -3.490  -8.155  0.00  0.00    +0.137 C 
ATOM     11  H   UNL     1      -4.887  -5.166  -8.889  0.00  0.00    +0.161 HD
BRANCH  10  12
ATOM     12  C   UNL     1      -2.438  -3.739  -8.937  0.00  0.00    -0.021 A 
ATOM     13  C   UNL     1      -1.808  -4.967  -8.861  0.00  0.00    +0.006 A 
ATOM     14  C   UNL     1      -0.649  -5.196  -9.579  0.00  0.00    +0.000 A 
ATOM     15  C   UNL     1      -0.120  -4.196 -10.374  0.00  0.00    +0.000 A 
ATOM     16  C   UNL     1      -0.750  -2.968 -10.450  0.00  0.00    +0.000 A 
ATOM     17  C   UNL     1      -1.912  -2.741  -9.736  0.00  0.00    +0.006 A 
ENDBRANCH  10  12
ENDBRANCH   1   2
BRANCH   1  18
ATOM     18  C   UNL     1      -3.296  -0.726  -6.438  0.00  0.00    -0.039 A 
ATOM     19  C   UNL     1      -4.531  -0.533  -5.848  0.00  0.00    +0.004 A 
ATOM     20  C   UNL     1      -5.220   0.647  -6.056  0.00  0.00    +0.000 A 
ATOM     21  C   UNL     1      -4.673   1.635  -6.853  0.00  0.00    +0.000 A 
ATOM     22  C   UNL     1      -3.438   1.442  -7.443  0.00  0.00    +0.000 A 
ATOM     23  C   UNL     1      -2.747   0.264  -7.231  0.00  0.00    +0.004 A 
ENDBRANCH   1  18
BRANCH   1  24
ATOM     24  C   UNL     1      -2.278  -2.191  -4.715  0.00  0.00    +0.116 C 
BRANCH  24  27
ATOM     25  C   UNL     1      -0.976  -1.105  -2.964  0.00  0.00    +0.217 C 
ATOM     26  O   UNL     1      -1.396  -1.931  -2.181  0.00  0.00    -0.275 OA
ATOM     27  N   UNL     1      -1.357  -1.148  -4.256  0.00  0.00    -0.314 N 
ATOM     28  H   UNL     1      -1.021  -0.487  -4.883  0.00  0.00    +0.149 HD
BRANCH  25  29
ATOM     29  C   UNL     1      -0.029  -0.033  -2.492  0.00  0.00    +0.131 C 
BRANCH  29  32
ATOM     30  C   UNL     1      -0.682   1.854   0.049  0.00  0.00    +0.045 C 
ATOM     31  C   UNL     1      -0.619   0.327   0.109  0.00  0.00    +0.174 C 
ATOM     32  C   UNL     1       0.234  -0.207  -1.019  0.00  0.00    -0.010 C 
ATOM     33  C   UNL     1       1.249  -0.853  -0.482  0.00  0.00    +0.038 C 
ATOM     34  N   UNL     1       1.186  -0.822   0.899  0.00  0.00    -0.270 N 
ATOM     35  O   UNL     1       0.038  -0.098   1.313  0.00  0.00    -0.267 OA
ATOM     36  C   UNL     1       2.335  -1.538  -1.270  0.00  0.00    +0.065 C 
ATOM     37  H   UNL     1       1.830  -1.233   1.496  0.00  0.00    +0.194 HD
ENDBRANCH  29  32
ENDBRANCH  25  29
ENDBRANCH  24  27
ENDBRANCH   1  24
TORSDOF 7
