REMARK  Name = ZINC44510773
REMARK  6 active torsions:
REMARK  status: ('A' for Active; 'I' for Inactive)
REMARK    1  A    between atoms: C_7  and  N_14
REMARK    2  A    between atoms: C_8  and  C_11
REMARK    3  A    between atoms: C_11  and  N_13
REMARK    4  A    between atoms: N_14  and  C_15
REMARK    5  A    between atoms: C_15  and  C_16
REMARK    6  A    between atoms: C_16  and  C_17
REMARK                            x       y       z     vdW  Elec       q    Type
REMARK                         _______ _______ _______ _____ _____    ______ ____
ROOT
ATOM      1  C   UNL     1       3.225   0.629   0.806  0.00  0.00    +0.001 A 
ATOM      2  C   UNL     1       4.350   0.441   1.605  0.00  0.00    +0.002 A 
ATOM      3  C   UNL     1       4.699  -0.800   2.045  0.00  0.00    +0.026 A 
ATOM      4  C   UNL     1       3.918  -1.912   1.690  0.00  0.00    +0.048 A 
ATOM      5  C   UNL     1       2.776  -1.718   0.878  0.00  0.00    +0.020 A 
ATOM      6  C   UNL     1       2.444  -0.427   0.442  0.00  0.00    +0.012 A 
ATOM      7  C   UNL     1       1.988  -2.837   0.520  0.00  0.00    +0.047 A 
ATOM      8  C   UNL     1       2.387  -4.096   0.996  0.00  0.00    +0.040 A 
ATOM      9  C   UNL     1       3.535  -4.195   1.798  0.00  0.00    +0.095 A 
ATOM     10  N   UNL     1       4.245  -3.141   2.113  0.00  0.00    -0.360 N 
ATOM     11  H   UNL     1       5.032  -3.254   2.669  0.00  0.00    +0.165 HD
ENDROOT
BRANCH   8  12
ATOM     12  C   UNL     1       1.609  -5.298   0.660  0.00  0.00    +0.080 C 
ATOM     13  S   UNL     1       0.312  -5.196  -0.453  0.00  0.00    -0.035 S 
BRANCH  12  14
ATOM     14  N   UNL     1       1.918  -6.481   1.228  0.00  0.00    -0.352 N 
ATOM     15  H   UNL     1       2.653  -6.539   1.858  0.00  0.00    +0.143 HD
ATOM     16  H   UNL     1       1.406  -7.274   1.006  0.00  0.00    +0.143 HD
ENDBRANCH  12  14
ENDBRANCH   8  12
BRANCH   7  17
ATOM     17  N   UNL     1       0.867  -2.697  -0.269  0.00  0.00    -0.343 N 
ATOM     18  H   UNL     1       0.867  -3.037  -1.177  0.00  0.00    +0.146 HD
BRANCH  17  19
ATOM     19  C   UNL     1      -0.326  -2.034   0.265  0.00  0.00    +0.104 C 
BRANCH  19  20
ATOM     20  C   UNL     1      -1.551  -2.919   0.026  0.00  0.00    +0.050 C 
BRANCH  20  21
ATOM     21  C   UNL     1      -2.796  -2.227   0.583  0.00  0.00    +0.120 C 
ATOM     22  C   UNL     1      -4.062  -3.064   0.271  0.00  0.00    +0.034 C 
ATOM     23  C   UNL     1      -5.015  -2.590   1.402  0.00  0.00    +0.031 C 
ATOM     24  C   UNL     1      -4.039  -2.349   2.574  0.00  0.00    +0.160 C 
ATOM     25  O   UNL     1      -2.731  -2.161   2.017  0.00  0.00    -0.376 OA
ENDBRANCH  20  21
ENDBRANCH  19  20
ENDBRANCH  17  19
ENDBRANCH   7  17
TORSDOF 6
