REMARK  Name = ZINC04736657
REMARK  5 active torsions:
REMARK  status: ('A' for Active; 'I' for Inactive)
REMARK    1  A    between atoms: C_1  and  C_2
REMARK    2  A    between atoms: C_11  and  C_13
REMARK    3  A    between atoms: N_20  and  C_21
REMARK    4  A    between atoms: C_24  and  O_27
REMARK    5  A    between atoms: O_27  and  C_28
REMARK                            x       y       z     vdW  Elec       q    Type
REMARK                         _______ _______ _______ _____ _____    ______ ____
ROOT
ATOM      1  C   UNL     1      -4.945   7.407  -2.250  0.00  0.00    +0.066 C 
ATOM      2  C   UNL     1      -3.665   6.946  -1.603  0.00  0.00    +0.047 A 
ATOM      3  C   UNL     1      -2.549   7.728  -1.673  0.00  0.00    +0.093 A 
ATOM      4  C   UNL     1      -1.363   7.282  -1.056  0.00  0.00    +0.257 A 
ATOM      5  O   UNL     1      -0.344   7.950  -1.106  0.00  0.00    -0.267 OA
ATOM      6  N   UNL     1      -1.382   6.102  -0.411  0.00  0.00    -0.255 N 
ATOM      7  C   UNL     1      -2.525   5.354  -0.391  0.00  0.00    +0.207 A 
ATOM      8  N   UNL     1      -3.627   5.777  -0.964  0.00  0.00    -0.221 NA
ATOM      9  N   UNL     1      -2.462   4.129   0.240  0.00  0.00    -0.259 N 
ATOM     10  C   UNL     1      -1.259   3.440   0.131  0.00  0.00    +0.166 C 
ATOM     11  C   UNL     1      -0.198   5.589   0.284  0.00  0.00    +0.220 C 
ATOM     12  N   UNL     1      -1.239   2.068   0.019  0.00  0.00    -0.289 N 
ATOM     13  H   UNL     1      -3.216   3.771   0.734  0.00  0.00    +0.158 HD
ATOM     14  H   UNL     1      -2.062   1.563   0.105  0.00  0.00    +0.155 HD
ATOM     15  N   UNL     1      -0.088   4.096   0.124  0.00  0.00    -0.336 N 
ATOM     16  H   UNL     1       0.814   3.616   0.017  0.00  0.00    +0.164 HD
ENDROOT
BRANCH  11  17
ATOM     17  C   UNL     1      -0.278   5.940   1.747  0.00  0.00    -0.004 A 
ATOM     18  C   UNL     1      -0.926   7.095   2.146  0.00  0.00    +0.010 A 
ATOM     19  C   UNL     1      -1.005   7.415   3.488  0.00  0.00    +0.039 A 
ATOM     20  C   UNL     1      -0.425   6.585   4.433  0.00  0.00    +0.123 A 
ATOM     21  C   UNL     1       0.228   5.432   4.032  0.00  0.00    +0.039 A 
ATOM     22  C   UNL     1       0.301   5.111   2.689  0.00  0.00    +0.010 A 
ATOM     23  F   UNL     1      -0.497   6.900   5.744  0.00  0.00    -0.205 F 
ENDBRANCH  11  17
BRANCH  12  24
ATOM     24  C   UNL     1      -0.030   1.403  -0.218  0.00  0.00    +0.034 A 
ATOM     25  C   UNL     1       0.943   1.992  -1.015  0.00  0.00    +0.027 A 
ATOM     26  C   UNL     1       2.132   1.332  -1.254  0.00  0.00    +0.047 A 
ATOM     27  C   UNL     1       2.356   0.082  -0.697  0.00  0.00    +0.120 A 
ATOM     28  C   UNL     1       1.385  -0.508   0.099  0.00  0.00    +0.047 A 
ATOM     29  C   UNL     1       0.195   0.150   0.338  0.00  0.00    +0.027 A 
BRANCH  27  30
ATOM     30  O   UNL     1       3.528  -0.567  -0.932  0.00  0.00    -0.495 OA
ATOM     31  C   UNL     1       4.483   0.098  -1.761  0.00  0.00    +0.277 C 
ENDBRANCH  27  30
ENDBRANCH  12  24
TORSDOF 3
