REMARK  Name = ZINC16688864
REMARK  9 active torsions:
REMARK  status: ('A' for Active; 'I' for Inactive)
REMARK    1  A    between atoms: C_1  and  C_2
REMARK    2  A    between atoms: C_2  and  O_3
REMARK    3  A    between atoms: O_3  and  C_4
REMARK    4  A    between atoms: C_6  and  C_12
REMARK    5  A    between atoms: C_9  and  O_10
REMARK    6  A    between atoms: O_10  and  C_11
REMARK    7  A    between atoms: C_15  and  O_26
REMARK    8  A    between atoms: C_21  and  N_25
REMARK    9  A    between atoms: C_22  and  C_23
REMARK                            x       y       z     vdW  Elec       q    Type
REMARK                         _______ _______ _______ _____ _____    ______ ____
ROOT
ATOM      1  C   UNL     1       2.542  -2.800  -0.038  0.00  0.00    +0.105 C 
ATOM      2  C   UNL     1       2.646  -3.664   1.187  0.00  0.00    +0.088 A 
ATOM      3  C   UNL     1       2.929  -3.098   2.425  0.00  0.00    +0.223 A 
ATOM      4  N   UNL     1       3.013  -3.892   3.489  0.00  0.00    -0.201 NA
ATOM      5  C   UNL     1       2.832  -5.193   3.376  0.00  0.00    +0.228 A 
ATOM      6  N   UNL     1       2.566  -5.758   2.224  0.00  0.00    -0.201 NA
ATOM      7  C   UNL     1       2.464  -5.033   1.113  0.00  0.00    +0.233 A 
ATOM      8  O   UNL     1       2.186  -5.632  -0.066  0.00  0.00    -0.423 OA
ATOM      9  C   UNL     1       2.442  -4.992  -1.220  0.00  0.00    +0.200 C 
ATOM     10  C   UNL     1       2.622  -3.651  -1.275  0.00  0.00    +0.098 C 
ENDROOT
BRANCH   1  13
ATOM     11  C   UNL     1       0.002  -0.004   0.002  0.00  0.00    +0.162 A 
ATOM     12  C   UNL     1       1.210  -0.682  -0.019  0.00  0.00    +0.054 A 
ATOM     13  C   UNL     1       1.227  -2.064  -0.021  0.00  0.00    -0.031 A 
ATOM     14  C   UNL     1       0.041  -2.773  -0.013  0.00  0.00    +0.008 A 
ATOM     15  C   UNL     1      -1.168  -2.103   0.002  0.00  0.00    +0.050 A 
ATOM     16  C   UNL     1      -1.192  -0.718   0.010  0.00  0.00    +0.162 A 
BRANCH  16  17
ATOM     17  O   UNL     1      -2.381  -0.057   0.024  0.00  0.00    -0.491 OA
ATOM     18  C   UNL     1      -3.567  -0.854   0.031  0.00  0.00    +0.277 C 
ENDBRANCH  16  17
BRANCH  11  19
ATOM     19  O   UNL     1      -0.016   1.356   0.009  0.00  0.00    -0.489 OA
BRANCH  19  21
ATOM     20  C   UNL     1       1.027   3.536   0.011  0.00  0.00    +0.048 C 
ATOM     21  C   UNL     1       1.248   2.022   0.001  0.00  0.00    +0.226 C 
ENDBRANCH  19  21
ENDBRANCH  11  19
ENDBRANCH   1  13
BRANCH   9  22
ATOM     22  N   UNL     1       2.526  -5.721  -2.379  0.00  0.00    -0.328 N 
ATOM     23  H   UNL     1       2.710  -5.276  -3.221  0.00  0.00    +0.145 HD
ATOM     24  H   UNL     1       2.400  -6.683  -2.357  0.00  0.00    +0.145 HD
ENDBRANCH   9  22
BRANCH  10  25
ATOM     25  C   UNL     1       2.892  -3.031  -2.537  0.00  0.00    +0.101 C 
ATOM     26  N   UNL     1       3.107  -2.539  -3.539  0.00  0.00    -0.191 NA
ENDBRANCH  10  25
BRANCH   3  27
ATOM     27  O   UNL     1       3.116  -1.761   2.546  0.00  0.00    -0.492 OA
ATOM     28  H   UNL     1       2.306  -1.266   2.729  0.00  0.00    +0.294 HD
ENDBRANCH   3  27
TORSDOF 7
