REMARK  Name = ZINC16919429
REMARK  12 active torsions:
REMARK  status: ('A' for Active; 'I' for Inactive)
REMARK    1  A    between atoms: C_1  and  C_2
REMARK    2  A    between atoms: C_2  and  C_3
REMARK    3  A    between atoms: C_3  and  C_5
REMARK    4  A    between atoms: C_3  and  O_7
REMARK    5  A    between atoms: O_7  and  C_8
REMARK    6  A    between atoms: C_11  and  C_17
REMARK    7  A    between atoms: C_13  and  O_14
REMARK    8  A    between atoms: O_14  and  C_15
REMARK    9  A    between atoms: C_15  and  C_16
REMARK   10  A    between atoms: N_21  and  C_31
REMARK   11  A    between atoms: N_23  and  C_24
REMARK   12  A    between atoms: C_27  and  C_29
REMARK                            x       y       z     vdW  Elec       q    Type
REMARK                         _______ _______ _______ _____ _____    ______ ____
ROOT
ATOM      1  C   UNL     1       2.417   1.395   0.899  0.00  0.00    +0.163 A 
ATOM      2  C   UNL     1       2.393   0.008   0.958  0.00  0.00    +0.050 A 
ATOM      3  C   UNL     1       1.208  -0.672   0.782  0.00  0.00    +0.012 A 
ATOM      4  C   UNL     1       0.024   0.037   0.544  0.00  0.00    -0.020 A 
ATOM      5  C   UNL     1       0.050   1.435   0.485  0.00  0.00    +0.057 A 
ATOM      6  C   UNL     1       1.243   2.108   0.662  0.00  0.00    +0.162 A 
ENDROOT
BRANCH   4   7
ATOM      7  C   UNL     1      -1.241  -0.685   0.357  0.00  0.00    +0.028 C 
ATOM      8  C   UNL     1      -1.265  -1.840  -0.356  0.00  0.00    +0.078 C 
ATOM      9  C   UNL     1      -0.195  -2.471  -1.152  0.00  0.00    +0.259 C 
ATOM     10  O   UNL     1       0.907  -1.964  -1.251  0.00  0.00    -0.269 OA
ATOM     11  N   UNL     1      -0.488  -3.611  -1.754  0.00  0.00    -0.249 N 
ATOM     12  C   UNL     1      -1.741  -4.169  -1.630  0.00  0.00    +0.170 C 
ATOM     13  N   UNL     1      -2.195  -5.287  -2.157  0.00  0.00    -0.198 NA
ATOM     14  S   UNL     1      -2.598  -3.010  -0.576  0.00  0.00    -0.049 S 
ATOM     15  C   UNL     1       0.530  -4.289  -2.559  0.00  0.00    +0.140 C 
BRANCH  13  16
ATOM     16  C   UNL     1      -1.365  -6.084  -2.880  0.00  0.00    +0.217 A 
ATOM     17  N   UNL     1      -0.598  -7.101  -2.489  0.00  0.00    -0.121 NA
ATOM     18  N   UNL     1       0.120  -7.740  -3.306  0.00  0.00    -0.145 NA
ATOM     19  C   UNL     1       0.158  -7.444  -4.590  0.00  0.00    +0.101 A 
ATOM     20  S   UNL     1      -0.994  -6.073  -4.631  0.00  0.00    -0.031 S 
ATOM     21  C   UNL     1       0.942  -8.082  -5.707  0.00  0.00    +0.075 C 
ENDBRANCH  13  16
ENDBRANCH   4   7
BRANCH   1  22
ATOM     22  O   UNL     1       3.590   2.060   1.072  0.00  0.00    -0.474 OA
BRANCH  22  23
ATOM     23  C   UNL     1       4.775   1.269   1.176  0.00  0.00    +0.285 C 
BRANCH  23  24
ATOM     24  C   UNL     1       4.953   0.816   2.602  0.00  0.00    +0.396 C 
ATOM     25  O   UNL     1       4.148   1.137   3.444  0.00  0.00    -0.242 OA
ATOM     26  O   UNL     1       6.007   0.055   2.938  0.00  0.00    -0.242 OA
ENDBRANCH  23  24
BRANCH  23  28
ATOM     27  C   UNL     1       5.864   2.459  -0.732  0.00  0.00    +0.008 C 
ATOM     28  C   UNL     1       5.984   2.104   0.751  0.00  0.00    +0.053 C 
ENDBRANCH  23  28
ENDBRANCH  22  23
ENDBRANCH   1  22
BRANCH   6  29
ATOM     29  O   UNL     1       1.272   3.467   0.606  0.00  0.00    -0.489 OA
BRANCH  29  30
ATOM     30  C   UNL     1       0.032   4.132   0.360  0.00  0.00    +0.226 C 
ATOM     31  C   UNL     1       0.262   5.645   0.331  0.00  0.00    +0.048 C 
ENDBRANCH  29  30
ENDBRANCH   6  29
TORSDOF 8
