REMARK  Name = ZINC22635474
REMARK  7 active torsions:
REMARK  status: ('A' for Active; 'I' for Inactive)
REMARK    1  A    between atoms: C_1  and  C_2
REMARK    2  A    between atoms: C_9  and  N_21
REMARK    3  A    between atoms: C_10  and  C_11
REMARK    4  A    between atoms: N_13  and  C_14
REMARK    5  A    between atoms: C_22  and  C_24
REMARK    6  A    between atoms: C_24  and  N_25
REMARK    7  A    between atoms: N_28  and  C_31
REMARK                            x       y       z     vdW  Elec       q    Type
REMARK                         _______ _______ _______ _____ _____    ______ ____
ROOT
ATOM      1  C   UNL     1       0.029   1.512   0.044  0.00  0.00    +0.008 C 
ATOM      2  C   UNL     1       0.040  -0.018   0.029  0.00  0.00    -0.009 C 
ATOM      3  C   UNL     1      -1.399  -0.540   0.041  0.00  0.00    +0.008 C 
ATOM      4  C   UNL     1      -1.408  -2.048  -0.221  0.00  0.00    +0.037 C 
ATOM      5  C   UNL     1      -0.446  -2.717   0.749  0.00  0.00    -0.023 A 
ATOM      6  C   UNL     1       0.506  -2.009   1.394  0.00  0.00    -0.004 A 
ATOM      7  S   UNL     1       1.356  -3.200   2.388  0.00  0.00    -0.077 S 
ATOM      8  C   UNL     1       0.497  -4.582   1.976  0.00  0.00    +0.084 A 
ATOM      9  C   UNL     1      -0.451  -4.134   1.069  0.00  0.00    +0.069 A 
ATOM     10  C   UNL     1       0.771  -0.539   1.275  0.00  0.00    +0.046 C 
ENDROOT
BRANCH   9  11
ATOM     11  C   UNL     1      -1.418  -5.051   0.458  0.00  0.00    +0.251 C 
ATOM     12  O   UNL     1      -1.148  -5.613  -0.587  0.00  0.00    -0.270 OA
ATOM     13  N   UNL     1      -2.607  -5.272   1.054  0.00  0.00    -0.279 N 
ATOM     14  H   UNL     1      -2.797  -4.875   1.919  0.00  0.00    +0.155 HD
BRANCH  13  15
ATOM     15  C   UNL     1      -3.567  -6.074   0.426  0.00  0.00    +0.069 A 
ATOM     16  C   UNL     1      -3.171  -7.164  -0.338  0.00  0.00    +0.026 A 
ATOM     17  C   UNL     1      -4.121  -7.953  -0.956  0.00  0.00    +0.002 A 
ATOM     18  C   UNL     1      -5.465  -7.660  -0.817  0.00  0.00    +0.003 A 
ATOM     19  C   UNL     1      -5.864  -6.575  -0.058  0.00  0.00    +0.040 A 
ATOM     20  C   UNL     1      -4.919  -5.784   0.569  0.00  0.00    +0.144 A 
ATOM     21  F   UNL     1      -5.309  -4.727   1.316  0.00  0.00    -0.204 F 
ENDBRANCH  13  15
ENDBRANCH   9  11
BRANCH   8  22
ATOM     22  N   UNL     1       0.691  -5.876   2.436  0.00  0.00    -0.278 N 
ATOM     23  C   UNL     1       1.670  -6.135   3.326  0.00  0.00    +0.232 C 
ATOM     24  O   UNL     1       2.380  -5.236   3.724  0.00  0.00    -0.274 OA
ATOM     25  H   UNL     1       0.122  -6.595   2.118  0.00  0.00    +0.155 HD
BRANCH  23  26
ATOM     26  C   UNL     1       1.881  -7.540   3.826  0.00  0.00    +0.180 C 
BRANCH  26  27
ATOM     27  N   UNL     1       2.999  -7.558   4.779  0.00  0.00    -0.298 NA
ATOM     28  C   UNL     1       4.267  -7.237   4.109  0.00  0.00    +0.066 C 
ATOM     29  C   UNL     1       5.394  -7.208   5.144  0.00  0.00    -0.064 C 
ATOM     30  N   UNL     1       5.487  -8.516   5.804  0.00  0.00    +0.379 N 
ATOM     31  C   UNL     1       4.221  -8.812   6.489  0.00  0.00    -0.064 C 
ATOM     32  C   UNL     1       3.085  -8.855   5.466  0.00  0.00    +0.066 C 
ATOM     33  C   UNL     1       6.580  -8.493   6.785  0.00  0.00    -0.096 C 
ATOM     34  H   UNL     1       5.670  -9.229   5.114  0.00  0.00    -0.082 HD
ENDBRANCH  26  27
ENDBRANCH  23  26
ENDBRANCH   8  22
TORSDOF 5
