REMARK  Name = ZINC36392899
REMARK  4 active torsions:
REMARK  status: ('A' for Active; 'I' for Inactive)
REMARK    1  A    between atoms: C_6  and  S_7
REMARK    2  A    between atoms: S_7  and  N_10
REMARK    3  A    between atoms: N_13  and  C_14
REMARK    4  A    between atoms: C_14  and  C_15
REMARK                            x       y       z     vdW  Elec       q    Type
REMARK                         _______ _______ _______ _____ _____    ______ ____
ROOT
ATOM      1  C   UNL     1       4.181   4.009   1.359  0.00  0.00    +0.149 A 
ATOM      2  N   UNL     1       3.110   4.464   1.984  0.00  0.00    -0.215 NA
ATOM      3  C   UNL     1       3.115   4.747   3.276  0.00  0.00    +0.128 A 
ATOM      4  C   UNL     1       4.313   4.556   4.021  0.00  0.00    +0.051 A 
ATOM      5  C   UNL     1       4.549   4.799   5.449  0.00  0.00    -0.025 A 
ATOM      6  C   UNL     1       5.788   4.538   5.910  0.00  0.00    -0.004 A 
ATOM      7  S   UNL     1       6.697   3.953   4.502  0.00  0.00    -0.073 S 
ATOM      8  C   UNL     1       5.411   4.068   3.287  0.00  0.00    +0.114 A 
ATOM      9  N   UNL     1       5.318   3.807   1.998  0.00  0.00    -0.223 NA
ATOM     10  C   UNL     1       6.304   4.712   7.305  0.00  0.00    +0.043 C 
ATOM     11  C   UNL     1       5.324   4.066   8.292  0.00  0.00    +0.005 C 
ATOM     12  C   UNL     1       4.294   5.115   8.703  0.00  0.00    +0.001 C 
ATOM     13  C   UNL     1       4.026   6.066   7.538  0.00  0.00    +0.005 C 
ATOM     14  C   UNL     1       3.433   5.311   6.355  0.00  0.00    +0.037 C 
ATOM     15  N   UNL     1       1.973   5.222   3.895  0.00  0.00    -0.343 N 
ATOM     16  H   UNL     1       1.836   5.069   4.843  0.00  0.00    +0.144 HD
ATOM     17  H   UNL     1       1.310   5.708   3.381  0.00  0.00    +0.144 HD
ENDROOT
BRANCH   1  18
ATOM     18  C   UNL     1       4.102   3.708  -0.116  0.00  0.00    +0.181 C 
BRANCH  18  27
ATOM     19  C   UNL     1      -0.039   2.007  -0.515  0.00  0.00    +0.030 A 
ATOM     20  C   UNL     1       1.183   2.632  -0.382  0.00  0.00    +0.025 A 
ATOM     21  C   UNL     1       2.363   1.886  -0.422  0.00  0.00    +0.033 A 
ATOM     22  C   UNL     1       2.285   0.513  -0.597  0.00  0.00    -0.023 A 
ATOM     23  C   UNL     1       1.059  -0.108  -0.730  0.00  0.00    +0.034 A 
ATOM     24  C   UNL     1      -0.105   0.637  -0.689  0.00  0.00    +0.105 A 
ATOM     25  C   UNL     1       3.688  -0.051  -0.604  0.00  0.00    +0.056 C 
ATOM     26  C   UNL     1       4.598   1.174  -0.410  0.00  0.00    +0.110 C 
ATOM     27  N   UNL     1       3.686   2.317  -0.308  0.00  0.00    -0.322 N 
BRANCH  24  28
ATOM     28  S   UNL     1      -1.669  -0.157  -0.858  0.00  0.00    +0.056 S 
ATOM     29  O   UNL     1      -1.483  -1.509  -0.463  0.00  0.00    -0.153 OA
ATOM     30  O   UNL     1      -2.625   0.693  -0.239  0.00  0.00    -0.153 OA
BRANCH  28  31
ATOM     31  N   UNL     1      -2.033  -0.182  -2.474  0.00  0.00    -0.204 NA
ATOM     32  H   UNL     1      -2.573  -0.900  -2.838  0.00  0.00    +0.144 HD
ATOM     33  H   UNL     1      -1.706   0.522  -3.055  0.00  0.00    +0.144 HD
ENDBRANCH  28  31
ENDBRANCH  24  28
ENDBRANCH  18  27
ENDBRANCH   1  18
TORSDOF 4
