REMARK  Name = ZINC04762446
REMARK  11 active torsions:
REMARK  status: ('A' for Active; 'I' for Inactive)
REMARK    1  A    between atoms: C_1  and  C_2
REMARK    2  A    between atoms: C_5  and  C_11
REMARK    3  A    between atoms: C_7  and  N_8
REMARK    4  A    between atoms: C_16  and  C_26
REMARK    5  A    between atoms: C_18  and  C_22
REMARK    6  A    between atoms: C_22  and  O_24
REMARK    7  A    between atoms: O_24  and  C_25
REMARK    8  A    between atoms: C_28  and  C_39
REMARK    9  A    between atoms: C_29  and  C_30
REMARK   10  A    between atoms: C_30  and  O_32
REMARK   11  A    between atoms: O_32  and  C_33
REMARK                            x       y       z     vdW  Elec       q    Type
REMARK                         _______ _______ _______ _____ _____    ______ ____
ROOT
ATOM      1  C   UNL     1       1.035  -2.218   0.577  0.00  0.00    +0.092 C 
ATOM      2  C   UNL     1       1.335  -0.742   0.654  0.00  0.00    +0.025 C 
ATOM      3  C   UNL     1       0.454   0.166   0.184  0.00  0.00    +0.016 C 
ATOM      4  C   UNL     1       0.743   1.644   0.268  0.00  0.00    +0.055 C 
ATOM      5  C   UNL     1       2.253   1.879   0.178  0.00  0.00    +0.013 C 
ATOM      6  C   UNL     1       2.932   1.113   1.318  0.00  0.00    +0.171 C 
ATOM      7  C   UNL     1       2.556  -0.341   1.224  0.00  0.00    +0.176 C 
ATOM      8  O   UNL     1       3.322  -1.184   1.648  0.00  0.00    -0.291 OA
ATOM      9  C   UNL     1       2.774   1.367  -1.167  0.00  0.00    +0.009 C 
ATOM     10  N   UNL     1      -0.724  -0.238  -0.384  0.00  0.00    -0.321 N 
ATOM     11  C   UNL     1      -0.873  -1.517  -0.844  0.00  0.00    +0.016 C 
ATOM     12  C   UNL     1      -0.055  -2.494  -0.416  0.00  0.00    +0.065 C 
ATOM     13  C   UNL     1      -1.962  -1.833  -1.837  0.00  0.00    +0.061 C 
ATOM     14  H   UNL     1      -1.562   0.468  -0.474  0.00  0.00    +0.152 HD
ENDROOT
BRANCH   1  19
ATOM     15  C   UNL     1      -0.628  -4.085   5.787  0.00  0.00    +0.046 C 
ATOM     16  C   UNL     1      -0.195  -3.598   4.428  0.00  0.00    -0.020 A 
ATOM     17  C   UNL     1      -0.933  -2.630   3.773  0.00  0.00    +0.006 A 
ATOM     18  C   UNL     1      -0.535  -2.184   2.526  0.00  0.00    +0.005 A 
ATOM     19  C   UNL     1       0.601  -2.705   1.936  0.00  0.00    -0.033 A 
ATOM     20  C   UNL     1       1.336  -3.676   2.589  0.00  0.00    +0.037 A 
ATOM     21  C   UNL     1       0.941  -4.120   3.837  0.00  0.00    +0.129 A 
BRANCH  21  22
ATOM     22  N   UNL     1       1.731  -5.156   4.539  0.00  0.00    +0.057 N 
ATOM     23  O   UNL     1       2.791  -5.534   4.072  0.00  0.00    -0.126 OA
ATOM     24  O   UNL     1       1.321  -5.631   5.583  0.00  0.00    -0.126 OA
ENDBRANCH  21  22
ENDBRANCH   1  19
BRANCH   6  25
ATOM     25  C   UNL     1       4.428   1.255   1.203  0.00  0.00    +0.318 C 
ATOM     26  O   UNL     1       4.905   1.909   0.306  0.00  0.00    -0.250 OA
BRANCH  25  27
ATOM     27  O   UNL     1       5.230   0.656   2.096  0.00  0.00    -0.467 OA
ATOM     28  C   UNL     1       6.660   0.836   1.924  0.00  0.00    +0.280 C 
ENDBRANCH  25  27
ENDBRANCH   6  25
BRANCH  12  29
ATOM     29  C   UNL     1      -0.225  -3.808  -0.913  0.00  0.00    +0.338 C 
ATOM     30  O   UNL     1      -1.105  -4.045  -1.719  0.00  0.00    -0.245 OA
BRANCH  29  31
ATOM     31  O   UNL     1       0.589  -4.799  -0.492  0.00  0.00    -0.458 OA
BRANCH  31  32
ATOM     32  C   UNL     1       0.361  -6.101  -1.035  0.00  0.00    +0.177 C 
ATOM     33  C   UNL     1      -0.632  -6.856  -0.149  0.00  0.00    +0.044 C 
ATOM     34  C   UNL     1      -0.877  -8.250  -0.730  0.00  0.00    +0.004 C 
ATOM     35  C   UNL     1       0.445  -9.018  -0.785  0.00  0.00    +0.000 C 
ATOM     36  C   UNL     1       1.438  -8.264  -1.671  0.00  0.00    +0.004 C 
ATOM     37  C   UNL     1       1.682  -6.870  -1.090  0.00  0.00    +0.044 C 
ENDBRANCH  31  32
ENDBRANCH  29  31
ENDBRANCH  12  29
TORSDOF 7
