REMARK  Name = ZINC03574307
REMARK  8 active torsions:
REMARK  status: ('A' for Active; 'I' for Inactive)
REMARK    1  A    between atoms: C_1  and  C_2
REMARK    2  A    between atoms: C_2  and  O_3
REMARK    3  A    between atoms: O_3  and  C_4
REMARK    4  A    between atoms: C_6  and  C_12
REMARK    5  A    between atoms: C_9  and  O_10
REMARK    6  A    between atoms: N_13  and  N_14
REMARK    7  A    between atoms: C_15  and  C_17
REMARK    8  A    between atoms: C_20  and  N_23
REMARK                            x       y       z     vdW  Elec       q    Type
REMARK                         _______ _______ _______ _____ _____    ______ ____
ROOT
ATOM      1  C   UNL     1       3.582  -4.846  -0.057  0.00  0.00    +0.138 C 
ATOM      2  N   UNL     1       2.447  -4.215  -0.043  0.00  0.00    -0.187 NA
ENDROOT
BRANCH   1   5
ATOM      3  C   UNL     1       4.842  -8.383  -0.088  0.00  0.00    +0.163 A 
ATOM      4  C   UNL     1       4.825  -7.001  -0.086  0.00  0.00    +0.059 A 
ATOM      5  C   UNL     1       3.605  -6.320  -0.065  0.00  0.00    -0.001 A 
ATOM      6  C   UNL     1       2.408  -7.040  -0.057  0.00  0.00    +0.028 A 
ATOM      7  C   UNL     1       2.432  -8.419  -0.065  0.00  0.00    +0.063 A 
ATOM      8  C   UNL     1       3.645  -9.095  -0.080  0.00  0.00    +0.173 A 
ATOM      9 BR   UNL     1       0.810  -9.392  -0.054  0.00  0.00    -0.046 Br
BRANCH   8  10
ATOM     10  O   UNL     1       3.664 -10.454  -0.086  0.00  0.00    -0.503 OA
ATOM     11  H   UNL     1       3.660 -10.843  -0.972  0.00  0.00    +0.292 HD
ENDBRANCH   8  10
BRANCH   3  12
ATOM     12  O   UNL     1       6.028  -9.049  -0.103  0.00  0.00    -0.489 OA
BRANCH  12  14
ATOM     13  C   UNL     1       8.441  -9.172  -0.127  0.00  0.00    +0.048 C 
ATOM     14  C   UNL     1       7.217  -8.255  -0.110  0.00  0.00    +0.226 C 
ENDBRANCH  12  14
ENDBRANCH   3  12
ENDBRANCH   1   5
BRANCH   2  15
ATOM     15  N   UNL     1       2.425  -2.815  -0.036  0.00  0.00    -0.203 N 
ATOM     16  C   UNL     1       1.247  -2.160  -0.021  0.00  0.00    +0.263 C 
ATOM     17  O   UNL     1       0.203  -2.785  -0.014  0.00  0.00    -0.268 OA
ATOM     18  H   UNL     1       3.257  -2.316  -0.041  0.00  0.00    +0.178 HD
BRANCH  16  19
ATOM     19  C   UNL     1       1.223  -0.685  -0.013  0.00  0.00    +0.038 A 
ATOM     20  C   UNL     1       0.002  -0.004   0.002  0.00  0.00    +0.015 A 
ATOM     21  C   UNL     1      -0.017   1.372   0.010  0.00  0.00    +0.023 A 
ATOM     22  C   UNL     1       1.179   2.086   0.002  0.00  0.00    +0.025 A 
ATOM     23  C   UNL     1       2.396   1.411  -0.013  0.00  0.00    +0.023 A 
ATOM     24  C   UNL     1       2.422   0.035  -0.021  0.00  0.00    +0.015 A 
BRANCH  22  25
ATOM     25  N   UNL     1       1.156   3.476   0.009  0.00  0.00    -0.358 N 
ATOM     26  H   UNL     1       0.309   3.948   0.019  0.00  0.00    +0.142 HD
ATOM     27  H   UNL     1       1.988   3.975   0.004  0.00  0.00    +0.142 HD
ENDBRANCH  22  25
ENDBRANCH  16  19
ENDBRANCH   2  15
TORSDOF 7
