REMARK  Name = ZINC19809793
REMARK  6 active torsions:
REMARK  status: ('A' for Active; 'I' for Inactive)
REMARK    1  A    between atoms: C_4  and  C_8
REMARK    2  A    between atoms: C_5  and  O_7
REMARK    3  A    between atoms: N_9  and  N_10
REMARK    4  A    between atoms: N_13  and  N_14
REMARK    5  A    between atoms: C_15  and  C_16
REMARK    6  A    between atoms: C_17  and  O_23
REMARK                            x       y       z     vdW  Elec       q    Type
REMARK                         _______ _______ _______ _____ _____    ______ ____
ROOT
ATOM      1  N   UNL     1       4.954  -2.649  -0.060  0.00  0.00    -0.247 N 
ATOM      2  C   UNL     1       4.980  -4.025  -0.068  0.00  0.00    +0.210 C 
ATOM      3  N   UNL     1       3.864  -4.699  -0.060  0.00  0.00    -0.369 N 
ATOM      4  N   UNL     1       6.185  -4.690  -0.083  0.00  0.00    -0.247 N 
ATOM      5  H   UNL     1       5.784  -2.148  -0.066  0.00  0.00    +0.192 HD
ATOM      6  H   UNL     1       3.882  -5.669  -0.066  0.00  0.00    +0.159 HD
ATOM      7  H   UNL     1       7.016  -4.189  -0.089  0.00  0.00    +0.192 HD
ATOM      8  H   UNL     1       3.014  -4.230  -0.049  0.00  0.00    +0.159 HD
ENDROOT
BRANCH   1  10
ATOM      9  C   UNL     1       3.702  -0.674  -0.037  0.00  0.00    +0.144 C 
ATOM     10  N   UNL     1       3.727  -1.972  -0.044  0.00  0.00    -0.179 NA
BRANCH   9  14
ATOM     11  C   UNL     1      -0.017   1.378   0.010  0.00  0.00    +0.019 A 
ATOM     12  C   UNL     1       1.169   2.095   0.002  0.00  0.00    +0.019 A 
ATOM     13  C   UNL     1       2.380   1.434  -0.013  0.00  0.00    +0.028 A 
ATOM     14  C   UNL     1       2.412   0.038  -0.021  0.00  0.00    +0.037 A 
ATOM     15  C   UNL     1       1.209  -0.682  -0.013  0.00  0.00    +0.126 A 
ATOM     16  C   UNL     1       0.002  -0.004   0.002  0.00  0.00    +0.047 A 
ATOM     17 BR   UNL     1       1.127   3.985   0.012  0.00  0.00    -0.050 Br
BRANCH  15  18
ATOM     18  O   UNL     1       1.228  -2.041  -0.021  0.00  0.00    -0.506 OA
ATOM     19  H   UNL     1       1.242  -2.439   0.860  0.00  0.00    +0.292 HD
ENDBRANCH  15  18
ENDBRANCH   9  14
ENDBRANCH   1  10
BRANCH   4  20
ATOM     20  N   UNL     1       6.212  -6.091  -0.091  0.00  0.00    -0.179 NA
ATOM     21  C   UNL     1       7.349  -6.718  -0.106  0.00  0.00    +0.144 C 
BRANCH  21  22
ATOM     22  C   UNL     1       7.377  -8.192  -0.114  0.00  0.00    +0.037 A 
ATOM     23  C   UNL     1       6.179  -8.919  -0.112  0.00  0.00    +0.126 A 
ATOM     24  C   UNL     1       6.216 -10.304  -0.120  0.00  0.00    +0.047 A 
ATOM     25  C   UNL     1       7.431 -10.965  -0.130  0.00  0.00    +0.019 A 
ATOM     26  C   UNL     1       8.617 -10.250  -0.132  0.00  0.00    +0.019 A 
ATOM     27  C   UNL     1       8.597  -8.870  -0.129  0.00  0.00    +0.028 A 
ATOM     28 BR   UNL     1      10.270 -11.169  -0.145  0.00  0.00    -0.050 Br
BRANCH  23  29
ATOM     29  O   UNL     1       4.987  -8.270  -0.101  0.00  0.00    -0.506 OA
ATOM     30  H   UNL     1       4.636  -8.076  -0.981  0.00  0.00    +0.292 HD
ENDBRANCH  23  29
ENDBRANCH  21  22
ENDBRANCH   4  20
TORSDOF 6
