REMARK  Name = ZINC67063209
REMARK  5 active torsions:
REMARK  status: ('A' for Active; 'I' for Inactive)
REMARK    1  A    between atoms: C_11  and  N_13
REMARK    2  A    between atoms: N_16  and  N_17
REMARK    3  A    between atoms: C_18  and  C_20
REMARK    4  A    between atoms: C_20  and  C_21
REMARK    5  A    between atoms: C_21  and  C_22
REMARK                            x       y       z     vdW  Elec       q    Type
REMARK                         _______ _______ _______ _____ _____    ______ ____
ROOT
ATOM      1  N   UNL     1       3.357   3.505   0.748  0.00  0.00    -0.291 N 
ATOM      2  C   UNL     1       2.740   4.559   0.178  0.00  0.00    +0.316 C 
ATOM      3  O   UNL     1       2.402   4.509  -0.988  0.00  0.00    -0.251 OA
ATOM      4  N   UNL     1       2.499   5.670   0.902  0.00  0.00    -0.218 N 
ATOM      5  H   UNL     1       3.627   3.545   1.679  0.00  0.00    +0.151 HD
ATOM      6  H   UNL     1       2.056   6.429   0.492  0.00  0.00    +0.174 HD
ENDROOT
BRANCH   1  17
ATOM      7  C   UNL     1      -0.017   1.379   0.010  0.00  0.00    +0.003 A 
ATOM      8  C   UNL     1       1.166   2.086   0.002  0.00  0.00    +0.007 A 
ATOM      9  C   UNL     1       2.395   1.430  -0.008  0.00  0.00    -0.011 A 
ATOM     10  C   UNL     1       2.412   0.048  -0.001  0.00  0.00    +0.048 A 
ATOM     11  C   UNL     1       1.212  -0.667  -0.004  0.00  0.00    +0.137 A 
ATOM     12  C   UNL     1       0.002  -0.004   0.002  0.00  0.00    +0.039 A 
ATOM     13  F   UNL     1       1.237  -2.018  -0.015  0.00  0.00    -0.204 F 
ATOM     14  S   UNL     1       3.920  -0.868   0.033  0.00  0.00    -0.122 S 
ATOM     15  C   UNL     1       5.181   0.385  -0.344  0.00  0.00    +0.076 C 
ATOM     16  C   UNL     1       4.862   1.620   0.511  0.00  0.00    +0.038 C 
ATOM     17  C   UNL     1       3.619   2.297  -0.039  0.00  0.00    +0.107 C 
ENDBRANCH   1  17
BRANCH   4  18
ATOM     18  N   UNL     1       2.889   5.729   2.247  0.00  0.00    -0.233 N 
ATOM     19  C   UNL     1       2.648   6.840   2.970  0.00  0.00    +0.229 C 
ATOM     20  O   UNL     1       2.094   7.789   2.458  0.00  0.00    -0.274 OA
ATOM     21  H   UNL     1       3.333   4.970   2.656  0.00  0.00    +0.173 HD
BRANCH  19  22
ATOM     22  C   UNL     1       3.068   6.903   4.417  0.00  0.00    +0.097 C 
BRANCH  22  23
ATOM     23  C   UNL     1       2.680   8.262   5.001  0.00  0.00    +0.013 C 
BRANCH  23  24
ATOM     24  C   UNL     1       3.106   8.326   6.470  0.00  0.00    -0.011 C 
ATOM     25  C   UNL     1       4.632   8.267   6.561  0.00  0.00    +0.003 C 
ATOM     26  C   UNL     1       5.058   8.331   8.029  0.00  0.00    +0.000 C 
ATOM     27  C   UNL     1       4.561   9.639   8.648  0.00  0.00    +0.000 C 
ATOM     28  C   UNL     1       3.034   9.698   8.556  0.00  0.00    +0.000 C 
ATOM     29  C   UNL     1       2.608   9.634   7.088  0.00  0.00    +0.003 C 
ENDBRANCH  23  24
ENDBRANCH  22  23
ENDBRANCH  19  22
ENDBRANCH   4  18
TORSDOF 5
