REMARK  Name = ZINC44123243
REMARK  13 active torsions:
REMARK  status: ('A' for Active; 'I' for Inactive)
REMARK    1  A    between atoms: C_1  and  C_2
REMARK    2  A    between atoms: C_2  and  C_3
REMARK    3  A    between atoms: C_6  and  C_9
REMARK    4  A    between atoms: C_9  and  C_11
REMARK    5  A    between atoms: C_9  and  N_28
REMARK    6  A    between atoms: C_11  and  N_12
REMARK    7  A    between atoms: N_15  and  C_16
REMARK    8  A    between atoms: C_19  and  N_22
REMARK    9  A    between atoms: C_23  and  C_25
REMARK   10  A    between atoms: C_25  and  O_26
REMARK   11  A    between atoms: O_26  and  C_27
REMARK   12  A    between atoms: N_28  and  C_29
REMARK   13  A    between atoms: N_28  and  C_30
REMARK                            x       y       z     vdW  Elec       q    Type
REMARK                         _______ _______ _______ _____ _____    ______ ____
ROOT
ATOM      1  N   UNL     1      -7.019  -4.066   0.052  0.00  0.00    -0.300 N 
ATOM      2  C   UNL     1      -7.341  -5.371  -0.046  0.00  0.00    +0.304 C 
ATOM      3  O   UNL     1      -6.465  -6.205  -0.168  0.00  0.00    -0.253 OA
ATOM      4  N   UNL     1      -8.633  -5.751  -0.008  0.00  0.00    -0.269 N 
ATOM      5  H   UNL     1      -7.718  -3.400   0.149  0.00  0.00    +0.150 HD
ATOM      6  H   UNL     1      -9.328  -5.093   0.152  0.00  0.00    +0.156 HD
ENDROOT
BRANCH   4   7
ATOM      7  C   UNL     1      -8.974  -7.097  -0.200  0.00  0.00    +0.035 A 
ATOM      8  C   UNL     1     -10.143  -7.428  -0.872  0.00  0.00    +0.025 A 
ATOM      9  C   UNL     1     -10.478  -8.754  -1.061  0.00  0.00    +0.025 A 
ATOM     10  C   UNL     1      -9.647  -9.756  -0.579  0.00  0.00    +0.034 A 
ATOM     11  C   UNL     1      -8.477  -9.425   0.093  0.00  0.00    +0.025 A 
ATOM     12  C   UNL     1      -8.139  -8.099   0.277  0.00  0.00    +0.025 A 
BRANCH  10  13
ATOM     13  N   UNL     1      -9.988 -11.101  -0.770  0.00  0.00    -0.284 N 
ATOM     14  C   UNL     1     -10.621 -11.482  -1.897  0.00  0.00    +0.243 C 
ATOM     15  O   UNL     1     -10.804 -10.682  -2.790  0.00  0.00    -0.273 OA
ATOM     16  H   UNL     1      -9.768 -11.758  -0.092  0.00  0.00    +0.155 HD
BRANCH  14  17
ATOM     17  C   UNL     1     -11.101 -12.903  -2.048  0.00  0.00    +0.255 C 
BRANCH  17  18
ATOM     18  O   UNL     1     -11.736 -13.058  -3.318  0.00  0.00    -0.374 OA
ATOM     19  C   UNL     1     -12.231 -14.377  -3.563  0.00  0.00    +0.194 C 
ENDBRANCH  17  18
ENDBRANCH  14  17
ENDBRANCH  10  13
ENDBRANCH   4   7
BRANCH   1  20
ATOM     20  C   UNL     1      -5.614  -3.652   0.011  0.00  0.00    +0.095 C 
BRANCH  20  21
ATOM     21  C   UNL     1      -5.518  -2.147   0.266  0.00  0.00    -0.021 C 
BRANCH  21  25
ATOM     22  C   UNL     1      -7.059  -1.263   4.151  0.00  0.00    -0.048 A 
ATOM     23  C   UNL     1      -7.844  -1.056   3.032  0.00  0.00    +0.004 A 
ATOM     24  C   UNL     1      -7.346  -1.342   1.775  0.00  0.00    +0.002 A 
ATOM     25  C   UNL     1      -6.061  -1.834   1.637  0.00  0.00    -0.059 A 
ATOM     26  C   UNL     1      -5.276  -2.040   2.755  0.00  0.00    +0.002 A 
ATOM     27  C   UNL     1      -5.773  -1.750   4.012  0.00  0.00    +0.004 A 
BRANCH  22  29
ATOM     28  C   UNL     1      -7.287   0.504   5.876  0.00  0.00    +0.009 C 
ATOM     29  C   UNL     1      -7.603  -0.951   5.521  0.00  0.00    +0.032 C 
ENDBRANCH  22  29
ENDBRANCH  21  25
BRANCH  21  30
ATOM     30  N   UNL     1      -4.112  -1.726   0.189  0.00  0.00    +0.382 N 
ATOM     31  C   UNL     1      -3.615  -1.930  -1.178  0.00  0.00    -0.096 C 
ATOM     32  C   UNL     1      -4.007  -0.304   0.541  0.00  0.00    -0.096 C 
ATOM     33  H   UNL     1      -3.562  -2.274   0.833  0.00  0.00    -0.082 HD
ENDBRANCH  21  30
ENDBRANCH  20  21
ENDBRANCH   1  20
TORSDOF 9
