REMARK  Name = ZINC66390430
REMARK  7 active torsions:
REMARK  status: ('A' for Active; 'I' for Inactive)
REMARK    1  A    between atoms: C_1  and  C_2
REMARK    2  A    between atoms: C_2  and  C_4
REMARK    3  A    between atoms: C_2  and  N_15
REMARK    4  A    between atoms: N_9  and  C_10
REMARK    5  A    between atoms: N_15  and  C_16
REMARK    6  A    between atoms: C_16  and  C_17
REMARK    7  A    between atoms: C_17  and  C_23
REMARK                            x       y       z     vdW  Elec       q    Type
REMARK                         _______ _______ _______ _____ _____    ______ ____
ROOT
ATOM      1  N   UNL     1      -1.778  -0.282   0.453  0.00  0.00    +0.387 N 
ATOM      2  H   UNL     1      -1.810  -1.265   0.681  0.00  0.00    -0.085 HD
ATOM      3  H   UNL     1      -2.452   0.215   1.016  0.00  0.00    -0.085 HD
ENDROOT
BRANCH   1   5
ATOM      4  C   UNL     1      -0.418   1.754   0.498  0.00  0.00    -0.004 C 
ATOM      5  C   UNL     1      -0.432   0.240   0.724  0.00  0.00    +0.013 C 
BRANCH   5   6
ATOM      6  C   UNL     1      -0.056  -0.058   2.152  0.00  0.00    +0.206 C 
ATOM      7  O   UNL     1      -0.832  -0.647   2.873  0.00  0.00    -0.277 OA
ATOM      8  N   UNL     1       1.144   0.331   2.629  0.00  0.00    -0.242 N 
ATOM      9  C   UNL     1       1.480   0.064   3.906  0.00  0.00    +0.306 C 
ATOM     10  O   UNL     1       0.702  -0.527   4.629  0.00  0.00    -0.252 OA
ATOM     11  N   UNL     1       2.680   0.453   4.382  0.00  0.00    -0.296 N 
ATOM     12  H   UNL     1       1.765   0.803   2.052  0.00  0.00    +0.159 HD
ATOM     13  H   UNL     1       3.301   0.925   3.805  0.00  0.00    +0.151 HD
BRANCH  11  14
ATOM     14  C   UNL     1       3.046   0.163   5.771  0.00  0.00    +0.074 C 
ATOM     15  C   UNL     1       2.555   1.297   6.694  0.00  0.00    +0.022 C 
ATOM     16  C   UNL     1       3.678   1.438   7.752  0.00  0.00    +0.002 C 
ATOM     17  C   UNL     1       4.964   1.217   6.917  0.00  0.00    +0.002 C 
ATOM     18  C   UNL     1       4.577   0.112   5.913  0.00  0.00    +0.022 C 
ENDBRANCH  11  14
ENDBRANCH   5   6
ENDBRANCH   1   5
BRANCH   1  19
ATOM     19  C   UNL     1      -2.098  -0.099  -0.969  0.00  0.00    -0.070 C 
BRANCH  19  20
ATOM     20  C   UNL     1      -3.442  -0.760  -1.279  0.00  0.00    -0.015 C 
ATOM     21  C   UNL     1      -3.848  -0.443  -2.722  0.00  0.00    +0.038 C 
ATOM     22  C   UNL     1      -4.042   1.068  -2.869  0.00  0.00    +0.160 C 
ATOM     23  O   UNL     1      -5.027   1.514  -1.935  0.00  0.00    -0.380 OA
ATOM     24  C   UNL     1      -4.680   1.287  -0.568  0.00  0.00    +0.160 C 
ATOM     25  C   UNL     1      -4.512  -0.216  -0.328  0.00  0.00    +0.038 C 
BRANCH  20  26
ATOM     26  C   UNL     1      -3.322  -2.252  -1.103  0.00  0.00    -0.043 A 
ATOM     27  C   UNL     1      -2.092  -2.818  -0.827  0.00  0.00    +0.007 A 
ATOM     28  C   UNL     1      -1.982  -4.186  -0.665  0.00  0.00    +0.038 A 
ATOM     29  C   UNL     1      -3.104  -4.989  -0.779  0.00  0.00    +0.123 A 
ATOM     30  C   UNL     1      -4.335  -4.421  -1.056  0.00  0.00    +0.038 A 
ATOM     31  C   UNL     1      -4.444  -3.052  -1.213  0.00  0.00    +0.007 A 
ATOM     32  F   UNL     1      -2.997  -6.327  -0.622  0.00  0.00    -0.205 F 
ENDBRANCH  20  26
ENDBRANCH  19  20
ENDBRANCH   1  19
TORSDOF 6
