REMARK  Name = ZINC14274241
REMARK  9 active torsions:
REMARK  status: ('A' for Active; 'I' for Inactive)
REMARK    1  A    between atoms: C_4  and  C_7
REMARK    2  A    between atoms: C_7  and  O_8
REMARK    3  A    between atoms: O_8  and  C_9
REMARK    4  A    between atoms: C_13  and  C_15
REMARK    5  A    between atoms: N_17  and  C_18
REMARK    6  A    between atoms: C_18  and  N_20
REMARK    7  A    between atoms: N_20  and  C_21
REMARK    8  A    between atoms: C_25  and  N_27
REMARK    9  A    between atoms: C_28  and  C_30
REMARK                            x       y       z     vdW  Elec       q    Type
REMARK                         _______ _______ _______ _____ _____    ______ ____
ROOT
ATOM      1  C   UNL     1      -3.943   2.036  -0.052  0.00  0.00    +0.141 C 
ATOM      2  S   UNL     1      -3.885   3.714  -0.386  0.00  0.00    -0.018 S 
ENDROOT
BRANCH   1   5
ATOM      3  C   UNL     1      -6.248   2.041  -0.423  0.00  0.00    +0.250 C 
ATOM      4  O   UNL     1      -6.207   3.232  -0.659  0.00  0.00    -0.270 OA
ATOM      5  N   UNL     1      -5.118   1.378  -0.106  0.00  0.00    -0.264 N 
ATOM      6  H   UNL     1      -5.150   0.427   0.083  0.00  0.00    +0.157 HD
BRANCH   3  11
ATOM      7  C   UNL     1      -9.911   1.321  -0.863  0.00  0.00    +0.122 A 
ATOM      8  C   UNL     1      -9.950  -0.040  -0.591  0.00  0.00    +0.046 A 
ATOM      9  C   UNL     1      -8.791  -0.719  -0.266  0.00  0.00    +0.004 A 
ATOM     10  C   UNL     1      -7.585  -0.050  -0.216  0.00  0.00    +0.013 A 
ATOM     11  C   UNL     1      -7.536   1.319  -0.482  0.00  0.00    +0.041 A 
ATOM     12  C   UNL     1      -8.707   2.004  -0.809  0.00  0.00    +0.058 A 
BRANCH   7  13
ATOM     13  O   UNL     1     -11.054   1.983  -1.181  0.00  0.00    -0.487 OA
BRANCH  13  14
ATOM     14  C   UNL     1     -12.259   1.217  -1.218  0.00  0.00    +0.264 C 
BRANCH  14  18
ATOM     15  C   UNL     1     -15.532   3.756  -2.262  0.00  0.00    +0.000 A 
ATOM     16  C   UNL     1     -14.816   3.109  -3.251  0.00  0.00    +0.000 A 
ATOM     17  C   UNL     1     -13.757   2.287  -2.914  0.00  0.00    +0.007 A 
ATOM     18  C   UNL     1     -13.414   2.113  -1.586  0.00  0.00    -0.010 A 
ATOM     19  C   UNL     1     -14.132   2.756  -0.596  0.00  0.00    +0.007 A 
ATOM     20  C   UNL     1     -15.188   3.582  -0.934  0.00  0.00    +0.000 A 
ENDBRANCH  14  18
ENDBRANCH  13  14
ENDBRANCH   7  13
ENDBRANCH   3  11
ENDBRANCH   1   5
BRANCH   1  21
ATOM     21  N   UNL     1      -2.813   1.373   0.265  0.00  0.00    -0.297 N 
ATOM     22  H   UNL     1      -2.854   0.437   0.515  0.00  0.00    +0.154 HD
BRANCH  21  23
ATOM     23  C   UNL     1      -1.581   2.034   0.232  0.00  0.00    +0.034 A 
ATOM     24  C   UNL     1      -0.489   1.440  -0.389  0.00  0.00    +0.023 A 
ATOM     25  C   UNL     1       0.730   2.091  -0.416  0.00  0.00    +0.004 A 
ATOM     26  C   UNL     1       0.865   3.336   0.167  0.00  0.00    +0.023 A 
ATOM     27  C   UNL     1      -0.225   3.938   0.784  0.00  0.00    +0.035 A 
ATOM     28  C   UNL     1      -1.450   3.287   0.814  0.00  0.00    +0.046 A 
BRANCH  27  29
ATOM     29  N   UNL     1      -0.087   5.198   1.375  0.00  0.00    -0.281 N 
ATOM     30  C   UNL     1      -0.759   5.489   2.506  0.00  0.00    +0.248 C 
ATOM     31  O   UNL     1      -1.391   4.622   3.078  0.00  0.00    -0.270 OA
ATOM     32  H   UNL     1       0.493   5.862   0.971  0.00  0.00    +0.155 HD
BRANCH  30  33
ATOM     33  C   UNL     1      -0.729   6.862   3.051  0.00  0.00    +0.037 A 
ATOM     34  C   UNL     1       0.000   7.859   2.400  0.00  0.00    +0.013 A 
ATOM     35  C   UNL     1       0.020   9.140   2.911  0.00  0.00    +0.001 A 
ATOM     36  C   UNL     1      -0.671   9.436   4.073  0.00  0.00    +0.000 A 
ATOM     37  C   UNL     1      -1.391   8.451   4.726  0.00  0.00    +0.001 A 
ATOM     38  C   UNL     1      -1.424   7.168   4.222  0.00  0.00    +0.013 A 
ENDBRANCH  30  33
ENDBRANCH  27  29
ENDBRANCH  21  23
ENDBRANCH   1  21
TORSDOF 9
