REMARK  Name = ZINC40177492
REMARK  7 active torsions:
REMARK  status: ('A' for Active; 'I' for Inactive)
REMARK    1  A    between atoms: C_7  and  N_9
REMARK    2  A    between atoms: N_9  and  C_10
REMARK    3  A    between atoms: C_12  and  O_25
REMARK    4  A    between atoms: C_14  and  O_24
REMARK    5  A    between atoms: C_16  and  C_22
REMARK    6  A    between atoms: C_19  and  O_21
REMARK    7  A    between atoms: C_22  and  O_23
REMARK                            x       y       z     vdW  Elec       q    Type
REMARK                         _______ _______ _______ _____ _____    ______ ____
ROOT
ATOM      1  C   UNL     1      -1.353  -1.975   0.183  0.00  0.00    +0.017 C 
ATOM      2  C   UNL     1      -2.718  -2.516   0.618  0.00  0.00    +0.136 C 
ATOM      3  C   UNL     1      -3.795  -1.972  -0.326  0.00  0.00    +0.172 C 
ATOM      4  C   UNL     1      -3.447  -2.363  -1.764  0.00  0.00    +0.177 C 
ATOM      5  O   UNL     1      -2.153  -1.855  -2.095  0.00  0.00    -0.345 OA
ATOM      6  C   UNL     1      -1.098  -2.366  -1.275  0.00  0.00    +0.236 C 
ENDROOT
BRANCH   1   7
ATOM      7  N   UNL     1      -1.342  -0.512   0.307  0.00  0.00    +0.389 N 
ATOM      8  H   UNL     1      -1.593  -0.253   1.250  0.00  0.00    -0.085 HD
ATOM      9  H   UNL     1      -2.007  -0.114  -0.339  0.00  0.00    -0.085 HD
BRANCH   7  16
ATOM     10  C   UNL     1      -0.019   1.534   0.011  0.00  0.00    +0.008 C 
ATOM     11  C   UNL     1       1.453   2.038  -0.001  0.00  0.00    +0.164 C 
ATOM     12  S   UNL     1       2.228   0.842   1.167  0.00  0.00    -0.033 S 
ATOM     13  O   UNL     1       2.198   1.391   2.478  0.00  0.00    -0.174 OA
ATOM     14  O   UNL     1       3.463   0.399   0.623  0.00  0.00    -0.174 OA
ATOM     15  C   UNL     1       1.001  -0.524   1.063  0.00  0.00    +0.150 C 
ATOM     16  C   UNL     1       0.002  -0.004   0.002  0.00  0.00    -0.048 C 
ENDBRANCH   7  16
ENDBRANCH   1   7
BRANCH   6  17
ATOM     17  O   UNL     1      -1.056  -3.790  -1.387  0.00  0.00    -0.368 OA
ATOM     18  H   UNL     1      -0.897  -4.110  -2.285  0.00  0.00    +0.212 HD
ENDBRANCH   6  17
BRANCH   3  19
ATOM     19  O   UNL     1      -5.064  -2.526   0.028  0.00  0.00    -0.387 OA
ATOM     20  H   UNL     1      -5.794  -2.224  -0.530  0.00  0.00    +0.210 HD
ENDBRANCH   3  19
BRANCH   2  21
ATOM     21  O   UNL     1      -2.995  -2.095   1.955  0.00  0.00    -0.391 OA
ATOM     22  H   UNL     1      -3.846  -2.403   2.296  0.00  0.00    +0.210 HD
ENDBRANCH   2  21
BRANCH   4  23
ATOM     23  C   UNL     1      -4.486  -1.772  -2.719  0.00  0.00    +0.190 C 
BRANCH  23  24
ATOM     24  O   UNL     1      -4.229  -2.232  -4.047  0.00  0.00    -0.392 OA
ATOM     25  H   UNL     1      -4.851  -1.897  -4.707  0.00  0.00    +0.210 HD
ENDBRANCH  23  24
ENDBRANCH   4  23
TORSDOF 7
