REMARK  Name = ZINC42909830
REMARK  12 active torsions:
REMARK  status: ('A' for Active; 'I' for Inactive)
REMARK    1  A    between atoms: C_1  and  C_2
REMARK    2  A    between atoms: C_2  and  O_3
REMARK    3  A    between atoms: O_3  and  C_4
REMARK    4  A    between atoms: C_4  and  C_5
REMARK    5  A    between atoms: C_5  and  C_6
REMARK    6  A    between atoms: C_6  and  N_7
REMARK    7  A    between atoms: C_8  and  C_10
REMARK    8  A    between atoms: N_18  and  C_19
REMARK    9  A    between atoms: C_21  and  C_27
REMARK   10  A    between atoms: C_21  and  C_28
REMARK   11  A    between atoms: C_23  and  C_25
REMARK   12  A    between atoms: C_23  and  C_26
REMARK                            x       y       z     vdW  Elec       q    Type
REMARK                         _______ _______ _______ _____ _____    ______ ____
ROOT
ATOM      1  C   UNL     1      -5.997  -5.957  -0.135  0.00  0.00    +0.078 C 
ATOM      2  C   UNL     1      -6.605  -5.385  -1.417  0.00  0.00    +0.032 C 
ATOM      3  C   UNL     1      -8.102  -5.708  -1.456  0.00  0.00    +0.110 C 
ATOM      4  N   UNL     1      -8.277  -7.159  -1.300  0.00  0.00    -0.286 N 
ATOM      5  C   UNL     1      -7.655  -7.825  -0.148  0.00  0.00    +0.110 C 
ATOM      6  C   UNL     1      -6.163  -7.478  -0.124  0.00  0.00    +0.032 C 
ATOM      7  C   UNL     1      -8.995  -7.864  -2.197  0.00  0.00    +0.302 C 
ATOM      8  O   UNL     1      -9.582  -7.290  -3.092  0.00  0.00    -0.253 OA
ATOM      9  N   UNL     1      -9.060  -9.207  -2.100  0.00  0.00    -0.296 N 
ATOM     10  H   UNL     1      -8.657  -9.659  -1.343  0.00  0.00    +0.151 HD
ENDROOT
BRANCH   9  11
ATOM     11  C   UNL     1      -9.743  -9.985  -3.141  0.00  0.00    +0.072 C 
ATOM     12  C   UNL     1      -8.755 -10.296  -4.266  0.00  0.00    +0.009 C 
ATOM     13  C   UNL     1      -9.448 -11.117  -5.353  0.00  0.00    -0.072 C 
ATOM     14  N   UNL     1     -10.077 -12.315  -4.818  0.00  0.00    +0.386 N 
ATOM     15  C   UNL     1     -10.884 -12.174  -3.616  0.00  0.00    -0.072 C 
ATOM     16  C   UNL     1     -10.225 -11.309  -2.547  0.00  0.00    +0.009 C 
ATOM     17  C   UNL     1     -12.283 -11.638  -3.932  0.00  0.00    -0.010 C 
ATOM     18  C   UNL     1     -11.068 -13.587  -3.013  0.00  0.00    -0.010 C 
ATOM     19  C   UNL     1      -8.357 -11.569  -6.352  0.00  0.00    -0.010 C 
ATOM     20  C   UNL     1     -10.435 -10.243  -6.126  0.00  0.00    -0.010 C 
ATOM     21  H   UNL     1     -10.660 -12.726  -5.551  0.00  0.00    -0.084 HD
ATOM     22  H   UNL     1      -9.346 -13.007  -4.636  0.00  0.00    -0.084 HD
ENDBRANCH   9  11
BRANCH   1  24
ATOM     23  N   UNL     1      -4.143  -4.321  -0.076  0.00  0.00    -0.315 N 
ATOM     24  C   UNL     1      -4.531  -5.611  -0.077  0.00  0.00    +0.216 C 
ATOM     25  O   UNL     1      -3.701  -6.494  -0.031  0.00  0.00    -0.276 OA
ATOM     26  H   UNL     1      -4.807  -3.614  -0.112  0.00  0.00    +0.149 HD
BRANCH  23  27
ATOM     27  C   UNL     1      -2.718  -3.985  -0.019  0.00  0.00    +0.106 C 
BRANCH  27  28
ATOM     28  C   UNL     1      -2.552  -2.464  -0.030  0.00  0.00    +0.047 C 
BRANCH  28  29
ATOM     29  C   UNL     1      -1.064  -2.113   0.029  0.00  0.00    +0.161 C 
BRANCH  29  30
ATOM     30  O   UNL     1      -0.909  -0.692   0.018  0.00  0.00    -0.380 OA
BRANCH  30  32
ATOM     31  C   UNL     1       0.496   1.274   0.055  0.00  0.00    +0.034 C 
ATOM     32  C   UNL     1       0.451  -0.256   0.071  0.00  0.00    +0.156 C 
ENDBRANCH  30  32
ENDBRANCH  29  30
ENDBRANCH  28  29
ENDBRANCH  27  28
ENDBRANCH  23  27
ENDBRANCH   1  24
TORSDOF 7
