REMARK  Name = ZINC35427110
REMARK  7 active torsions:
REMARK  status: ('A' for Active; 'I' for Inactive)
REMARK    1  A    between atoms: C_1  and  N_2
REMARK    2  A    between atoms: C_16  and  C_31
REMARK    3  A    between atoms: N_22  and  C_23
REMARK    4  A    between atoms: C_28  and  O_29
REMARK    5  A    between atoms: O_29  and  C_30
REMARK    6  A    between atoms: C_34  and  O_37
REMARK    7  A    between atoms: O_37  and  C_38
REMARK                            x       y       z     vdW  Elec       q    Type
REMARK                         _______ _______ _______ _____ _____    ______ ____
ROOT
ATOM      1  C   UNL     1       0.939   0.985  -1.502  0.00  0.00    -0.096 C 
ATOM      2  N   UNL     1       0.674  -0.427  -1.195  0.00  0.00    +0.381 N 
ATOM      3  C   UNL     1      -0.697  -0.767  -1.598  0.00  0.00    -0.074 C 
ATOM      4  C   UNL     1      -0.894  -2.286  -1.587  0.00  0.00    +0.018 C 
ATOM      5  C   UNL     1      -0.455  -2.809  -0.222  0.00  0.00    -0.034 A 
ATOM      6  C   UNL     1      -0.820  -4.077   0.267  0.00  0.00    +0.004 A 
ATOM      7  C   UNL     1      -0.348  -4.415   1.499  0.00  0.00    +0.090 A 
ATOM      8  S   UNL     1       0.578  -3.006   2.023  0.00  0.00    -0.077 S 
ATOM      9  C   UNL     1       0.323  -2.022   0.571  0.00  0.00    -0.021 A 
ATOM     10  C   UNL     1       0.830  -0.654   0.254  0.00  0.00    -0.036 C 
ATOM     11  N   UNL     1      -0.587  -5.638   2.115  0.00  0.00    -0.312 N 
ATOM     12  C   UNL     1      -0.959  -5.947   3.378  0.00  0.00    +0.092 A 
ATOM     13  C   UNL     1      -1.125  -7.287   3.450  0.00  0.00    +0.020 A 
ATOM     14  C   UNL     1      -0.821  -7.822   2.180  0.00  0.00    +0.025 A 
ATOM     15  C   UNL     1      -0.472  -6.799   1.386  0.00  0.00    +0.049 A 
ATOM     16  C   UNL     1       0.016  -6.817  -0.032  0.00  0.00    +0.155 C 
ATOM     17  N   UNL     1      -0.978  -6.232  -0.964  0.00  0.00    -0.268 N 
ATOM     18  C   UNL     1      -1.703  -5.036  -0.498  0.00  0.00    +0.148 C 
ATOM     19  C   UNL     1      -1.206  -6.767  -2.180  0.00  0.00    +0.308 C 
ATOM     20  O   UNL     1      -0.591  -7.753  -2.535  0.00  0.00    -0.252 OA
ATOM     21  N   UNL     1      -2.117  -6.209  -3.002  0.00  0.00    -0.266 N 
ATOM     22  H   UNL     1      -2.550  -5.377  -2.752  0.00  0.00    +0.156 HD
ATOM     23  H   UNL     1       1.327  -1.008  -1.699  0.00  0.00    -0.082 HD
ENDROOT
BRANCH  21  24
ATOM     24  C   UNL     1      -2.438  -6.830  -4.216  0.00  0.00    +0.077 A 
ATOM     25  C   UNL     1      -2.155  -8.174  -4.407  0.00  0.00    +0.027 A 
ATOM     26  C   UNL     1      -2.473  -8.784  -5.606  0.00  0.00    +0.002 A 
ATOM     27  C   UNL     1      -3.073  -8.057  -6.617  0.00  0.00    +0.004 A 
ATOM     28  C   UNL     1      -3.359  -6.717  -6.434  0.00  0.00    +0.047 A 
ATOM     29  C   UNL     1      -3.049  -6.099  -5.234  0.00  0.00    +0.141 A 
BRANCH  29  30
ATOM     30  O   UNL     1      -3.334  -4.783  -5.051  0.00  0.00    -0.493 OA
ATOM     31  C   UNL     1      -3.961  -4.097  -6.137  0.00  0.00    +0.277 C 
ENDBRANCH  29  30
ENDBRANCH  21  24
BRANCH  16  32
ATOM     32  C   UNL     1       1.295  -6.025  -0.121  0.00  0.00    -0.021 A 
ATOM     33  C   UNL     1       2.219  -6.088   0.907  0.00  0.00    +0.009 A 
ATOM     34  C   UNL     1       3.392  -5.363   0.828  0.00  0.00    +0.046 A 
ATOM     35  C   UNL     1       3.644  -4.572  -0.284  0.00  0.00    +0.120 A 
ATOM     36  C   UNL     1       2.716  -4.512  -1.314  0.00  0.00    +0.046 A 
ATOM     37  C   UNL     1       1.547  -5.242  -1.232  0.00  0.00    +0.009 A 
BRANCH  35  38
ATOM     38  O   UNL     1       4.797  -3.858  -0.364  0.00  0.00    -0.495 OA
ATOM     39  C   UNL     1       4.990  -3.066  -1.537  0.00  0.00    +0.277 C 
ENDBRANCH  35  38
ENDBRANCH  16  32
TORSDOF 4
