REMARK  Name = ZINC13789405
REMARK  5 active torsions:
REMARK  status: ('A' for Active; 'I' for Inactive)
REMARK    1  A    between atoms: C_1  and  N_2
REMARK    2  A    between atoms: N_11  and  C_12
REMARK    3  A    between atoms: C_12  and  C_14
REMARK    4  A    between atoms: N_17  and  S_20
REMARK    5  A    between atoms: S_20  and  C_23
REMARK                            x       y       z     vdW  Elec       q    Type
REMARK                         _______ _______ _______ _____ _____    ______ ____
ROOT
ATOM      1  C   UNL     1       0.024  -2.688   9.466  0.00  0.00    +0.151 C 
ATOM      2  N   UNL     1       0.074  -1.292   9.907  0.00  0.00    -0.324 N 
ATOM      3  C   UNL     1      -0.066  -0.986  11.248  0.00  0.00    +0.057 A 
ATOM      4  C   UNL     1      -0.262  -1.864  12.325  0.00  0.00    +0.028 A 
ATOM      5  C   UNL     1      -0.382  -1.387  13.609  0.00  0.00    +0.017 A 
ATOM      6  C   UNL     1      -0.314  -0.029  13.879  0.00  0.00    +0.019 A 
ATOM      7  C   UNL     1      -0.121   0.859  12.835  0.00  0.00    +0.032 A 
ATOM      8  C   UNL     1      -0.001   0.382  11.552  0.00  0.00    +0.040 A 
ATOM      9  S   UNL     1       0.256   1.139   9.967  0.00  0.00    -0.052 S 
ATOM     10  C   UNL     1       0.259  -0.299   8.997  0.00  0.00    +0.166 A 
ATOM     11  N   UNL     1       0.411  -0.405   7.679  0.00  0.00    -0.156 NA
ATOM     12 BR   UNL     1      -0.482   0.602  15.654  0.00  0.00    -0.050 Br
ENDROOT
BRANCH  11  13
ATOM     13  C   UNL     1       0.582   0.686   6.940  0.00  0.00    +0.242 C 
ATOM     14  O   UNL     1       0.600   1.781   7.467  0.00  0.00    -0.273 OA
BRANCH  13  15
ATOM     15  C   UNL     1       0.755   0.566   5.447  0.00  0.00    +0.080 C 
ATOM     16  C   UNL     1       0.932   1.959   4.841  0.00  0.00    +0.030 C 
ATOM     17  C   UNL     1       1.141   1.831   3.329  0.00  0.00    +0.110 C 
ATOM     18  N   UNL     1       0.025   1.063   2.760  0.00  0.00    -0.181 NA
ATOM     19  C   UNL     1      -0.294  -0.251   3.335  0.00  0.00    +0.110 C 
ATOM     20  C   UNL     1      -0.483  -0.101   4.843  0.00  0.00    +0.030 C 
BRANCH  18  21
ATOM     21  S   UNL     1      -0.862   1.671   1.500  0.00  0.00    +0.029 S 
ATOM     22  O   UNL     1      -0.735   3.082   1.615  0.00  0.00    -0.158 OA
ATOM     23  O   UNL     1      -2.133   1.046   1.617  0.00  0.00    -0.158 OA
ATOM     24  C   UNL     1      -0.013   1.086   0.008  0.00  0.00    +0.215 C 
ENDBRANCH  18  21
ENDBRANCH  13  15
ENDBRANCH  11  13
TORSDOF 3
