REMARK  Name = ZINC35147577
REMARK  5 active torsions:
REMARK  status: ('A' for Active; 'I' for Inactive)
REMARK    1  A    between atoms: C_1  and  C_2
REMARK    2  A    between atoms: C_2  and  C_3
REMARK    3  A    between atoms: C_3  and  C_5
REMARK    4  A    between atoms: C_3  and  N_23
REMARK    5  A    between atoms: C_20  and  C_22
REMARK                            x       y       z     vdW  Elec       q    Type
REMARK                         _______ _______ _______ _____ _____    ______ ____
ROOT
ATOM      1  C   UNL     1      -1.706  -2.050  -0.026  0.00  0.00    +0.131 C 
ATOM      2  N   UNL     1      -2.392  -2.665   0.900  0.00  0.00    -0.234 NA
ATOM      3  C   UNL     1      -2.346  -4.003   1.036  0.00  0.00    +0.078 A 
ATOM      4  C   UNL     1      -3.076  -4.673   2.024  0.00  0.00    +0.028 A 
ATOM      5  C   UNL     1      -2.995  -6.032   2.118  0.00  0.00    +0.002 A 
ATOM      6  C   UNL     1      -2.196  -6.764   1.246  0.00  0.00    +0.001 A 
ATOM      7  C   UNL     1      -1.472  -6.138   0.270  0.00  0.00    +0.015 A 
ATOM      8  C   UNL     1      -1.536  -4.751   0.151  0.00  0.00    +0.063 A 
ATOM      9  C   UNL     1      -0.783  -4.018  -0.875  0.00  0.00    +0.259 C 
ATOM     10  O   UNL     1      -0.064  -4.599  -1.672  0.00  0.00    -0.269 OA
ATOM     11  N   UNL     1      -0.922  -2.675  -0.904  0.00  0.00    -0.207 N 
ATOM     12  C   UNL     1      -0.249  -1.950  -1.840  0.00  0.00    +0.111 A 
ATOM     13  C   UNL     1      -0.040  -2.477  -3.113  0.00  0.00    +0.042 A 
ATOM     14  C   UNL     1       0.645  -1.726  -4.049  0.00  0.00    +0.005 A 
ATOM     15  C   UNL     1       1.111  -0.459  -3.694  0.00  0.00    +0.021 A 
ATOM     16  C   UNL     1       0.887   0.020  -2.443  0.00  0.00    +0.014 A 
ATOM     17  N   UNL     1       0.215  -0.710  -1.534  0.00  0.00    -0.346 N 
ATOM     18  C   UNL     1       1.393   1.390  -2.069  0.00  0.00    +0.063 C 
ATOM     19  H   UNL     1       0.063  -0.348  -0.647  0.00  0.00    +0.167 HD
ENDROOT
BRANCH   1  20
ATOM     20  C   UNL     1      -1.813  -0.549  -0.111  0.00  0.00    +0.148 C 
BRANCH  20  21
ATOM     21  N   UNL     1      -3.207  -0.146   0.091  0.00  0.00    -0.224 N 
ATOM     22  C   UNL     1      -3.918  -0.399   1.205  0.00  0.00    +0.254 C 
ATOM     23  O   UNL     1      -3.513  -0.989   2.186  0.00  0.00    -0.270 OA
ATOM     24  C   UNL     1      -5.275   0.161   1.034  0.00  0.00    +0.049 A 
ATOM     25  C   UNL     1      -6.411   0.205   1.826  0.00  0.00    +0.014 A 
ATOM     26  C   UNL     1      -7.556   0.827   1.353  0.00  0.00    +0.001 A 
ATOM     27  C   UNL     1      -7.571   1.404   0.097  0.00  0.00    +0.001 A 
ATOM     28  C   UNL     1      -6.443   1.368  -0.707  0.00  0.00    +0.014 A 
ATOM     29  C   UNL     1      -5.291   0.749  -0.247  0.00  0.00    +0.049 A 
ATOM     30  C   UNL     1      -3.942   0.531  -0.809  0.00  0.00    +0.254 C 
ATOM     31  O   UNL     1      -3.561   0.899  -1.902  0.00  0.00    -0.270 OA
ENDBRANCH  20  21
BRANCH  20  33
ATOM     32  C   UNL     1      -0.929   1.606   0.793  0.00  0.00    +0.006 C 
ATOM     33  C   UNL     1      -0.936   0.087   0.970  0.00  0.00    +0.027 C 
ENDBRANCH  20  33
ENDBRANCH   1  20
TORSDOF 3
