REMARK  Name = ZINC37063221
REMARK  7 active torsions:
REMARK  status: ('A' for Active; 'I' for Inactive)
REMARK    1  A    between atoms: C_1  and  C_2
REMARK    2  A    between atoms: C_2  and  N_3
REMARK    3  A    between atoms: C_7  and  C_9
REMARK    4  A    between atoms: C_9  and  N_10
REMARK    5  A    between atoms: N_10  and  S_11
REMARK    6  A    between atoms: S_11  and  C_14
REMARK    7  A    between atoms: C_15  and  N_22
REMARK                            x       y       z     vdW  Elec       q    Type
REMARK                         _______ _______ _______ _____ _____    ______ ____
ROOT
ATOM      1  S   UNL     1       5.322  -2.499   0.703  0.00  0.00    +0.061 S 
ATOM      2  O   UNL     1       6.070  -1.778   1.672  0.00  0.00    -0.153 OA
ATOM      3  O   UNL     1       5.252  -3.918   0.696  0.00  0.00    -0.153 OA
ENDROOT
BRANCH   1   4
ATOM      4  C   UNL     1       5.944  -2.018  -0.874  0.00  0.00    +0.140 A 
ATOM      5  C   UNL     1       5.847  -2.885  -1.954  0.00  0.00    +0.053 A 
ATOM      6  C   UNL     1       6.338  -2.502  -3.195  0.00  0.00    +0.040 A 
ATOM      7  C   UNL     1       6.921  -1.259  -3.353  0.00  0.00    +0.021 A 
ATOM      8  C   UNL     1       7.017  -0.397  -2.275  0.00  0.00    +0.032 A 
ATOM      9  C   UNL     1       6.524  -0.774  -1.038  0.00  0.00    +0.047 A 
ATOM     10 BR   UNL     1       6.649   0.411   0.430  0.00  0.00    -0.048 Br
ATOM     11 BR   UNL     1       7.590  -0.736  -5.042  0.00  0.00    -0.050 Br
BRANCH   5  12
ATOM     12  N   UNL     1       5.257  -4.141  -1.792  0.00  0.00    -0.356 N 
ATOM     13  H   UNL     1       4.613  -4.287  -1.082  0.00  0.00    +0.142 HD
ATOM     14  H   UNL     1       5.492  -4.868  -2.390  0.00  0.00    +0.142 HD
ENDBRANCH   5  12
ENDBRANCH   1   4
BRANCH   1  15
ATOM     15  N   UNL     1       3.763  -1.949   0.803  0.00  0.00    -0.191 NA
ATOM     16  H   UNL     1       3.529  -1.272   1.457  0.00  0.00    +0.148 HD
BRANCH  15  17
ATOM     17  C   UNL     1       2.738  -2.485  -0.095  0.00  0.00    +0.090 C 
BRANCH  17  22
ATOM     18  N   UNL     1       1.262  -0.650   0.612  0.00  0.00    +0.382 N 
ATOM     19  C   UNL     1       0.165  -0.137  -0.237  0.00  0.00    -0.078 C 
ATOM     20  C   UNL     1       0.014  -1.188  -1.365  0.00  0.00    -0.020 C 
ATOM     21  C   UNL     1       0.273  -2.511  -0.597  0.00  0.00    -0.016 C 
ATOM     22  C   UNL     1       1.351  -2.110   0.431  0.00  0.00    -0.053 C 
ATOM     23  H   UNL     1       2.132  -0.219   0.337  0.00  0.00    -0.081 HD
BRANCH  18  25
ATOM     24  C   UNL     1       1.012   1.173   2.228  0.00  0.00    -0.017 C 
ATOM     25  C   UNL     1       0.981  -0.342   2.021  0.00  0.00    -0.082 C 
ENDBRANCH  18  25
ENDBRANCH  17  22
ENDBRANCH  15  17
ENDBRANCH   1  15
TORSDOF 6
