REMARK  Name = ZINC01832166
REMARK  7 active torsions:
REMARK  status: ('A' for Active; 'I' for Inactive)
REMARK    1  A    between atoms: C_5  and  C_7
REMARK    2  A    between atoms: N_11  and  C_15
REMARK    3  A    between atoms: C_15  and  C_16
REMARK    4  A    between atoms: C_16  and  C_17
REMARK    5  A    between atoms: C_17  and  C_18
REMARK    6  A    between atoms: N_20  and  C_21
REMARK    7  A    between atoms: C_23  and  N_27
REMARK                            x       y       z     vdW  Elec       q    Type
REMARK                         _______ _______ _______ _____ _____    ______ ____
ROOT
ATOM      1  C   UNL     1      -4.356   8.072   0.414  0.00  0.00    +0.115 C 
ENDROOT
BRANCH   1   6
ATOM      2  C   UNL     1      -4.186  12.745  -1.244  0.00  0.00    +0.029 C 
ATOM      3  C   UNL     1      -4.155  11.739  -0.334  0.00  0.00    +0.077 C 
ATOM      4  C   UNL     1      -4.295  10.281  -0.535  0.00  0.00    +0.258 C 
ATOM      5  O   UNL     1      -4.466   9.802  -1.641  0.00  0.00    -0.269 OA
ATOM      6  N   UNL     1      -4.224   9.525   0.547  0.00  0.00    -0.255 N 
ATOM      7  C   UNL     1      -4.039  10.061   1.770  0.00  0.00    +0.121 C 
ATOM      8  S   UNL     1      -3.927   9.256   3.277  0.00  0.00    -0.027 S 
ATOM      9  S   UNL     1      -3.935  11.812   1.439  0.00  0.00    -0.061 S 
BRANCH   2  14
ATOM     10  C   UNL     1      -2.728  15.605   0.692  0.00  0.00    +0.001 A 
ATOM     11  C   UNL     1      -3.111  16.681  -0.090  0.00  0.00    +0.001 A 
ATOM     12  C   UNL     1      -3.844  16.480  -1.246  0.00  0.00    +0.020 A 
ATOM     13  C   UNL     1      -4.199  15.203  -1.629  0.00  0.00    +0.048 A 
ATOM     14  C   UNL     1      -3.814  14.109  -0.844  0.00  0.00    -0.005 A 
ATOM     15  C   UNL     1      -3.077  14.323   0.327  0.00  0.00    +0.009 A 
ATOM     16 CL   UNL     1      -5.119  14.952  -3.080  0.00  0.00    -0.083 Cl
ENDBRANCH   2  14
ENDBRANCH   1   6
BRANCH   1  17
ATOM     17  C   UNL     1      -2.974   7.453   0.195  0.00  0.00    +0.029 C 
BRANCH  17  18
ATOM     18  C   UNL     1      -3.111   5.935   0.057  0.00  0.00    +0.097 C 
BRANCH  18  19
ATOM     19  C   UNL     1      -1.750   5.325  -0.159  0.00  0.00    +0.217 C 
ATOM     20  O   UNL     1      -0.767   6.034  -0.198  0.00  0.00    -0.275 OA
ATOM     21  N   UNL     1      -1.625   3.991  -0.308  0.00  0.00    -0.282 N 
ATOM     22  H   UNL     1      -2.417   3.432  -0.348  0.00  0.00    +0.155 HD
BRANCH  21  23
ATOM     23  C   UNL     1      -0.353   3.413  -0.405  0.00  0.00    +0.083 A 
ATOM     24  C   UNL     1       0.689   4.119  -0.989  0.00  0.00    +0.060 A 
ATOM     25  C   UNL     1       1.943   3.547  -1.083  0.00  0.00    +0.128 A 
ATOM     26  C   UNL     1       2.164   2.271  -0.597  0.00  0.00    +0.036 A 
ATOM     27  C   UNL     1       1.130   1.562  -0.014  0.00  0.00    +0.055 A 
ATOM     28  C   UNL     1      -0.132   2.126   0.079  0.00  0.00    +0.200 A 
ATOM     29  O   UNL     1      -1.151   1.427   0.647  0.00  0.00    -0.286 OA
BRANCH  25  30
ATOM     30  N   UNL     1       3.054   4.301  -1.707  0.00  0.00    +0.056 N 
ATOM     31  O   UNL     1       4.160   3.798  -1.791  0.00  0.00    -0.126 OA
ATOM     32  O   UNL     1       2.862   5.425  -2.136  0.00  0.00    -0.126 OA
ENDBRANCH  25  30
ENDBRANCH  21  23
ENDBRANCH  18  19
ENDBRANCH  17  18
ENDBRANCH   1  17
TORSDOF 7
