REMARK  Name = ZINC63588668
REMARK  8 active torsions:
REMARK  status: ('A' for Active; 'I' for Inactive)
REMARK    1  A    between atoms: C_1  and  C_2
REMARK    2  A    between atoms: C_5  and  C_8
REMARK    3  A    between atoms: C_8  and  N_10
REMARK    4  A    between atoms: N_12  and  C_13
REMARK    5  A    between atoms: C_18  and  C_19
REMARK    6  A    between atoms: N_21  and  C_22
REMARK    7  A    between atoms: C_22  and  C_23
REMARK    8  A    between atoms: C_23  and  C_24
REMARK                            x       y       z     vdW  Elec       q    Type
REMARK                         _______ _______ _______ _____ _____    ______ ____
ROOT
ATOM      1  N   UNL     1       0.537  -5.311   1.985  0.00  0.00    -0.143 NA
ATOM      2  C   UNL     1       0.757  -6.171   1.001  0.00  0.00    +0.194 C 
ATOM      3  N   UNL     1       0.057  -6.066  -0.166  0.00  0.00    -0.328 N 
ATOM      4  N   UNL     1       1.684  -7.160   1.155  0.00  0.00    -0.357 N 
ATOM      5  H   UNL     1       0.062  -5.232  -0.661  0.00  0.00    +0.169 HD
ATOM      6  H   UNL     1       2.150  -7.261   1.999  0.00  0.00    +0.162 HD
ENDROOT
BRANCH   3   7
ATOM      7  C   UNL     1      -0.667  -7.162  -0.647  0.00  0.00    +0.045 A 
ATOM      8  C   UNL     1      -1.312  -8.014   0.240  0.00  0.00    +0.027 A 
ATOM      9  C   UNL     1      -2.026  -9.095  -0.238  0.00  0.00    +0.022 A 
ATOM     10  C   UNL     1      -2.102  -9.329  -1.600  0.00  0.00    +0.041 A 
ATOM     11  C   UNL     1      -1.461  -8.481  -2.486  0.00  0.00    +0.025 A 
ATOM     12  C   UNL     1      -0.749  -7.396  -2.014  0.00  0.00    -0.026 A 
ATOM     13  C   UNL     1      -0.056  -6.470  -2.980  0.00  0.00    +0.046 C 
ATOM     14 CL   UNL     1      -3.001 -10.688  -2.197  0.00  0.00    -0.084 Cl
ENDBRANCH   3   7
BRANCH   1  15
ATOM     15  C   UNL     1      -0.473  -4.436   1.896  0.00  0.00    +0.270 C 
ATOM     16  O   UNL     1      -1.127  -4.363   0.871  0.00  0.00    -0.268 OA
BRANCH  15  21
ATOM     17  C   UNL     1      -1.724  -1.022   6.360  0.00  0.00    +0.044 C 
ATOM     18  C   UNL     1      -1.396  -1.916   5.191  0.00  0.00    -0.050 A 
ATOM     19  C   UNL     1      -2.140  -1.830   4.028  0.00  0.00    +0.004 A 
ATOM     20  C   UNL     1      -1.845  -2.645   2.955  0.00  0.00    +0.013 A 
ATOM     21  C   UNL     1      -0.794  -3.558   3.044  0.00  0.00    +0.039 A 
ATOM     22  C   UNL     1      -0.047  -3.639   4.220  0.00  0.00    +0.013 A 
ATOM     23  C   UNL     1      -0.349  -2.815   5.284  0.00  0.00    +0.004 A 
ENDBRANCH  15  21
ENDBRANCH   1  15
BRANCH   4  24
ATOM     24  C   UNL     1       1.974  -8.070   0.044  0.00  0.00    +0.120 C 
BRANCH  24  25
ATOM     25  C   UNL     1       3.081  -9.043   0.457  0.00  0.00    +0.054 C 
BRANCH  25  26
ATOM     26  C   UNL     1       3.464  -9.898  -0.723  0.00  0.00    -0.040 C 
ATOM     27  C   UNL     1       4.459  -9.664  -1.609  0.00  0.00    -0.001 A 
ATOM     28  C   UNL     1       5.443  -8.582  -1.735  0.00  0.00    +0.010 A 
ATOM     29  C   UNL     1       6.335  -8.622  -2.751  0.00  0.00    +0.001 A 
ATOM     30  C   UNL     1       6.341  -9.667  -3.685  0.00  0.00    +0.002 A 
ATOM     31  C   UNL     1       5.468 -10.695  -3.635  0.00  0.00    +0.026 A 
ATOM     32  C   UNL     1       4.487 -10.756  -2.607  0.00  0.00    +0.043 A 
ATOM     33  N   UNL     1       3.547 -11.632  -2.349  0.00  0.00    -0.380 N 
ATOM     34  C   UNL     1       2.818 -11.197  -1.152  0.00  0.00    +0.144 C 
ATOM     35  H   UNL     1       3.365 -12.435  -2.861  0.00  0.00    +0.160 HD
ENDBRANCH  25  26
ENDBRANCH  24  25
ENDBRANCH   4  24
TORSDOF 6
