REMARK  Name = ZINC56786226
REMARK  7 active torsions:
REMARK  status: ('A' for Active; 'I' for Inactive)
REMARK    1  A    between atoms: C_1  and  C_2
REMARK    2  A    between atoms: N_7  and  C_9
REMARK    3  A    between atoms: C_9  and  C_10
REMARK    4  A    between atoms: C_10  and  C_12
REMARK    5  A    between atoms: C_10  and  N_13
REMARK    6  A    between atoms: N_16  and  N_17
REMARK    7  A    between atoms: C_18  and  C_20
REMARK                            x       y       z     vdW  Elec       q    Type
REMARK                         _______ _______ _______ _____ _____    ______ ____
ROOT
ATOM      1  N   UNL     1      -0.082  -4.397   2.396  0.00  0.00    -0.297 N 
ATOM      2  C   UNL     1      -0.388  -5.622   1.923  0.00  0.00    +0.316 C 
ATOM      3  O   UNL     1       0.499  -6.388   1.599  0.00  0.00    -0.251 OA
ATOM      4  N   UNL     1      -1.677  -5.997   1.810  0.00  0.00    -0.218 N 
ATOM      5  H   UNL     1      -0.789  -3.786   2.655  0.00  0.00    +0.150 HD
ATOM      6  H   UNL     1      -1.898  -6.878   1.470  0.00  0.00    +0.174 HD
ENDROOT
BRANCH   4   7
ATOM      7  N   UNL     1      -2.700  -5.115   2.184  0.00  0.00    -0.233 N 
ATOM      8  C   UNL     1      -3.989  -5.490   2.070  0.00  0.00    +0.234 C 
ATOM      9  O   UNL     1      -4.264  -6.592   1.645  0.00  0.00    -0.274 OA
ATOM     10  H   UNL     1      -2.479  -4.234   2.524  0.00  0.00    +0.173 HD
BRANCH   8  11
ATOM     11  C   UNL     1      -5.088  -4.541   2.472  0.00  0.00    +0.099 C 
ATOM     12  C   UNL     1      -4.962  -4.203   3.967  0.00  0.00    +0.037 C 
ATOM     13  C   UNL     1      -6.249  -3.498   4.459  0.00  0.00    +0.166 C 
ATOM     14  S   UNL     1      -7.535  -4.174   3.332  0.00  0.00    -0.030 S 
ATOM     15  O   UNL     1      -8.083  -3.111   2.565  0.00  0.00    -0.174 OA
ATOM     16  O   UNL     1      -8.403  -5.020   4.075  0.00  0.00    -0.174 OA
ATOM     17  C   UNL     1      -6.472  -5.213   2.244  0.00  0.00    +0.178 C 
ENDBRANCH   8  11
ENDBRANCH   4   7
BRANCH   1  18
ATOM     18  C   UNL     1       1.320  -3.989   2.519  0.00  0.00    +0.055 C 
ATOM     19  C   UNL     1       1.879  -4.484   3.854  0.00  0.00    +0.026 C 
BRANCH  18  20
ATOM     20  C   UNL     1       1.413  -2.463   2.461  0.00  0.00    -0.057 C 
BRANCH  20  26
ATOM     21  C   UNL     1      -0.019   1.526   0.010  0.00  0.00    +0.005 C 
ATOM     22  C   UNL     1       0.002  -0.004   0.002  0.00  0.00    -0.031 C 
ATOM     23  C   UNL     1       0.721  -0.499  -1.257  0.00  0.00    -0.001 C 
ATOM     24  C   UNL     1       0.805  -2.027  -1.217  0.00  0.00    -0.018 C 
ATOM     25  C   UNL     1       1.518  -2.460   0.066  0.00  0.00    -0.079 C 
ATOM     26  N   UNL     1       0.768  -1.979   1.233  0.00  0.00    +0.381 N 
ATOM     27  C   UNL     1       0.744  -0.512   1.240  0.00  0.00    -0.076 C 
ATOM     28  H   UNL     1      -0.177  -2.330   1.192  0.00  0.00    -0.082 HD
ENDBRANCH  20  26
ENDBRANCH  18  20
ENDBRANCH   1  18
TORSDOF 5
