REMARK  Name = ZINC03270584
REMARK  20 active torsions:
REMARK  status: ('A' for Active; 'I' for Inactive)
REMARK    1  A    between atoms: C_1  and  C_2
REMARK    2  A    between atoms: C_2  and  C_3
REMARK    3  A    between atoms: C_3  and  C_4
REMARK    4  A    between atoms: C_3  and  C_5
REMARK    5  A    between atoms: C_3  and  C_6
REMARK    6  A    between atoms: C_9  and  O_17
REMARK    7  A    between atoms: C_10  and  C_12
REMARK    8  A    between atoms: C_12  and  C_13
REMARK    9  A    between atoms: C_12  and  C_14
REMARK   10  A    between atoms: C_12  and  C_15
REMARK   11  A    between atoms: C_15  and  C_16
REMARK   12  A    between atoms: O_17  and  C_18
REMARK   13  A    between atoms: C_18  and  C_19
REMARK   14  A    between atoms: C_19  and  C_20
REMARK   15  A    between atoms: C_20  and  C_21
REMARK   16  A    between atoms: N_23  and  N_24
REMARK   17  A    between atoms: C_25  and  C_26
REMARK   18  A    between atoms: C_29  and  O_34
REMARK   19  A    between atoms: C_30  and  O_33
REMARK   20  A    between atoms: C_31  and  O_32
REMARK                            x       y       z     vdW  Elec       q    Type
REMARK                         _______ _______ _______ _____ _____    ______ ____
ROOT
ATOM      1  C   UNL     1       3.735  -0.867  -0.038  0.00  0.00    +0.050 C 
ENDROOT
BRANCH   1   2
ATOM      2  C   UNL     1       2.313  -0.303  -0.022  0.00  0.00    +0.229 C 
BRANCH   2   3
ATOM      3  O   UNL     1       2.366   1.125  -0.015  0.00  0.00    -0.492 OA
BRANCH   3   7
ATOM      4  C   UNL     1      -1.237   3.133   0.030  0.00  0.00    -0.041 A 
ATOM      5  C   UNL     1      -1.218   1.751   0.017  0.00  0.00    +0.008 A 
ATOM      6  C   UNL     1      -0.013   1.076   0.008  0.00  0.00    +0.046 A 
ATOM      7  C   UNL     1       1.179   1.786   0.000  0.00  0.00    +0.124 A 
ATOM      8  C   UNL     1       1.157   3.173   0.008  0.00  0.00    +0.000 A 
ATOM      9  C   UNL     1      -0.051   3.844   0.022  0.00  0.00    +0.012 A 
BRANCH   4  10
ATOM     10  C   UNL     1      -2.553   3.867   0.046  0.00  0.00    -0.010 C 
ATOM     11  C   UNL     1      -2.636   4.739   1.300  0.00  0.00    +0.016 C 
ATOM     12  C   UNL     1      -2.659   4.752  -1.198  0.00  0.00    +0.016 C 
BRANCH  10  14
ATOM     13  C   UNL     1      -5.037   3.600   0.068  0.00  0.00    +0.005 C 
ATOM     14  C   UNL     1      -3.701   2.856   0.051  0.00  0.00    +0.007 C 
ENDBRANCH  10  14
ENDBRANCH   4  10
BRANCH   8  15
ATOM     15  C   UNL     1       2.449   3.948  -0.000  0.00  0.00    -0.007 C 
ATOM     16  C   UNL     1       3.247   3.598  -1.258  0.00  0.00    +0.016 C 
ATOM     17  C   UNL     1       2.145   5.448   0.010  0.00  0.00    +0.016 C 
BRANCH  15  18
ATOM     18  C   UNL     1       3.269   3.586   1.240  0.00  0.00    +0.008 C 
ATOM     19  C   UNL     1       4.581   4.372   1.232  0.00  0.00    +0.005 C 
ENDBRANCH  15  18
ENDBRANCH   8  15
ENDBRANCH   3   7
ENDBRANCH   2   3
ENDBRANCH   1   2
BRANCH   1  20
ATOM     20  C   UNL     1       3.678  -2.396  -0.046  0.00  0.00    +0.101 C 
BRANCH  20  21
ATOM     21  C   UNL     1       5.079  -2.950  -0.062  0.00  0.00    +0.232 C 
ATOM     22  O   UNL     1       6.030  -2.197  -0.067  0.00  0.00    -0.274 OA
ATOM     23  N   UNL     1       5.276  -4.284  -0.071  0.00  0.00    -0.207 N 
ATOM     24  H   UNL     1       4.515  -4.886  -0.067  0.00  0.00    +0.177 HD
BRANCH  23  25
ATOM     25  N   UNL     1       6.578  -4.800  -0.086  0.00  0.00    -0.188 NA
ATOM     26  C   UNL     1       6.768  -6.084  -0.095  0.00  0.00    +0.142 C 
BRANCH  26  27
ATOM     27  C   UNL     1       8.137  -6.627  -0.111  0.00  0.00    +0.040 A 
ATOM     28  C   UNL     1       8.344  -8.009  -0.120  0.00  0.00    +0.017 A 
ATOM     29  C   UNL     1       9.626  -8.514  -0.136  0.00  0.00    +0.050 A 
ATOM     30  C   UNL     1      10.717  -7.655  -0.143  0.00  0.00    +0.162 A 
ATOM     31  C   UNL     1      10.524  -6.278  -0.133  0.00  0.00    +0.201 A 
ATOM     32  C   UNL     1       9.237  -5.758  -0.123  0.00  0.00    +0.171 A 
BRANCH  32  33
ATOM     33  O   UNL     1       9.044  -4.413  -0.119  0.00  0.00    -0.503 OA
ATOM     34  H   UNL     1       8.999  -4.025   0.765  0.00  0.00    +0.292 HD
ENDBRANCH  32  33
BRANCH  31  35
ATOM     35  O   UNL     1      11.596  -5.440  -0.139  0.00  0.00    -0.501 OA
ATOM     36  H   UNL     1      11.897  -5.193  -1.024  0.00  0.00    +0.292 HD
ENDBRANCH  31  35
BRANCH  30  37
ATOM     37  O   UNL     1      11.978  -8.162  -0.159  0.00  0.00    -0.503 OA
ATOM     38  H   UNL     1      12.334  -8.303  -1.047  0.00  0.00    +0.292 HD
ENDBRANCH  30  37
ENDBRANCH  26  27
ENDBRANCH  23  25
ENDBRANCH  20  21
ENDBRANCH   1  20
TORSDOF 14
