REMARK  Name = ZINC59170676
REMARK  7 active torsions:
REMARK  status: ('A' for Active; 'I' for Inactive)
REMARK    1  A    between atoms: C_1  and  O_2
REMARK    2  A    between atoms: O_2  and  C_3
REMARK    3  A    between atoms: C_8  and  C_24
REMARK    4  A    between atoms: N_10  and  C_11
REMARK    5  A    between atoms: C_14  and  S_17
REMARK    6  A    between atoms: S_17  and  N_20
REMARK    7  A    between atoms: N_26  and  C_27
REMARK                            x       y       z     vdW  Elec       q    Type
REMARK                         _______ _______ _______ _____ _____    ______ ____
ROOT
ATOM      1  C   UNL     1      -0.886  -0.882   0.016  0.00  0.00    +0.124 A 
ATOM      2  C   UNL     1      -1.852  -0.270  -0.782  0.00  0.00    +0.046 A 
ATOM      3  C   UNL     1      -2.987  -0.940  -1.130  0.00  0.00    +0.015 A 
ATOM      4  C   UNL     1      -3.193  -2.251  -0.675  0.00  0.00    +0.018 A 
ATOM      5  C   UNL     1      -4.386  -2.945  -1.000  0.00  0.00    +0.030 A 
ATOM      6  C   UNL     1      -4.634  -4.155  -0.367  0.00  0.00    +0.098 A 
ATOM      7  C   UNL     1      -3.645  -4.615   0.627  0.00  0.00    +0.212 A 
ATOM      8  N   UNL     1      -3.987  -5.428   1.603  0.00  0.00    -0.325 N 
ATOM      9  O   UNL     1      -2.368  -4.170   0.498  0.00  0.00    -0.438 OA
ATOM     10  C   UNL     1      -2.205  -2.883   0.105  0.00  0.00    +0.141 A 
ATOM     11  C   UNL     1      -1.058  -2.187   0.451  0.00  0.00    +0.092 A 
ATOM     12  H   UNL     1      -4.920  -5.658   1.738  0.00  0.00    +0.169 HD
ENDROOT
BRANCH   8  13
ATOM     13  C   UNL     1      -3.029  -5.949   2.428  0.00  0.00    +0.042 A 
ATOM     14  C   UNL     1      -1.843  -6.457   1.893  0.00  0.00    +0.027 A 
ATOM     15  C   UNL     1      -0.880  -6.980   2.730  0.00  0.00    +0.030 A 
ATOM     16  C   UNL     1      -1.087  -7.003   4.098  0.00  0.00    +0.105 A 
ATOM     17  C   UNL     1      -2.260  -6.502   4.636  0.00  0.00    +0.030 A 
ATOM     18  C   UNL     1      -3.228  -5.969   3.811  0.00  0.00    +0.027 A 
BRANCH  16  19
ATOM     19  S   UNL     1       0.147  -7.675   5.161  0.00  0.00    +0.056 S 
ATOM     20  O   UNL     1      -0.517  -8.078   6.351  0.00  0.00    -0.153 OA
ATOM     21  O   UNL     1       0.914  -8.575   4.374  0.00  0.00    -0.153 OA
BRANCH  19  22
ATOM     22  N   UNL     1       1.159  -6.434   5.582  0.00  0.00    -0.204 NA
ATOM     23  H   UNL     1       1.610  -6.445   6.440  0.00  0.00    +0.144 HD
ATOM     24  H   UNL     1       1.301  -5.695   4.969  0.00  0.00    +0.144 HD
ENDBRANCH  19  22
ENDBRANCH  16  19
ENDBRANCH   8  13
BRANCH   6  25
ATOM     25  C   UNL     1      -5.835  -4.948  -0.675  0.00  0.00    +0.253 C 
ATOM     26  O   UNL     1      -6.704  -4.483  -1.388  0.00  0.00    -0.270 OA
ATOM     27  N   UNL     1      -5.972  -6.188  -0.166  0.00  0.00    -0.281 N 
ATOM     28  H   UNL     1      -5.316  -6.531   0.461  0.00  0.00    +0.155 HD
BRANCH  27  29
ATOM     29  C   UNL     1      -7.062  -6.982  -0.542  0.00  0.00    +0.034 A 
ATOM     30  C   UNL     1      -8.284  -6.391  -0.836  0.00  0.00    +0.026 A 
ATOM     31  C   UNL     1      -9.358  -7.176  -1.207  0.00  0.00    +0.040 A 
ATOM     32  C   UNL     1      -9.217  -8.552  -1.286  0.00  0.00    +0.124 A 
ATOM     33  C   UNL     1      -7.999  -9.143  -0.993  0.00  0.00    +0.040 A 
ATOM     34  C   UNL     1      -6.921  -8.361  -0.627  0.00  0.00    +0.026 A 
ATOM     35  F   UNL     1     -10.269  -9.318  -1.649  0.00  0.00    -0.205 F 
ENDBRANCH  27  29
ENDBRANCH   6  25
BRANCH   1  37
ATOM     36  C   UNL     1       0.349   1.143  -0.117  0.00  0.00    +0.277 C 
ATOM     37  O   UNL     1       0.233  -0.198   0.364  0.00  0.00    -0.495 OA
ENDBRANCH   1  37
TORSDOF 6
