REMARK  Name = ZINC04479367
REMARK  11 active torsions:
REMARK  status: ('A' for Active; 'I' for Inactive)
REMARK    1  A    between atoms: C_1  and  C_2
REMARK    2  A    between atoms: C_2  and  C_28
REMARK    3  A    between atoms: C_5  and  C_25
REMARK    4  A    between atoms: C_6  and  N_12
REMARK    5  A    between atoms: C_9  and  C_10
REMARK    6  A    between atoms: C_9  and  C_11
REMARK    7  A    between atoms: C_13  and  C_15
REMARK    8  A    between atoms: C_19  and  O_23
REMARK    9  A    between atoms: C_20  and  O_21
REMARK   10  A    between atoms: O_21  and  C_22
REMARK   11  A    between atoms: O_23  and  C_24
REMARK                            x       y       z     vdW  Elec       q    Type
REMARK                         _______ _______ _______ _____ _____    ______ ____
ROOT
ATOM      1  C   UNL     1      -0.013   1.086   0.008  0.00  0.00    -0.010 C 
ATOM      2  C   UNL     1      -0.729   1.579   1.268  0.00  0.00    -0.069 C 
ATOM      3  C   UNL     1      -2.139   0.981   1.314  0.00  0.00    +0.024 C 
ATOM      4  C   UNL     1      -2.975   1.644   0.230  0.00  0.00    -0.026 A 
ATOM      5  C   UNL     1      -4.117   1.046  -0.432  0.00  0.00    +0.068 A 
ATOM      6  C   UNL     1      -4.774   1.811  -1.389  0.00  0.00    +0.085 A 
ATOM      7  S   UNL     1      -3.878   3.293  -1.395  0.00  0.00    -0.079 S 
ATOM      8  C   UNL     1      -2.667   2.900  -0.165  0.00  0.00    -0.016 A 
ATOM      9  C   UNL     1      -1.544   3.747   0.341  0.00  0.00    -0.041 C 
ATOM     10  C   UNL     1      -2.150   5.001   1.002  0.00  0.00    -0.005 C 
ATOM     11  C   UNL     1      -0.674   4.208  -0.833  0.00  0.00    -0.005 C 
ATOM     12  C   UNL     1       0.048   1.047   2.488  0.00  0.00    -0.010 C 
ATOM     13  N   UNL     1      -0.718   3.061   1.374  0.00  0.00    +0.389 N 
ATOM     14  H   UNL     1       0.252   3.384   1.280  0.00  0.00    -0.084 HD
ATOM     15  H   UNL     1      -1.077   3.321   2.300  0.00  0.00    -0.084 HD
ENDROOT
BRANCH   5  16
ATOM     16  C   UNL     1      -4.572  -0.310  -0.111  0.00  0.00    +0.244 C 
ATOM     17  O   UNL     1      -5.397  -0.483   0.767  0.00  0.00    -0.270 OA
ATOM     18  N   UNL     1      -4.077  -1.365  -0.787  0.00  0.00    -0.325 N 
ATOM     19  H   UNL     1      -3.419  -1.227  -1.487  0.00  0.00    +0.145 HD
ATOM     20  H   UNL     1      -4.378  -2.263  -0.575  0.00  0.00    +0.145 HD
ENDBRANCH   5  16
BRANCH   6  21
ATOM     21  N   UNL     1      -5.878   1.468  -2.153  0.00  0.00    -0.275 N 
ATOM     22  C   UNL     1      -6.383   2.348  -3.040  0.00  0.00    +0.252 C 
ATOM     23  O   UNL     1      -5.870   3.443  -3.170  0.00  0.00    -0.270 OA
ATOM     24  H   UNL     1      -6.288   0.595  -2.050  0.00  0.00    +0.156 HD
BRANCH  22  25
ATOM     25  C   UNL     1      -7.558   1.984  -3.854  0.00  0.00    +0.082 A 
ATOM     26  C   UNL     1      -8.151   0.726  -3.707  0.00  0.00    +0.017 A 
ATOM     27  C   UNL     1      -9.249   0.389  -4.468  0.00  0.00    +0.005 A 
ATOM     28  C   UNL     1      -9.771   1.291  -5.381  0.00  0.00    +0.049 A 
ATOM     29  C   UNL     1      -9.195   2.541  -5.537  0.00  0.00    +0.162 A 
ATOM     30  C   UNL     1      -8.089   2.897  -4.772  0.00  0.00    +0.174 A 
BRANCH  30  31
ATOM     31  O   UNL     1      -7.525   4.123  -4.918  0.00  0.00    -0.491 OA
ATOM     32  C   UNL     1      -6.487   4.247  -5.892  0.00  0.00    +0.277 C 
ENDBRANCH  30  31
BRANCH  29  33
ATOM     33  O   UNL     1      -9.714   3.421  -6.435  0.00  0.00    -0.491 OA
ATOM     34  C   UNL     1     -10.853   2.990  -7.182  0.00  0.00    +0.277 C 
ENDBRANCH  29  33
ENDBRANCH  22  25
ENDBRANCH   6  21
TORSDOF 5
