REMARK  Name = ZINC63385752
REMARK  6 active torsions:
REMARK  status: ('A' for Active; 'I' for Inactive)
REMARK    1  A    between atoms: C_1  and  C_2
REMARK    2  A    between atoms: C_2  and  C_3
REMARK    3  A    between atoms: C_16  and  C_19
REMARK    4  A    between atoms: N_23  and  C_26
REMARK    5  A    between atoms: C_29  and  O_32
REMARK    6  A    between atoms: O_32  and  C_33
REMARK                            x       y       z     vdW  Elec       q    Type
REMARK                         _______ _______ _______ _____ _____    ______ ____
ROOT
ATOM      1  C   UNL     1      -0.184  -0.536  -0.975  0.00  0.00    -0.067 C 
ATOM      2  C   UNL     1      -0.512  -2.034  -0.829  0.00  0.00    +0.018 C 
ATOM      3  C   UNL     1       0.510  -2.594   0.128  0.00  0.00    -0.041 C 
ATOM      4  C   UNL     1       0.404  -3.353   1.209  0.00  0.00    -0.001 A 
ATOM      5  C   UNL     1      -0.743  -4.055   1.807  0.00  0.00    +0.010 A 
ATOM      6  C   UNL     1      -0.496  -4.734   2.958  0.00  0.00    +0.001 A 
ATOM      7  C   UNL     1       0.762  -4.784   3.568  0.00  0.00    +0.002 A 
ATOM      8  C   UNL     1       1.874  -4.178   3.082  0.00  0.00    +0.026 A 
ATOM      9  C   UNL     1       1.743  -3.442   1.869  0.00  0.00    +0.043 A 
ATOM     10  N   UNL     1       2.636  -2.798   1.175  0.00  0.00    -0.379 N 
ATOM     11  C   UNL     1       1.997  -2.293  -0.038  0.00  0.00    +0.097 C 
ATOM     12  C   UNL     1       2.108  -0.775  -0.187  0.00  0.00    -0.003 C 
ATOM     13  N   UNL     1       1.235  -0.358  -1.292  0.00  0.00    +0.387 N 
ATOM     14  H   UNL     1       1.459  -0.902  -2.111  0.00  0.00    -0.085 HD
ATOM     15  H   UNL     1       3.567  -2.675   1.420  0.00  0.00    +0.160 HD
ATOM     16  H   UNL     1       1.407   0.616  -1.490  0.00  0.00    -0.085 HD
ENDROOT
BRANCH  12  17
ATOM     17  C   UNL     1       1.669  -0.106   1.090  0.00  0.00    +0.070 A 
ATOM     18  C   UNL     1       1.108   1.136   1.062  0.00  0.00    +0.259 A 
ATOM     19  N   UNL     1       0.715   1.726   2.237  0.00  0.00    -0.274 N 
ATOM     20  C   UNL     1       0.880   1.087   3.409  0.00  0.00    +0.337 A 
ATOM     21  N   UNL     1       1.430  -0.140   3.458  0.00  0.00    -0.229 N 
ATOM     22  C   UNL     1       1.825  -0.758   2.326  0.00  0.00    +0.266 A 
ATOM     23  O   UNL     1       2.319  -1.871   2.375  0.00  0.00    -0.267 OA
ATOM     24  O   UNL     1       0.526   1.625   4.440  0.00  0.00    -0.246 OA
ATOM     25  O   UNL     1       0.942   1.782  -0.112  0.00  0.00    -0.267 OA
ATOM     26  H   UNL     1       0.317   2.610   2.222  0.00  0.00    +0.173 HD
BRANCH  21  27
ATOM     27  C   UNL     1       1.590  -0.784   4.694  0.00  0.00    +0.055 A 
ATOM     28  C   UNL     1       0.543  -1.519   5.234  0.00  0.00    +0.030 A 
ATOM     29  C   UNL     1       0.701  -2.153   6.450  0.00  0.00    +0.047 A 
ATOM     30  C   UNL     1       1.904  -2.055   7.133  0.00  0.00    +0.120 A 
ATOM     31  C   UNL     1       2.950  -1.320   6.594  0.00  0.00    +0.047 A 
ATOM     32  C   UNL     1       2.796  -0.690   5.375  0.00  0.00    +0.030 A 
BRANCH  30  33
ATOM     33  O   UNL     1       2.058  -2.678   8.332  0.00  0.00    -0.495 OA
ATOM     34  C   UNL     1       3.324  -2.534   8.980  0.00  0.00    +0.277 C 
ENDBRANCH  30  33
ENDBRANCH  21  27
ENDBRANCH  12  17
BRANCH   1  36
ATOM     35  C   UNL     1      -1.965  -0.069   0.714  0.00  0.00    +0.002 C 
ATOM     36  C   UNL     1      -0.503   0.182   0.338  0.00  0.00    -0.019 C 
ENDBRANCH   1  36
TORSDOF 4
