REMARK  Name = ZINC60042642
REMARK  7 active torsions:
REMARK  status: ('A' for Active; 'I' for Inactive)
REMARK    1  A    between atoms: C_4  and  C_7
REMARK    2  A    between atoms: C_7  and  C_29
REMARK    3  A    between atoms: N_10  and  C_14
REMARK    4  A    between atoms: C_14  and  C_15
REMARK    5  A    between atoms: C_15  and  C_17
REMARK    6  A    between atoms: C_15  and  O_28
REMARK    7  A    between atoms: C_17  and  N_18
REMARK                            x       y       z     vdW  Elec       q    Type
REMARK                         _______ _______ _______ _____ _____    ______ ____
ROOT
ATOM      1  C   UNL     1       3.711  -0.707  -0.038  0.00  0.00    +0.164 C 
ATOM      2  C   UNL     1       4.277  -0.758   1.368  0.00  0.00    +0.256 C 
ATOM      3  O   UNL     1       3.770  -1.270   2.343  0.00  0.00    -0.272 OA
ATOM      4  N   UNL     1       5.461  -0.117   1.307  0.00  0.00    -0.221 N 
ATOM      5  C   UNL     1       5.719   0.327   0.072  0.00  0.00    +0.310 C 
ATOM      6  O   UNL     1       6.727   0.934  -0.231  0.00  0.00    -0.252 OA
ATOM      7  N   UNL     1       4.739   0.025  -0.798  0.00  0.00    -0.278 N 
ATOM      8  H   UNL     1       4.713   0.246  -1.742  0.00  0.00    +0.152 HD
ENDROOT
BRANCH   1  12
ATOM      9  C   UNL     1       0.004   1.414  -0.091  0.00  0.00    +0.000 A 
ATOM     10  C   UNL     1       0.954   1.658  -1.065  0.00  0.00    +0.000 A 
ATOM     11  C   UNL     1       2.153   0.972  -1.048  0.00  0.00    +0.006 A 
ATOM     12  C   UNL     1       2.404   0.042  -0.056  0.00  0.00    -0.011 A 
ATOM     13  C   UNL     1       1.454  -0.201   0.919  0.00  0.00    +0.006 A 
ATOM     14  C   UNL     1       0.254   0.484   0.901  0.00  0.00    +0.000 A 
ENDBRANCH   1  12
BRANCH   1  15
ATOM     15  C   UNL     1       3.532  -2.097  -0.591  0.00  0.00    -0.011 A 
ATOM     16  C   UNL     1       4.301  -2.520  -1.659  0.00  0.00    +0.006 A 
ATOM     17  C   UNL     1       4.136  -3.796  -2.167  0.00  0.00    +0.000 A 
ATOM     18  C   UNL     1       3.204  -4.648  -1.607  0.00  0.00    +0.000 A 
ATOM     19  C   UNL     1       2.435  -4.225  -0.538  0.00  0.00    +0.000 A 
ATOM     20  C   UNL     1       2.603  -2.951  -0.027  0.00  0.00    +0.006 A 
ENDBRANCH   1  15
BRANCH   4  21
ATOM     21  C   UNL     1       6.355   0.071   2.453  0.00  0.00    +0.147 C 
BRANCH  21  22
ATOM     22  C   UNL     1       7.324  -1.110   2.542  0.00  0.00    +0.116 C 
BRANCH  22  23
ATOM     23  O   UNL     1       6.585  -2.321   2.708  0.00  0.00    -0.392 OA
ATOM     24  H   UNL     1       6.037  -2.342   3.504  0.00  0.00    +0.210 HD
ENDBRANCH  22  23
BRANCH  22  25
ATOM     25  C   UNL     1       8.257  -0.913   3.739  0.00  0.00    -0.045 C 
BRANCH  25  26
ATOM     26  N   UNL     1       9.264  -1.983   3.755  0.00  0.00    +0.384 N 
ATOM     27  C   UNL     1      10.094  -1.859   4.963  0.00  0.00    -0.074 C 
ATOM     28  C   UNL     1      10.920  -3.137   5.121  0.00  0.00    +0.017 C 
ATOM     29  C   UNL     1      11.632  -3.447   3.829  0.00  0.00    -0.048 A 
ATOM     30  C   UNL     1      12.687  -4.346   3.850  0.00  0.00    +0.004 A 
ATOM     31  C   UNL     1      13.361  -4.657   2.686  0.00  0.00    +0.000 A 
ATOM     32  C   UNL     1      12.981  -4.069   1.494  0.00  0.00    +0.000 A 
ATOM     33  C   UNL     1      11.932  -3.172   1.472  0.00  0.00    +0.002 A 
ATOM     34  C   UNL     1      11.255  -2.857   2.641  0.00  0.00    -0.061 A 
ATOM     35  C   UNL     1      10.122  -1.868   2.572  0.00  0.00    -0.043 C 
ATOM     36  H   UNL     1       8.803  -2.881   3.752  0.00  0.00    -0.081 HD
ENDBRANCH  25  26
ENDBRANCH  22  25
ENDBRANCH  21  22
ENDBRANCH   4  21
TORSDOF 7
