REMARK  Name = ZINC40774023
REMARK  12 active torsions:
REMARK  status: ('A' for Active; 'I' for Inactive)
REMARK    1  A    between atoms: C_1  and  C_2
REMARK    2  A    between atoms: C_2  and  C_3
REMARK    3  A    between atoms: C_3  and  C_5
REMARK    4  A    between atoms: C_3  and  N_13
REMARK    5  A    between atoms: C_10  and  O_11
REMARK    6  A    between atoms: N_13  and  CA_14
REMARK    7  A    between atoms: CA_14  and  CB_16
REMARK    8  A    between atoms: CA_14  and  C_20
REMARK    9  A    between atoms: CB_16  and  CG_17
REMARK   10  A    between atoms: CG_17  and  CD1_18
REMARK   11  A    between atoms: CG_17  and  CD2_19
REMARK   12  A    between atoms: C_20  and  O_21
REMARK                            x       y       z     vdW  Elec       q    Type
REMARK                         _______ _______ _______ _____ _____    ______ ____
ROOT
ATOM      1  C   UNK A   0       0.566  -0.297  -0.906  0.00  0.00    -0.037 C 
ENDROOT
BRANCH   1   2
ATOM      2  C   UNK A   0       0.432  -1.761  -0.573  0.00  0.00    -0.019 A 
ATOM      3  C   UNK A   0      -0.465  -2.549  -1.268  0.00  0.00    +0.020 A 
ATOM      4  C   UNK A   0      -0.589  -3.892  -0.962  0.00  0.00    +0.018 A 
ATOM      5  C   UNK A   0       0.187  -4.450   0.038  0.00  0.00    +0.019 A 
ATOM      6  C   UNK A   0       1.086  -3.666   0.735  0.00  0.00    +0.047 A 
ATOM      7  C   UNK A   0       1.215  -2.320   0.427  0.00  0.00    +0.119 A 
ATOM      8 BR   UNK A   0      -1.819  -4.968  -1.914  0.00  0.00    -0.050 Br
BRANCH   7   9
ATOM      9  O   UNK A   0       2.102  -1.548   1.108  0.00  0.00    -0.507 OA
ATOM     10  H   UNK A   0       1.736  -1.132   1.900  0.00  0.00    +0.292 HD
ENDBRANCH   7   9
ENDBRANCH   1   2
BRANCH   1  11
ATOM     11  N   LEU A   1       0.029  -0.050  -2.251  0.00  0.00    +0.387 N 
ATOM     12  H1  LEU A   1       0.478  -0.667  -2.911  0.00  0.00    -0.085 HD
ATOM     13  H2  LEU A   1      -0.965  -0.221  -2.253  0.00  0.00    -0.085 HD
BRANCH  11  14
ATOM     14  CA  LEU A   1       0.286   1.345  -2.632  0.00  0.00    -0.045 C 
BRANCH  14  15
ATOM     15  CB  LEU A   1      -0.402   1.645  -3.965  0.00  0.00    -0.011 C 
BRANCH  15  16
ATOM     16  CG  LEU A   1      -1.919   1.563  -3.785  0.00  0.00    -0.019 C 
ATOM     17  CD1 LEU A   1      -2.383   2.679  -2.847  0.00  0.00    +0.007 C 
ATOM     18  CD2 LEU A   1      -2.604   1.722  -5.144  0.00  0.00    +0.007 C 
ENDBRANCH  15  16
ENDBRANCH  14  15
BRANCH  14  19
ATOM     19  C   LEU A   1       1.794   1.565  -2.776  0.00  0.00    +0.140 C 
BRANCH  19  20
ATOM     20  O   LEU A   1       2.288   0.779  -3.862  0.00  0.00    -0.397 OA
ATOM     21  H   LEU A   1       3.239   0.870  -4.011  0.00  0.00    +0.209 HD
ENDBRANCH  19  20
ENDBRANCH  14  19
ENDBRANCH  11  14
ENDBRANCH   1  11
BRANCH   1  23
ATOM     22  C   UNK A   0      -1.689   0.122   0.084  0.00  0.00    +0.002 C 
ATOM     23  C   UNK A   0      -0.215   0.531   0.116  0.00  0.00    -0.014 C 
ENDBRANCH   1  23
TORSDOF 9
