REMARK  Name = ZINC12037541
REMARK  11 active torsions:
REMARK  status: ('A' for Active; 'I' for Inactive)
REMARK    1  A    between atoms: C_1  and  C_2
REMARK    2  A    between atoms: C_2  and  C_37
REMARK    3  A    between atoms: C_7  and  C_11
REMARK    4  A    between atoms: C_11  and  N_73
REMARK    5  A    between atoms: C_15  and  C_25
REMARK    6  A    between atoms: C_16  and  O_23
REMARK    7  A    between atoms: O_23  and  C_24
REMARK    8  A    between atoms: N_27  and  C_28
REMARK    9  A    between atoms: C_28  and  C_29
REMARK   10  A    between atoms: C_33  and  O_35
REMARK   11  A    between atoms: O_35  and  C_36
REMARK                            x       y       z     vdW  Elec       q    Type
REMARK                         _______ _______ _______ _____ _____    ______ ____
ROOT
ATOM      1  C   UNL     1      -7.092  -2.629   3.557  0.00  0.00    -0.072 C 
ATOM      2  C   UNL     1      -5.576  -2.716   3.393  0.00  0.00    +0.036 C 
ATOM      3  C   UNL     1      -4.875  -2.702   4.730  0.00  0.00    +0.036 A 
ATOM      4  C   UNL     1      -3.597  -2.163   4.758  0.00  0.00    +0.098 A 
ATOM      5  C   UNL     1      -2.848  -2.149   6.014  0.00  0.00    +0.139 A 
ATOM      6  C   UNL     1      -3.452  -2.691   7.130  0.00  0.00    +0.116 A 
ATOM      7  C   UNL     1      -4.741  -3.214   7.015  0.00  0.00    +0.255 A 
ATOM      8  O   UNL     1      -5.264  -3.715   7.997  0.00  0.00    -0.268 OA
ATOM      9  N   UNL     1      -5.429  -3.185   5.850  0.00  0.00    -0.313 N 
ATOM     10  C   UNL     1      -6.804  -3.691   5.893  0.00  0.00    +0.106 C 
ATOM     11  C   UNL     1      -7.053  -4.711   4.780  0.00  0.00    -0.056 C 
ATOM     12  N   UNL     1      -7.652  -3.993   3.640  0.00  0.00    +0.384 N 
ATOM     13  H   UNL     1      -8.667  -3.929   3.781  0.00  0.00    -0.081 HD
ENDROOT
BRANCH   4  14
ATOM     14  C   UNL     1      -2.997  -1.613   3.529  0.00  0.00    +0.250 C 
ATOM     15  O   UNL     1      -2.934  -0.409   3.369  0.00  0.00    -0.270 OA
ATOM     16  N   UNL     1      -2.518  -2.445   2.583  0.00  0.00    -0.307 N 
ATOM     17  H   UNL     1      -2.501  -3.402   2.742  0.00  0.00    +0.149 HD
BRANCH  16  18
ATOM     18  C   UNL     1      -2.022  -1.904   1.315  0.00  0.00    +0.140 C 
BRANCH  18  19
ATOM     19  C   UNL     1      -1.546  -3.034   0.439  0.00  0.00    -0.027 A 
ATOM     20  C   UNL     1      -2.426  -3.649  -0.433  0.00  0.00    +0.005 A 
ATOM     21  C   UNL     1      -1.991  -4.682  -1.243  0.00  0.00    +0.004 A 
ATOM     22  C   UNL     1      -0.677  -5.105  -1.179  0.00  0.00    +0.045 A 
ATOM     23  C   UNL     1       0.205  -4.494  -0.300  0.00  0.00    +0.120 A 
ATOM     24  C   UNL     1      -0.234  -3.458   0.511  0.00  0.00    +0.050 A 
BRANCH  23  25
ATOM     25  O   UNL     1       1.498  -4.908  -0.236  0.00  0.00    -0.495 OA
ATOM     26  C   UNL     1       1.880  -5.979  -1.101  0.00  0.00    +0.277 C 
ENDBRANCH  23  25
ENDBRANCH  18  19
ENDBRANCH  16  18
ENDBRANCH   4  14
BRANCH   5  27
ATOM     27  O   UNL     1      -1.605  -1.618   6.080  0.00  0.00    -0.494 OA
ATOM     28  C   UNL     1      -0.952  -1.651   7.351  0.00  0.00    +0.277 C 
ENDBRANCH   5  27
BRANCH  12  29
ATOM     29  C   UNL     1      -7.387  -4.727   2.384  0.00  0.00    -0.047 C 
BRANCH  29  35
ATOM     30  C   UNL     1      -8.756  -7.310  -0.040  0.00  0.00    +0.012 C 
ATOM     31  C   UNL     1      -9.964  -6.995   0.845  0.00  0.00    -0.025 C 
ATOM     32  C   UNL     1     -10.093  -7.913   2.073  0.00  0.00    -0.000 C 
ATOM     33  C   UNL     1      -8.733  -8.326   2.652  0.00  0.00    +0.031 C 
ATOM     34  C   UNL     1      -7.816  -7.128   2.703  0.00  0.00    -0.029 C 
ATOM     35  C   UNL     1      -8.267  -5.949   2.340  0.00  0.00    -0.086 C 
ATOM     36  C   UNL     1      -9.712  -5.865   1.879  0.00  0.00    +0.019 C 
ATOM     37  C   UNL     1     -10.643  -6.668   2.800  0.00  0.00    +0.012 C 
ATOM     38  C   UNL     1     -11.263  -6.832   0.054  0.00  0.00    +0.012 C 
ENDBRANCH  29  35
ENDBRANCH  12  29
TORSDOF 7
