REMARK  Name = ZINC45681637
REMARK  9 active torsions:
REMARK  status: ('A' for Active; 'I' for Inactive)
REMARK    1  A    between atoms: C_1  and  C_2
REMARK    2  A    between atoms: C_4  and  C_32
REMARK    3  A    between atoms: C_6  and  N_13
REMARK    4  A    between atoms: C_14  and  C_16
REMARK    5  A    between atoms: C_16  and  N_17
REMARK    6  A    between atoms: N_20  and  C_23
REMARK    7  A    between atoms: C_23  and  C_25
REMARK    8  A    between atoms: C_23  and  C_26
REMARK    9  A    between atoms: N_28  and  C_29
REMARK                            x       y       z     vdW  Elec       q    Type
REMARK                         _______ _______ _______ _____ _____    ______ ____
ROOT
ATOM      1  N   UNL     1      -4.361  -3.374   3.113  0.00  0.00    -0.255 N 
ATOM      2  C   UNL     1      -5.494  -3.771   2.499  0.00  0.00    +0.233 C 
ATOM      3  O   UNL     1      -6.214  -2.952   1.968  0.00  0.00    -0.274 OA
ATOM      4  H   UNL     1      -3.785  -4.029   3.538  0.00  0.00    +0.158 HD
ENDROOT
BRANCH   1  10
ATOM      5  C   UNL     1      -1.934   2.298   3.791  0.00  0.00    +0.068 C 
ATOM      6  C   UNL     1      -1.904   0.807   4.005  0.00  0.00    +0.070 A 
ATOM      7  C   UNL     1      -2.984  -0.035   3.481  0.00  0.00    +0.053 A 
ATOM      8  C   UNL     1      -4.125   0.157   2.786  0.00  0.00    +0.114 A 
ATOM      9  O   UNL     1      -4.726  -1.031   2.589  0.00  0.00    -0.445 OA
ATOM     10  C   UNL     1      -4.020  -2.033   3.136  0.00  0.00    +0.206 A 
ATOM     11  C   UNL     1      -2.900  -1.496   3.723  0.00  0.00    +0.110 A 
ATOM     12  C   UNL     1      -1.746  -1.992   4.466  0.00  0.00    +0.277 A 
ATOM     13  O   UNL     1      -1.620  -3.182   4.697  0.00  0.00    -0.266 OA
ATOM     14  N   UNL     1      -0.821  -1.107   4.893  0.00  0.00    -0.242 N 
ATOM     15  H   UNL     1      -0.054  -1.437   5.387  0.00  0.00    +0.192 HD
ATOM     16  N   UNL     1      -0.919   0.261   4.650  0.00  0.00    -0.175 NA
ATOM     17  C   UNL     1      -4.643   1.488   2.307  0.00  0.00    +0.087 C 
ENDBRANCH   1  10
BRANCH   2  18
ATOM     18  C   UNL     1      -5.865  -5.231   2.474  0.00  0.00    +0.180 C 
BRANCH  18  19
ATOM     19  N   UNL     1      -7.133  -5.401   1.752  0.00  0.00    -0.298 NA
ATOM     20  C   UNL     1      -6.980  -5.060   0.331  0.00  0.00    +0.066 C 
ATOM     21  C   UNL     1      -8.333  -5.193  -0.372  0.00  0.00    -0.062 C 
ATOM     22  N   UNL     1      -8.825  -6.570  -0.231  0.00  0.00    +0.389 N 
ATOM     23  C   UNL     1      -8.996  -6.887   1.192  0.00  0.00    -0.062 C 
ATOM     24  C   UNL     1      -7.649  -6.769   1.908  0.00  0.00    +0.066 C 
ATOM     25  H   UNL     1      -8.158  -7.208  -0.640  0.00  0.00    -0.081 HD
BRANCH  22  26
ATOM     26  C   UNL     1     -10.115  -6.701  -0.921  0.00  0.00    +0.016 C 
ATOM     27  C   UNL     1      -9.949  -6.310  -2.391  0.00  0.00    -0.004 C 
BRANCH  26  28
ATOM     28  C   UNL     1     -10.589  -8.129  -0.832  0.00  0.00    +0.199 C 
ATOM     29  O   UNL     1      -9.784  -9.029  -0.721  0.00  0.00    -0.278 OA
ATOM     30  N   UNL     1     -11.907  -8.405  -0.876  0.00  0.00    -0.314 N 
ATOM     31  H   UNL     1     -12.551  -7.685  -0.964  0.00  0.00    +0.149 HD
BRANCH  30  32
ATOM     32  C   UNL     1     -12.368  -9.793  -0.789  0.00  0.00    +0.073 C 
ATOM     33  C   UNL     1     -13.475 -10.231  -1.750  0.00  0.00    +0.024 C 
ATOM     34  C   UNL     1     -13.784 -10.036  -0.264  0.00  0.00    +0.024 C 
ENDBRANCH  30  32
ENDBRANCH  26  28
ENDBRANCH  22  26
ENDBRANCH  18  19
ENDBRANCH   2  18
TORSDOF 6
