REMARK  Name = ZINC27845402
REMARK  7 active torsions:
REMARK  status: ('A' for Active; 'I' for Inactive)
REMARK    1  A    between atoms: C_3  and  S_24
REMARK    2  A    between atoms: C_6  and  C_7
REMARK    3  A    between atoms: C_7  and  C_8
REMARK    4  A    between atoms: C_8  and  C_9
REMARK    5  A    between atoms: N_11  and  C_12
REMARK    6  A    between atoms: C_17  and  C_20
REMARK    7  A    between atoms: S_24  and  N_27
REMARK                            x       y       z     vdW  Elec       q    Type
REMARK                         _______ _______ _______ _____ _____    ______ ____
ROOT
ATOM      1  C   UNL     1       1.175  -2.217   2.897  0.00  0.00    +0.100 C 
ENDROOT
BRANCH   1   2
ATOM      2  C   UNL     1       0.446  -1.718   1.676  0.00  0.00    +0.214 C 
ATOM      3  O   UNL     1      -0.379  -2.421   1.132  0.00  0.00    -0.276 OA
ATOM      4  N   UNL     1       0.711  -0.489   1.189  0.00  0.00    -0.312 N 
ATOM      5  H   UNL     1       1.458   0.149   1.682  0.00  0.00    +0.149 HD
BRANCH   4   6
ATOM      6  C   UNL     1       0.002  -0.004   0.002  0.00  0.00    +0.073 C 
ATOM      7  C   UNL     1       0.718  -0.497  -1.257  0.00  0.00    +0.022 C 
ATOM      8  C   UNL     1       2.154   0.032  -1.268  0.00  0.00    +0.002 C 
ATOM      9  C   UNL     1       2.133   1.562  -1.259  0.00  0.00    +0.012 C 
ATOM     10  C   UNL     1       1.417   2.055  -0.000  0.00  0.00    +0.095 C 
ATOM     11  C   UNL     1      -0.019   1.526   0.010  0.00  0.00    +0.034 C 
BRANCH  10  12
ATOM     12  C   UNL     1       1.396   3.585   0.008  0.00  0.00    +0.393 C 
ATOM     13  F   UNL     1       0.741   4.036   1.159  0.00  0.00    -0.170 F 
ATOM     14  F   UNL     1       2.708   4.069  -0.002  0.00  0.00    -0.170 F 
ATOM     15  F   UNL     1       0.719   4.049  -1.125  0.00  0.00    -0.170 F 
ENDBRANCH  10  12
ENDBRANCH   4   6
ENDBRANCH   1   2
BRANCH   1  16
ATOM     16  C   UNL     1       0.692  -3.628   3.238  0.00  0.00    +0.044 C 
BRANCH  16  22
ATOM     17  C   UNL     1       2.607  -4.823   4.319  0.00  0.00    +0.005 A 
ATOM     18  C   UNL     1       3.278  -5.277   5.440  0.00  0.00    +0.029 A 
ATOM     19  C   UNL     1       2.757  -5.044   6.699  0.00  0.00    +0.105 A 
ATOM     20  C   UNL     1       1.569  -4.353   6.838  0.00  0.00    +0.029 A 
ATOM     21  C   UNL     1       0.900  -3.895   5.718  0.00  0.00    +0.005 A 
ATOM     22  C   UNL     1       1.421  -4.127   4.459  0.00  0.00    -0.047 A 
BRANCH  19  23
ATOM     23  S   UNL     1       3.610  -5.628   8.126  0.00  0.00    +0.056 S 
ATOM     24  O   UNL     1       4.974  -5.769   7.755  0.00  0.00    -0.153 OA
ATOM     25  O   UNL     1       3.196  -4.807   9.210  0.00  0.00    -0.153 OA
BRANCH  23  26
ATOM     26  N   UNL     1       3.046  -7.152   8.444  0.00  0.00    -0.204 NA
ATOM     27  H   UNL     1       3.555  -7.553   9.333  0.00  0.00    +0.144 HD
ATOM     28  H   UNL     1       3.244  -7.804   7.581  0.00  0.00    +0.144 HD
ENDBRANCH  23  26
ENDBRANCH  19  23
ENDBRANCH  16  22
ENDBRANCH   1  16
TORSDOF 7
