REMARK  Name = ZINC33488993
REMARK  13 active torsions:
REMARK  status: ('A' for Active; 'I' for Inactive)
REMARK    1  A    between atoms: C_4  and  N_7
REMARK    2  A    between atoms: N_7  and  C_8
REMARK    3  A    between atoms: N_7  and  S_20
REMARK    4  A    between atoms: C_8  and  C_9
REMARK    5  A    between atoms: C_9  and  C_10
REMARK    6  A    between atoms: C_10  and  N_11
REMARK    7  A    between atoms: C_12  and  C_14
REMARK    8  A    between atoms: C_14  and  C_15
REMARK    9  A    between atoms: C_15  and  C_16
REMARK   10  A    between atoms: C_16  and  C_17
REMARK   11  A    between atoms: C_17  and  C_18
REMARK   12  A    between atoms: C_18  and  N_19
REMARK   13  A    between atoms: S_20  and  C_23
REMARK                            x       y       z     vdW  Elec       q    Type
REMARK                         _______ _______ _______ _____ _____    ______ ____
ROOT
ATOM      1  N   UNL     1       3.620  -0.649  -0.037  0.00  0.00    -0.203 N 
ENDROOT
BRANCH   1   5
ATOM      2  C   UNL     1      -0.022   1.368   0.042  0.00  0.00    +0.000 A 
ATOM      3  C   UNL     1       1.011   1.840  -0.746  0.00  0.00    +0.002 A 
ATOM      4  C   UNL     1       2.220   1.173  -0.775  0.00  0.00    +0.025 A 
ATOM      5  C   UNL     1       2.398   0.028  -0.010  0.00  0.00    +0.051 A 
ATOM      6  C   UNL     1       1.358  -0.444   0.781  0.00  0.00    +0.025 A 
ATOM      7  C   UNL     1       0.151   0.227   0.805  0.00  0.00    +0.002 A 
ENDBRANCH   1   5
BRANCH   1   8
ATOM      8  S   UNL     1       3.682  -2.227  -0.537  0.00  0.00    +0.075 S 
ATOM      9  O   UNL     1       4.770  -2.828   0.150  0.00  0.00    -0.150 OA
ATOM     10  O   UNL     1       2.356  -2.731  -0.454  0.00  0.00    -0.150 OA
BRANCH   8  11
ATOM     11  C   UNL     1       4.110  -2.215  -2.246  0.00  0.00    +0.109 A 
ATOM     12  C   UNL     1       3.100  -2.169  -3.206  0.00  0.00    +0.029 A 
ATOM     13  C   UNL     1       3.397  -2.153  -4.534  0.00  0.00    +0.010 A 
ATOM     14  C   UNL     1       4.740  -2.195  -4.947  0.00  0.00    -0.018 A 
ATOM     15  C   UNL     1       5.085  -2.187  -6.310  0.00  0.00    +0.008 A 
ATOM     16  C   UNL     1       6.396  -2.229  -6.673  0.00  0.00    +0.001 A 
ATOM     17  C   UNL     1       7.405  -2.280  -5.713  0.00  0.00    +0.001 A 
ATOM     18  C   UNL     1       7.108  -2.290  -4.384  0.00  0.00    +0.008 A 
ATOM     19  C   UNL     1       5.766  -2.248  -3.971  0.00  0.00    -0.016 A 
ATOM     20  C   UNL     1       5.421  -2.256  -2.609  0.00  0.00    +0.037 A 
ENDBRANCH   8  11
ENDBRANCH   1   8
BRANCH   1  21
ATOM     21  C   UNL     1       4.846   0.037   0.378  0.00  0.00    +0.133 C 
BRANCH  21  22
ATOM     22  C   UNL     1       4.994  -0.058   1.898  0.00  0.00    +0.039 C 
BRANCH  22  23
ATOM     23  C   UNL     1       6.275   0.659   2.331  0.00  0.00    +0.106 C 
BRANCH  23  24
ATOM     24  N   UNL     1       6.417   0.569   3.786  0.00  0.00    -0.315 N 
ATOM     25  C   UNL     1       7.479   1.132   4.396  0.00  0.00    +0.213 C 
ATOM     26  O   UNL     1       8.317   1.714   3.740  0.00  0.00    -0.276 OA
ATOM     27  H   UNL     1       5.657   0.041   4.381  0.00  0.00    +0.149 HD
BRANCH  25  28
ATOM     28  C   UNL     1       7.624   1.039   5.893  0.00  0.00    +0.096 C 
BRANCH  28  29
ATOM     29  C   UNL     1       8.905   1.755   6.326  0.00  0.00    +0.009 C 
BRANCH  29  30
ATOM     30  C   UNL     1       9.053   1.661   7.846  0.00  0.00    -0.001 C 
BRANCH  30  31
ATOM     31  C   UNL     1      10.334   2.377   8.279  0.00  0.00    -0.020 C 
BRANCH  31  32
ATOM     32  C   UNL     1      10.482   2.283   9.799  0.00  0.00    -0.086 C 
BRANCH  32  33
ATOM     33  N   UNL     1      11.712   2.971  10.214  0.00  0.00    +0.378 N 
ATOM     34  H   UNL     1      11.819   2.903  11.307  0.00  0.00    -0.090 HD
ATOM     35  H   UNL     1      11.660   4.028   9.916  0.00  0.00    -0.090 HD
ATOM     36  H   UNL     1      12.579   2.496   9.731  0.00  0.00    -0.090 HD
ENDBRANCH  32  33
ENDBRANCH  31  32
ENDBRANCH  30  31
ENDBRANCH  29  30
ENDBRANCH  28  29
ENDBRANCH  25  28
ENDBRANCH  23  24
ENDBRANCH  22  23
ENDBRANCH  21  22
ENDBRANCH   1  21
TORSDOF 13
