REMARK  Name = ZINC00664089
REMARK  5 active torsions:
REMARK  status: ('A' for Active; 'I' for Inactive)
REMARK    1  A    between atoms: C_4  and  C_8
REMARK    2  A    between atoms: C_15  and  C_17
REMARK    3  A    between atoms: C_17  and  O_18
REMARK    4  A    between atoms: C_20  and  N_24
REMARK    5  A    between atoms: C_21  and  C_22
REMARK                            x       y       z     vdW  Elec       q    Type
REMARK                         _______ _______ _______ _____ _____    ______ ____
ROOT
ATOM      1  C   UNL     1       0.002  -0.004   0.002  0.00  0.00    +0.137 C 
ATOM      2  C   UNL     1      -0.018   1.505   0.010  0.00  0.00    +0.164 A 
ATOM      3  C   UNL     1       1.136   2.201   0.003  0.00  0.00    +0.215 A 
ATOM      4  C   UNL     1       1.087   3.625   0.009  0.00  0.00    +0.228 A 
ATOM      5  O   UNL     1       2.111   4.292   0.003  0.00  0.00    -0.284 OA
ATOM      6  C   UNL     1      -0.189   4.242   0.025  0.00  0.00    +0.098 A 
ATOM      7  C   UNL     1      -1.284   3.458   0.032  0.00  0.00    +0.134 A 
ATOM      8  O   UNL     1      -1.205   2.130   0.031  0.00  0.00    -0.457 OA
ATOM      9  O   UNL     1       2.342   1.583  -0.010  0.00  0.00    -0.434 OA
ATOM     10  C   UNL     1       2.443   0.300   0.380  0.00  0.00    +0.199 C 
ATOM     11  C   UNL     1       1.357  -0.511   0.409  0.00  0.00    +0.101 C 
ENDROOT
BRANCH   1  15
ATOM     12  C   UNL     1      -0.899  -1.409  -3.932  0.00  0.00    +0.003 A 
ATOM     13  C   UNL     1      -1.710  -1.762  -2.870  0.00  0.00    +0.020 A 
ATOM     14  C   UNL     1      -1.419  -1.307  -1.596  0.00  0.00    +0.047 A 
ATOM     15  C   UNL     1      -0.316  -0.499  -1.385  0.00  0.00    +0.005 A 
ATOM     16  C   UNL     1       0.492  -0.142  -2.450  0.00  0.00    +0.047 A 
ATOM     17  C   UNL     1       0.203  -0.602  -3.722  0.00  0.00    +0.020 A 
ATOM     18 CL   UNL     1       1.872   0.878  -2.188  0.00  0.00    -0.083 Cl
ATOM     19 CL   UNL     1      -2.437  -1.752  -0.262  0.00  0.00    -0.083 Cl
ENDBRANCH   1  15
BRANCH  10  20
ATOM     20  N   UNL     1       3.666  -0.196   0.758  0.00  0.00    -0.328 N 
ATOM     21  H   UNL     1       3.747  -1.120   1.041  0.00  0.00    +0.145 HD
ATOM     22  H   UNL     1       4.448   0.377   0.741  0.00  0.00    +0.145 HD
ENDBRANCH  10  20
BRANCH  11  23
ATOM     23  C   UNL     1       1.503  -1.871   0.832  0.00  0.00    +0.101 C 
ATOM     24  N   UNL     1       1.619  -2.950   1.168  0.00  0.00    -0.191 NA
ENDBRANCH  11  23
BRANCH   7  25
ATOM     25  C   UNL     1      -2.644   4.108   0.048  0.00  0.00    +0.230 C 
BRANCH  25  26
ATOM     26  O   UNL     1      -3.087   4.319  -1.295  0.00  0.00    -0.387 OA
ATOM     27  H   UNL     1      -3.957   4.734  -1.361  0.00  0.00    +0.210 HD
ENDBRANCH  25  26
ENDBRANCH   7  25
TORSDOF 5
