REMARK  Name = ZINC15133482
REMARK  8 active torsions:
REMARK  status: ('A' for Active; 'I' for Inactive)
REMARK    1  A    between atoms: C_1  and  C_2
REMARK    2  A    between atoms: C_2  and  O_3
REMARK    3  A    between atoms: O_3  and  C_4
REMARK    4  A    between atoms: C_4  and  C_6
REMARK    5  A    between atoms: C_6  and  C_31
REMARK    6  A    between atoms: C_11  and  C_28
REMARK    7  A    between atoms: C_14  and  C_25
REMARK    8  A    between atoms: C_16  and  C_18
REMARK                            x       y       z     vdW  Elec       q    Type
REMARK                         _______ _______ _______ _____ _____    ______ ____
ROOT
ATOM      1  C   UNL     1       2.039  -2.737   1.187  0.00  0.00    +0.184 C 
ATOM      2  C   UNL     1       2.473  -4.123   0.678  0.00  0.00    +0.128 C 
ATOM      3  C   UNL     1       3.832  -4.513   1.203  0.00  0.00    -0.002 C 
ATOM      4  C   UNL     1       4.642  -5.225   0.423  0.00  0.00    +0.012 C 
ATOM      5  C   UNL     1       4.230  -5.638  -0.935  0.00  0.00    +0.050 C 
ATOM      6  C   UNL     1       3.201  -4.974  -1.544  0.00  0.00    +0.084 C 
ATOM      7  N   UNL     1       2.592  -4.008  -0.790  0.00  0.00    -0.314 N 
ATOM      8  C   UNL     1       2.043  -2.724  -1.224  0.00  0.00    +0.169 C 
ATOM      9  C   UNL     1       1.228  -2.186  -0.020  0.00  0.00    +0.081 C 
ENDROOT
BRANCH   9  10
ATOM     10  C   UNL     1       1.208  -0.679  -0.013  0.00  0.00    -0.039 A 
ATOM     11  C   UNL     1       0.002  -0.004   0.002  0.00  0.00    +0.004 A 
ATOM     12  C   UNL     1      -0.017   1.378   0.010  0.00  0.00    +0.001 A 
ATOM     13  C   UNL     1       1.171   2.086   0.002  0.00  0.00    +0.014 A 
ATOM     14  C   UNL     1       2.378   1.411  -0.013  0.00  0.00    +0.014 A 
ATOM     15  C   UNL     1       2.396   0.028  -0.020  0.00  0.00    +0.018 A 
ATOM     16  I   UNL     1       4.178   2.482  -0.025  0.00  0.00    -0.044 I 
ENDBRANCH   9  10
BRANCH   8  17
ATOM     17  C   UNL     1       1.141  -2.917  -2.416  0.00  0.00    +0.232 C 
ATOM     18  O   UNL     1       0.729  -4.024  -2.691  0.00  0.00    -0.274 OA
ATOM     19  N   UNL     1       0.794  -1.860  -3.177  0.00  0.00    -0.328 N 
ATOM     20  H   UNL     1       1.125  -0.975  -2.958  0.00  0.00    +0.145 HD
ATOM     21  H   UNL     1       0.214  -1.985  -3.945  0.00  0.00    +0.145 HD
ENDBRANCH   8  17
BRANCH   5  22
ATOM     22  C   UNL     1       4.924  -6.732  -1.622  0.00  0.00    +0.243 C 
ATOM     23  O   UNL     1       4.577  -7.065  -2.740  0.00  0.00    -0.270 OA
ATOM     24  N   UNL     1       5.945  -7.369  -1.015  0.00  0.00    -0.325 N 
ATOM     25  H   UNL     1       6.221  -7.104  -0.124  0.00  0.00    +0.145 HD
ATOM     26  H   UNL     1       6.404  -8.093  -1.470  0.00  0.00    +0.145 HD
ENDBRANCH   5  22
BRANCH   1  27
ATOM     27  C   UNL     1       1.165  -2.862   2.408  0.00  0.00    +0.330 C 
ATOM     28  O   UNL     1      -0.001  -2.549   2.352  0.00  0.00    -0.249 OA
BRANCH  27  29
ATOM     29  O   UNL     1       1.681  -3.322   3.559  0.00  0.00    -0.464 OA
BRANCH  29  31
ATOM     30  C   UNL     1       1.543  -3.956   5.906  0.00  0.00    +0.048 C 
ATOM     31  C   UNL     1       0.781  -3.416   4.694  0.00  0.00    +0.229 C 
ENDBRANCH  29  31
ENDBRANCH  27  29
ENDBRANCH   1  27
BRANCH   1  32
ATOM     32  C   UNL     1       3.210  -1.889   1.463  0.00  0.00    +0.084 C 
ATOM     33  N   UNL     1       4.114  -1.235   1.676  0.00  0.00    -0.195 NA
ENDBRANCH   1  32
TORSDOF 7
