REMARK  Name = ZINC08873414
REMARK  12 active torsions:
REMARK  status: ('A' for Active; 'I' for Inactive)
REMARK    1  A    between atoms: C_1  and  O_2
REMARK    2  A    between atoms: O_2  and  C_3
REMARK    3  A    between atoms: C_6  and  C_11
REMARK    4  A    between atoms: C_8  and  O_9
REMARK    5  A    between atoms: O_9  and  C_10
REMARK    6  A    between atoms: C_12  and  S_13
REMARK    7  A    between atoms: S_13  and  N_16
REMARK    8  A    between atoms: N_16  and  C_17
REMARK    9  A    between atoms: C_17  and  C_18
REMARK   10  A    between atoms: C_18  and  N_19
REMARK   11  A    between atoms: N_19  and  C_20
REMARK   12  A    between atoms: C_23  and  C_25
REMARK                            x       y       z     vdW  Elec       q    Type
REMARK                         _______ _______ _______ _____ _____    ______ ____
ROOT
ATOM      1  N   UNL     1       3.682   1.487  -0.025  0.00  0.00    -0.189 NA
ATOM      2  H   UNL     1       3.682   2.433  -0.237  0.00  0.00    +0.148 HD
ENDROOT
BRANCH   1   3
ATOM      3  S   UNL     1       5.106   0.719   0.328  0.00  0.00    +0.052 S 
ATOM      4  O   UNL     1       6.133   1.693   0.212  0.00  0.00    -0.154 OA
ATOM      5  O   UNL     1       4.885  -0.017   1.524  0.00  0.00    -0.154 OA
BRANCH   3   7
ATOM      6  C   UNL     1       6.430  -0.331  -1.756  0.00  0.00    +0.028 C 
ATOM      7  C   UNL     1       5.389  -0.465  -0.946  0.00  0.00    +0.153 C 
BRANCH   6  11
ATOM      8  C   UNL     1       7.108  -3.191  -4.828  0.00  0.00    +0.162 A 
ATOM      9  C   UNL     1       6.020  -3.330  -3.979  0.00  0.00    +0.050 A 
ATOM     10  C   UNL     1       5.798  -2.404  -2.982  0.00  0.00    +0.012 A 
ATOM     11  C   UNL     1       6.668  -1.324  -2.824  0.00  0.00    -0.020 A 
ATOM     12  C   UNL     1       7.760  -1.181  -3.682  0.00  0.00    +0.057 A 
ATOM     13  C   UNL     1       7.981  -2.116  -4.676  0.00  0.00    +0.162 A 
BRANCH   8  15
ATOM     14  C   UNL     1       6.389  -5.182  -5.911  0.00  0.00    +0.277 C 
ATOM     15  O   UNL     1       7.323  -4.105  -5.811  0.00  0.00    -0.491 OA
ENDBRANCH   8  15
BRANCH  13  16
ATOM     16  O   UNL     1       9.047  -1.982  -5.510  0.00  0.00    -0.491 OA
ATOM     17  C   UNL     1       9.900  -0.856  -5.297  0.00  0.00    +0.277 C 
ENDBRANCH  13  16
ENDBRANCH   6  11
ENDBRANCH   3   7
ENDBRANCH   1   3
BRANCH   1  18
ATOM     18  C   UNL     1       2.424   0.737  -0.017  0.00  0.00    +0.124 C 
BRANCH  18  19
ATOM     19  C   UNL     1       1.248   1.716  -0.001  0.00  0.00    +0.119 C 
BRANCH  19  20
ATOM     20  N   UNL     1      -0.011   0.966   0.007  0.00  0.00    -0.328 N 
ATOM     21  H   UNL     1       0.002  -0.004   0.002  0.00  0.00    +0.147 HD
BRANCH  20  22
ATOM     22  C   UNL     1      -1.225   1.645   0.017  0.00  0.00    +0.115 A 
ATOM     23  C   UNL     1      -2.417   0.926   0.013  0.00  0.00    +0.079 A 
ATOM     24  C   UNL     1      -3.618   1.615   0.028  0.00  0.00    +0.037 A 
ATOM     25  C   UNL     1      -3.584   3.004   0.035  0.00  0.00    +0.072 A 
ATOM     26  C   UNL     1      -2.366   3.651   0.033  0.00  0.00    +0.096 A 
ATOM     27 CL   UNL     1      -2.399  -0.810  -0.004  0.00  0.00    -0.080 Cl
ATOM     28  N   UNL     1      -1.167   3.007   0.024  0.00  0.00    -0.348 N 
ATOM     29  H   UNL     1      -0.275   3.516   0.022  0.00  0.00    +0.167 HD
BRANCH  25  30
ATOM     30  C   UNL     1      -4.867   3.795   0.046  0.00  0.00    +0.419 C 
ATOM     31  F   UNL     1      -4.571   5.163   0.053  0.00  0.00    -0.166 F 
ATOM     32  F   UNL     1      -5.616   3.486  -1.094  0.00  0.00    -0.166 F 
ATOM     33  F   UNL     1      -5.604   3.473   1.190  0.00  0.00    -0.166 F 
ENDBRANCH  25  30
ENDBRANCH  20  22
ENDBRANCH  19  20
ENDBRANCH  18  19
ENDBRANCH   1  18
TORSDOF 10
