REMARK  Name = ZINC66246606
REMARK  10 active torsions:
REMARK  status: ('A' for Active; 'I' for Inactive)
REMARK    1  A    between atoms: C_1  and  C_2
REMARK    2  A    between atoms: C_5  and  C_8
REMARK    3  A    between atoms: C_10  and  C_13
REMARK    4  A    between atoms: C_13  and  C_14
REMARK    5  A    between atoms: C_14  and  N_15
REMARK    6  A    between atoms: N_18  and  C_19
REMARK    7  A    between atoms: C_19  and  C_20
REMARK    8  A    between atoms: C_20  and  C_21
REMARK    9  A    between atoms: C_24  and  O_27
REMARK   10  A    between atoms: O_27  and  C_28
REMARK                            x       y       z     vdW  Elec       q    Type
REMARK                         _______ _______ _______ _____ _____    ______ ____
ROOT
ATOM      1  N   UNL     1       1.292  -7.899   4.047  0.00  0.00    -0.357 N 
ATOM      2  C   UNL     1       2.265  -7.778   5.010  0.00  0.00    +0.169 C 
ATOM      3  N   UNL     1       3.177  -6.853   4.903  0.00  0.00    -0.371 N 
ATOM      4  N   UNL     1       2.277  -8.634   6.086  0.00  0.00    -0.357 N 
ATOM      5  H   UNL     1       0.613  -8.587   4.127  0.00  0.00    +0.162 HD
ATOM      6  H   UNL     1       3.864  -6.768   5.582  0.00  0.00    +0.159 HD
ATOM      7  H   UNL     1       1.599  -9.322   6.166  0.00  0.00    +0.162 HD
ATOM      8  H   UNL     1       3.169  -6.250   4.144  0.00  0.00    +0.159 HD
ENDROOT
BRANCH   1   9
ATOM      9  C   UNL     1       1.279  -6.987   2.900  0.00  0.00    +0.121 C 
BRANCH   9  10
ATOM     10  C   UNL     1       0.102  -7.334   1.986  0.00  0.00    +0.077 C 
BRANCH  10  13
ATOM     11  C   UNL     1       0.061  -4.251  -0.021  0.00  0.00    +0.109 A 
ATOM     12  N   UNL     1       0.072  -5.098   0.998  0.00  0.00    -0.244 NA
ATOM     13  C   UNL     1       0.089  -6.396   0.806  0.00  0.00    +0.051 A 
ATOM     14  C   UNL     1       0.097  -6.894  -0.459  0.00  0.00    +0.070 A 
ATOM     15  S   UNL     1       0.068  -5.379  -1.409  0.00  0.00    -0.075 S 
BRANCH  11  20
ATOM     16  C   UNL     1      -0.018   1.503   0.010  0.00  0.00    +0.044 C 
ATOM     17  C   UNL     1       0.002  -0.004   0.002  0.00  0.00    -0.050 A 
ATOM     18  C   UNL     1       0.006  -0.686  -1.202  0.00  0.00    +0.004 A 
ATOM     19  C   UNL     1       0.025  -2.066  -1.216  0.00  0.00    +0.011 A 
ATOM     20  C   UNL     1       0.041  -2.773  -0.013  0.00  0.00    +0.007 A 
ATOM     21  C   UNL     1       0.037  -2.079   1.197  0.00  0.00    +0.011 A 
ATOM     22  C   UNL     1       0.023  -0.699   1.198  0.00  0.00    +0.004 A 
ENDBRANCH  11  20
ENDBRANCH  10  13
ENDBRANCH   9  10
ENDBRANCH   1   9
BRANCH   4  23
ATOM     23  C   UNL     1       3.315  -8.505   7.112  0.00  0.00    +0.120 C 
BRANCH  23  24
ATOM     24  C   UNL     1       3.100  -9.570   8.190  0.00  0.00    +0.056 C 
BRANCH  24  25
ATOM     25  C   UNL     1       4.168  -9.438   9.246  0.00  0.00    -0.045 A 
ATOM     26  C   UNL     1       5.356 -10.132   9.116  0.00  0.00    +0.007 A 
ATOM     27  C   UNL     1       6.336 -10.013  10.083  0.00  0.00    +0.046 A 
ATOM     28  C   UNL     1       6.126  -9.196  11.184  0.00  0.00    +0.120 A 
ATOM     29  C   UNL     1       4.933  -8.501  11.312  0.00  0.00    +0.046 A 
ATOM     30  C   UNL     1       3.958  -8.619  10.340  0.00  0.00    +0.007 A 
BRANCH  28  31
ATOM     31  O   UNL     1       7.088  -9.078  12.137  0.00  0.00    -0.495 OA
ATOM     32  C   UNL     1       6.804  -8.220  13.243  0.00  0.00    +0.277 C 
ENDBRANCH  28  31
ENDBRANCH  24  25
ENDBRANCH  23  24
ENDBRANCH   4  23
TORSDOF 8
