REMARK  Name = ZINC67051520
REMARK  7 active torsions:
REMARK  status: ('A' for Active; 'I' for Inactive)
REMARK    1  A    between atoms: C_1  and  N_2
REMARK    2  A    between atoms: C_3  and  C_8
REMARK    3  A    between atoms: C_8  and  C_9
REMARK    4  A    between atoms: C_9  and  N_10
REMARK    5  A    between atoms: C_11  and  C_13
REMARK    6  A    between atoms: C_20  and  O_22
REMARK    7  A    between atoms: O_22  and  C_23
REMARK                            x       y       z     vdW  Elec       q    Type
REMARK                         _______ _______ _______ _____ _____    ______ ____
ROOT
ATOM      1  N   UNL     1      -0.451   6.521  -0.626  0.00  0.00    -0.315 N 
ATOM      2  C   UNL     1      -0.720   7.770  -1.055  0.00  0.00    +0.218 C 
ATOM      3  O   UNL     1      -1.333   7.937  -2.088  0.00  0.00    -0.275 OA
ATOM      4  H   UNL     1       0.039   6.387   0.200  0.00  0.00    +0.149 HD
ENDROOT
BRANCH   2   5
ATOM      5  C   UNL     1      -0.258   8.958  -0.252  0.00  0.00    +0.092 C 
ATOM      6  C   UNL     1      -0.687  10.248  -0.955  0.00  0.00    +0.016 C 
ATOM      7  C   UNL     1      -0.247  11.455  -0.124  0.00  0.00    +0.020 C 
ATOM      8  C   UNL     1       1.280  11.456  -0.001  0.00  0.00    +0.111 C 
ATOM      9  N   UNL     1       1.712  10.161   0.541  0.00  0.00    -0.267 N 
ATOM     10  C   UNL     1       1.269   8.931  -0.130  0.00  0.00    +0.123 C 
ATOM     11  C   UNL     1       2.500  10.101   1.633  0.00  0.00    +0.403 C 
ATOM     12  O   UNL     1       2.850   9.024   2.071  0.00  0.00    -0.226 OA
BRANCH  11  13
ATOM     13  O   UNL     1       2.898  11.236   2.238  0.00  0.00    -0.454 OA
ATOM     14  C   UNL     1       3.732  11.098   3.390  0.00  0.00    +0.282 C 
ENDBRANCH  11  13
ENDBRANCH   2   5
BRANCH   1  15
ATOM     15  C   UNL     1      -0.900   5.365  -1.407  0.00  0.00    +0.112 C 
BRANCH  15  16
ATOM     16  C   UNL     1      -0.469   4.076  -0.704  0.00  0.00    +0.095 C 
BRANCH  16  19
ATOM     17  C   UNL     1      -0.013   1.086   0.008  0.00  0.00    +0.152 C 
ATOM     18  N   UNL     1      -0.721   1.571  -1.179  0.00  0.00    -0.310 N 
ATOM     19  C   UNL     1      -0.931   2.888  -1.508  0.00  0.00    +0.133 A 
ATOM     20  N   UNL     1      -1.590   2.941  -2.620  0.00  0.00    -0.159 NA
ATOM     21  N   UNL     1      -1.829   1.628  -3.048  0.00  0.00    -0.254 N 
ATOM     22  C   UNL     1      -1.274   0.801  -2.138  0.00  0.00    +0.175 A 
ATOM     23  S   UNL     1      -1.274  -0.910  -2.189  0.00  0.00    -0.011 S 
ATOM     24  H   UNL     1      -2.303   1.363  -3.852  0.00  0.00    +0.191 HD
ENDBRANCH  16  19
ENDBRANCH  15  16
ENDBRANCH   1  15
TORSDOF 5
