REMARK  Name = ZINC41585535
REMARK  6 active torsions:
REMARK  status: ('A' for Active; 'I' for Inactive)
REMARK    1  A    between atoms: C_1  and  C_2
REMARK    2  A    between atoms: C_4  and  O_35
REMARK    3  A    between atoms: C_5  and  C_21
REMARK    4  A    between atoms: C_11  and  C_12
REMARK    5  A    between atoms: C_21  and  N_22
REMARK    6  A    between atoms: N_25  and  C_28
REMARK                            x       y       z     vdW  Elec       q    Type
REMARK                         _______ _______ _______ _____ _____    ______ ____
ROOT
ATOM      1  C   UNL     1       0.027   1.521   0.035  0.00  0.00    +0.045 C 
ATOM      2  C   UNL     1       0.037   0.014   0.017  0.00  0.00    -0.033 A 
ATOM      3  C   UNL     1       0.044  -0.656  -1.174  0.00  0.00    +0.050 A 
ATOM      4  C   UNL     1       0.053  -2.048  -1.193  0.00  0.00    +0.122 A 
ATOM      5  C   UNL     1       0.055  -2.769  -0.010  0.00  0.00    +0.020 A 
ATOM      6  C   UNL     1       0.049  -2.103   1.210  0.00  0.00    +0.145 A 
ATOM      7  C   UNL     1       0.045  -0.699   1.216  0.00  0.00    +0.071 A 
ATOM      8  C   UNL     1       0.045  -0.290   2.633  0.00  0.00    +0.232 C 
ATOM      9  O   UNL     1       0.039   0.843   3.082  0.00  0.00    -0.283 OA
ATOM     10  C   UNL     1       0.056  -1.556   3.382  0.00  0.00    +0.176 C 
ATOM     11  C   UNL     1       0.060  -1.688   4.732  0.00  0.00    +0.062 C 
ATOM     12  O   UNL     1       0.048  -2.565   2.479  0.00  0.00    -0.451 OA
ENDROOT
BRANCH  11  13
ATOM     13  C   UNL     1       0.070  -3.025   5.339  0.00  0.00    +0.032 A 
ATOM     14  C   UNL     1      -0.849  -3.997   4.920  0.00  0.00    +0.132 A 
ATOM     15  C   UNL     1      -0.830  -5.252   5.496  0.00  0.00    +0.039 A 
ATOM     16  C   UNL     1       0.091  -5.550   6.485  0.00  0.00    +0.004 A 
ATOM     17  C   UNL     1       1.001  -4.596   6.905  0.00  0.00    +0.021 A 
ATOM     18  C   UNL     1       1.002  -3.338   6.337  0.00  0.00    +0.051 A 
ATOM     19 CL   UNL     1       2.151  -2.147   6.862  0.00  0.00    -0.083 Cl
ATOM     20  F   UNL     1      -1.749  -3.708   3.955  0.00  0.00    -0.205 F 
ENDBRANCH  11  13
BRANCH   4  21
ATOM     21  O   UNL     1       0.060  -2.704  -2.381  0.00  0.00    -0.506 OA
ATOM     22  H   UNL     1       0.945  -2.889  -2.724  0.00  0.00    +0.292 HD
ENDBRANCH   4  21
BRANCH   5  23
ATOM     23  C   UNL     1       0.065  -4.276  -0.045  0.00  0.00    -0.035 C 
BRANCH  23  24
ATOM     24  N   UNL     1       1.453  -4.757  -0.054  0.00  0.00    +0.385 N 
ATOM     25  C   UNL     1       2.111  -4.324  -1.294  0.00  0.00    -0.059 C 
ATOM     26  C   UNL     1       3.589  -4.726  -1.253  0.00  0.00    +0.086 C 
ATOM     27  N   UNL     1       3.672  -6.172  -0.994  0.00  0.00    -0.333 N 
ATOM     28  C   UNL     1       2.907  -6.718   0.138  0.00  0.00    +0.086 C 
ATOM     29  C   UNL     1       1.461  -6.223   0.031  0.00  0.00    -0.059 C 
ATOM     30  H   UNL     1       1.946  -4.372   0.737  0.00  0.00    -0.081 HD
BRANCH  27  31
ATOM     31  C   UNL     1       4.456  -7.003  -1.800  0.00  0.00    +0.030 A 
ATOM     32  C   UNL     1       5.081  -6.489  -2.929  0.00  0.00    +0.026 A 
ATOM     33  C   UNL     1       5.856  -7.311  -3.723  0.00  0.00    +0.040 A 
ATOM     34  C   UNL     1       6.009  -8.648  -3.395  0.00  0.00    +0.124 A 
ATOM     35  C   UNL     1       5.387  -9.162  -2.270  0.00  0.00    +0.040 A 
ATOM     36  C   UNL     1       4.616  -8.342  -1.470  0.00  0.00    +0.026 A 
ATOM     37  F   UNL     1       6.767  -9.450  -4.174  0.00  0.00    -0.205 F 
ENDBRANCH  27  31
ENDBRANCH  23  24
ENDBRANCH   5  23
TORSDOF 5
