REMARK  Name = ZINC09952462
REMARK  9 active torsions:
REMARK  status: ('A' for Active; 'I' for Inactive)
REMARK    1  A    between atoms: C_1  and  O_2
REMARK    2  A    between atoms: O_2  and  C_3
REMARK    3  A    between atoms: C_6  and  O_29
REMARK    4  A    between atoms: C_7  and  C_9
REMARK    5  A    between atoms: C_14  and  C_15
REMARK    6  A    between atoms: C_14  and  N_57
REMARK    7  A    between atoms: N_17  and  C_18
REMARK    8  A    between atoms: C_19  and  C_26
REMARK    9  A    between atoms: O_29  and  C_30
REMARK                            x       y       z     vdW  Elec       q    Type
REMARK                         _______ _______ _______ _____ _____    ______ ____
ROOT
ATOM      1  C   UNL     1      -1.598   0.584   1.779  0.00  0.00    +0.020 C 
ENDROOT
BRANCH   1   6
ATOM      2  C   UNL     1      -0.013   1.086   0.008  0.00  0.00    -0.033 C 
ATOM      3  C   UNL     1       1.428   1.630  -0.003  0.00  0.00    -0.012 C 
ATOM      4  C   UNL     1       1.569   2.424   1.316  0.00  0.00    -0.020 C 
ATOM      5  C   UNL     1       0.457   1.816   2.207  0.00  0.00    -0.077 C 
ATOM      6  N   UNL     1      -0.627   1.582   1.240  0.00  0.00    +0.390 N 
ATOM      7  H   UNL     1      -1.119   2.463   1.052  0.00  0.00    -0.080 HD
BRANCH   2  12
ATOM      8  C   UNL     1      -2.209   3.217  -2.209  0.00  0.00    +0.121 A 
ATOM      9  C   UNL     1      -2.142   2.528  -3.411  0.00  0.00    +0.049 A 
ATOM     10  C   UNL     1      -1.388   1.375  -3.505  0.00  0.00    +0.049 A 
ATOM     11  C   UNL     1      -0.697   0.906  -2.397  0.00  0.00    +0.122 A 
ATOM     12  C   UNL     1      -0.763   1.595  -1.195  0.00  0.00    -0.016 A 
ATOM     13  C   UNL     1      -1.522   2.746  -1.100  0.00  0.00    +0.051 A 
BRANCH   8  15
ATOM     14  C   UNL     1      -3.637   4.777  -3.296  0.00  0.00    +0.277 C 
ATOM     15  O   UNL     1      -2.952   4.353  -2.116  0.00  0.00    -0.495 OA
ENDBRANCH   8  15
BRANCH  11  16
ATOM     16  O   UNL     1       0.046  -0.229  -2.489  0.00  0.00    -0.495 OA
ATOM     17  C   UNL     1       0.069  -0.888  -3.757  0.00  0.00    +0.277 C 
ENDBRANCH  11  16
ENDBRANCH   2  12
ENDBRANCH   1   6
BRANCH   1  18
ATOM     18  C   UNL     1      -2.042   1.000   3.157  0.00  0.00    +0.201 C 
ATOM     19  O   UNL     1      -1.613   2.022   3.650  0.00  0.00    -0.278 OA
ATOM     20  N   UNL     1      -2.917   0.238   3.843  0.00  0.00    -0.281 N 
ATOM     21  H   UNL     1      -3.261  -0.579   3.449  0.00  0.00    +0.155 HD
BRANCH  20  22
ATOM     22  C   UNL     1      -3.326   0.621   5.111  0.00  0.00    +0.084 A 
ATOM     23  C   UNL     1      -4.212  -0.020   5.960  0.00  0.00    +0.068 A 
ATOM     24  C   UNL     1      -4.473   0.599   7.259  0.00  0.00    -0.023 A 
ATOM     25  C   UNL     1      -3.815   1.750   7.486  0.00  0.00    -0.004 A 
ATOM     26  S   UNL     1      -2.858   2.021   6.015  0.00  0.00    -0.077 S 
ATOM     27  C   UNL     1      -4.136   2.326   8.839  0.00  0.00    +0.043 C 
ATOM     28  C   UNL     1      -4.764   1.152   9.622  0.00  0.00    +0.010 C 
ATOM     29  C   UNL     1      -5.333   0.283   8.483  0.00  0.00    +0.037 C 
BRANCH  23  30
ATOM     30  C   UNL     1      -4.862  -1.275   5.572  0.00  0.00    +0.244 C 
ATOM     31  O   UNL     1      -4.335  -2.340   5.834  0.00  0.00    -0.270 OA
ATOM     32  N   UNL     1      -6.045  -1.250   4.925  0.00  0.00    -0.325 N 
ATOM     33  H   UNL     1      -6.465  -0.401   4.717  0.00  0.00    +0.145 HD
ATOM     34  H   UNL     1      -6.475  -2.081   4.669  0.00  0.00    +0.145 HD
ENDBRANCH  23  30
ENDBRANCH  20  22
ENDBRANCH   1  18
TORSDOF 7
