REMARK  Name = ZINC06443648
REMARK  6 active torsions:
REMARK  status: ('A' for Active; 'I' for Inactive)
REMARK    1  A    between atoms: C_1  and  C_2
REMARK    2  A    between atoms: C_12  and  C_14
REMARK    3  A    between atoms: C_14  and  C_16
REMARK    4  A    between atoms: C_14  and  N_69
REMARK    5  A    between atoms: N_20  and  C_21
REMARK    6  A    between atoms: N_29  and  C_32
REMARK                            x       y       z     vdW  Elec       q    Type
REMARK                         _______ _______ _______ _____ _____    ______ ____
ROOT
ATOM      1  C   UNL     1       0.086  -2.865   4.922  0.00  0.00    +0.039 C 
ENDROOT
BRANCH   1  13
ATOM      2  C   UNL     1      -0.375   1.103  -0.298  0.00  0.00    +0.046 C 
ATOM      3  C   UNL     1      -0.343  -0.399  -0.190  0.00  0.00    -0.026 A 
ATOM      4  C   UNL     1      -0.424  -1.177  -1.326  0.00  0.00    +0.005 A 
ATOM      5  C   UNL     1      -0.389  -2.561  -1.240  0.00  0.00    +0.001 A 
ATOM      6  C   UNL     1      -0.287  -3.181  -0.027  0.00  0.00    +0.010 A 
ATOM      7  C   UNL     1      -0.210  -2.413   1.139  0.00  0.00    -0.001 A 
ATOM      8  C   UNL     1      -0.238  -1.007   1.056  0.00  0.00    +0.052 A 
ATOM      9  N   UNL     1      -0.162  -0.255   2.209  0.00  0.00    -0.322 N 
ATOM     10  H   UNL     1      -0.181   0.713   2.150  0.00  0.00    +0.169 HD
ATOM     11  C   UNL     1      -0.061  -0.843   3.413  0.00  0.00    +0.251 A 
ATOM     12  O   UNL     1       0.004  -0.146   4.412  0.00  0.00    -0.268 OA
ATOM     13  C   UNL     1      -0.028  -2.247   3.552  0.00  0.00    +0.011 A 
ATOM     14  C   UNL     1      -0.099  -3.043   2.456  0.00  0.00    +0.017 A 
ENDBRANCH   1  13
BRANCH   1  20
ATOM     15  C   UNL     1      -0.854  -2.863   7.154  0.00  0.00    -0.058 C 
ATOM     16  C   UNL     1      -1.925  -2.226   8.042  0.00  0.00    +0.086 C 
ATOM     17  N   UNL     1      -3.254  -2.513   7.484  0.00  0.00    -0.333 N 
ATOM     18  C   UNL     1      -3.374  -1.982   6.119  0.00  0.00    +0.086 C 
ATOM     19  C   UNL     1      -2.303  -2.620   5.230  0.00  0.00    -0.058 C 
ATOM     20  N   UNL     1      -0.972  -2.305   5.790  0.00  0.00    +0.391 N 
ATOM     21  H   UNL     1      -0.861  -1.286   5.836  0.00  0.00    -0.080 HD
BRANCH  17  22
ATOM     22  C   UNL     1      -4.263  -2.007   8.309  0.00  0.00    +0.030 A 
ATOM     23  C   UNL     1      -5.201  -1.119   7.796  0.00  0.00    +0.026 A 
ATOM     24  C   UNL     1      -6.200  -0.625   8.612  0.00  0.00    +0.040 A 
ATOM     25  C   UNL     1      -6.261  -1.005   9.942  0.00  0.00    +0.124 A 
ATOM     26  C   UNL     1      -5.324  -1.885  10.456  0.00  0.00    +0.040 A 
ATOM     27  C   UNL     1      -4.327  -2.387   9.643  0.00  0.00    +0.026 A 
ATOM     28  F   UNL     1      -7.236  -0.516  10.739  0.00  0.00    -0.205 F 
ENDBRANCH  17  22
ENDBRANCH   1  20
BRANCH   1  29
ATOM     29  C   UNL     1       1.432  -2.531   5.512  0.00  0.00    +0.143 A 
ATOM     30  N   UNL     1       1.805  -1.376   6.007  0.00  0.00    -0.115 NA
ATOM     31  N   UNL     1       3.023  -1.491   6.412  0.00  0.00    -0.023 NA
ATOM     32  N   UNL     1       3.436  -2.689   6.189  0.00  0.00    -0.044 NA
ATOM     33  N   UNL     1       2.482  -3.363   5.640  0.00  0.00    -0.227 N 
BRANCH  33  34
ATOM     34  C   UNL     1       2.534  -4.768   5.229  0.00  0.00    +0.111 C 
ATOM     35  C   UNL     1       2.823  -5.646   6.449  0.00  0.00    +0.027 C 
ATOM     36  C   UNL     1       2.877  -7.113   6.020  0.00  0.00    +0.002 C 
ATOM     37  C   UNL     1       3.986  -7.301   4.982  0.00  0.00    +0.000 C 
ATOM     38  C   UNL     1       3.697  -6.423   3.763  0.00  0.00    +0.002 C 
ATOM     39  C   UNL     1       3.643  -4.956   4.192  0.00  0.00    +0.027 C 
ENDBRANCH  33  34
ENDBRANCH   1  29
TORSDOF 5
