REMARK  Name = ZINC48853483
REMARK  8 active torsions:
REMARK  status: ('A' for Active; 'I' for Inactive)
REMARK    1  A    between atoms: C_1  and  C_2
REMARK    2  A    between atoms: C_6  and  N_9
REMARK    3  A    between atoms: C_7  and  C_8
REMARK    4  A    between atoms: C_10  and  C_12
REMARK    5  A    between atoms: N_14  and  C_15
REMARK    6  A    between atoms: C_15  and  C_16
REMARK    7  A    between atoms: C_16  and  C_18
REMARK    8  A    between atoms: C_16  and  N_23
REMARK                            x       y       z     vdW  Elec       q    Type
REMARK                         _______ _______ _______ _____ _____    ______ ____
ROOT
ATOM      1  C   UNL     1      -0.283  -4.891   3.663  0.00  0.00    +0.299 C 
ATOM      2  O   UNL     1      -0.230  -4.287   4.714  0.00  0.00    -0.265 OA
ATOM      3  N   UNL     1      -0.335  -6.238   3.662  0.00  0.00    -0.309 N 
ATOM      4  H   UNL     1      -0.377  -6.721   2.822  0.00  0.00    +0.149 HD
ENDROOT
BRANCH   1   6
ATOM      5  N   UNL     1      -0.242  -2.796   2.371  0.00  0.00    -0.278 N 
ATOM      6  C   UNL     1      -0.293  -4.143   2.370  0.00  0.00    +0.303 C 
ATOM      7  O   UNL     1      -0.346  -4.747   1.319  0.00  0.00    -0.265 OA
ATOM      8  H   UNL     1      -0.120  -2.316   3.205  0.00  0.00    +0.155 HD
BRANCH   5  14
ATOM      9  C   UNL     1       0.627   1.266  -0.257  0.00  0.00    +0.044 C 
ATOM     10  C   UNL     1       0.048  -0.120  -0.131  0.00  0.00    -0.046 A 
ATOM     11  C   UNL     1      -0.605  -0.695  -1.206  0.00  0.00    +0.004 A 
ATOM     12  C   UNL     1      -1.137  -1.967  -1.095  0.00  0.00    +0.002 A 
ATOM     13  C   UNL     1      -1.019  -2.666   0.089  0.00  0.00    +0.023 A 
ATOM     14  C   UNL     1      -0.363  -2.091   1.171  0.00  0.00    +0.037 A 
ATOM     15  C   UNL     1       0.176  -0.816   1.054  0.00  0.00    -0.026 A 
ATOM     16  C   UNL     1       0.893  -0.190   2.223  0.00  0.00    +0.046 C 
ENDBRANCH   5  14
ENDBRANCH   1   6
BRANCH   3  17
ATOM     17  C   UNL     1      -0.326  -6.972   4.929  0.00  0.00    +0.094 C 
BRANCH  17  18
ATOM     18  C   UNL     1      -0.266  -8.475   4.648  0.00  0.00    -0.013 C 
BRANCH  18  19
ATOM     19  N   UNL     1      -0.120  -9.205   5.914  0.00  0.00    +0.386 N 
ATOM     20  C   UNL     1       0.132 -10.645   5.649  0.00  0.00    -0.078 C 
ATOM     21  C   UNL     1       0.802 -11.134   6.958  0.00  0.00    -0.020 C 
ATOM     22  C   UNL     1       1.689  -9.933   7.362  0.00  0.00    -0.020 C 
ATOM     23  C   UNL     1       1.067  -8.717   6.650  0.00  0.00    -0.078 C 
ATOM     24  H   UNL     1      -0.949  -9.094   6.478  0.00  0.00    -0.081 HD
ENDBRANCH  18  19
BRANCH  18  25
ATOM     25  C   UNL     1      -1.536  -8.908   3.962  0.00  0.00    -0.022 A 
ATOM     26  C   UNL     1      -1.758  -9.141   2.645  0.00  0.00    +0.009 A 
ATOM     27  C   UNL     1      -3.018  -9.536   2.238  0.00  0.00    +0.008 A 
ATOM     28  C   UNL     1      -3.995  -9.679   3.167  0.00  0.00    +0.045 A 
ATOM     29  S   UNL     1      -3.136  -9.256   4.673  0.00  0.00    -0.103 S 
ENDBRANCH  18  25
ENDBRANCH  17  18
ENDBRANCH   3  17
TORSDOF 6
