REMARK  Name = ZINC63295830
REMARK  8 active torsions:
REMARK  status: ('A' for Active; 'I' for Inactive)
REMARK    1  A    between atoms: C_1  and  C_2
REMARK    2  A    between atoms: C_2  and  O_3
REMARK    3  A    between atoms: O_3  and  C_4
REMARK    4  A    between atoms: C_7  and  N_10
REMARK    5  A    between atoms: C_11  and  C_13
REMARK    6  A    between atoms: C_13  and  C_14
REMARK    7  A    between atoms: C_14  and  C_15
REMARK    8  A    between atoms: C_15  and  N_16
REMARK                            x       y       z     vdW  Elec       q    Type
REMARK                         _______ _______ _______ _____ _____    ______ ____
ROOT
ATOM      1  N   UNL     1       3.937 -10.082   5.392  0.00  0.00    -0.299 N 
ATOM      2  C   UNL     1       4.262 -11.358   5.681  0.00  0.00    +0.302 C 
ATOM      3  O   UNL     1       3.962 -12.251   4.912  0.00  0.00    -0.253 OA
ATOM      4  N   UNL     1       4.919 -11.644   6.822  0.00  0.00    -0.283 N 
ATOM      5  C   UNL     1       5.374 -10.553   7.690  0.00  0.00    +0.114 C 
ATOM      6  C   UNL     1       6.898 -10.654   7.885  0.00  0.00    +0.052 C 
ATOM      7  C   UNL     1       7.202 -12.102   8.177  0.00  0.00    -0.035 C 
ATOM      8  C   UNL     1       7.886 -12.675   9.159  0.00  0.00    +0.001 A 
ATOM      9  C   UNL     1       8.688 -12.106  10.255  0.00  0.00    +0.030 A 
ATOM     10  C   UNL     1       9.249 -13.000  11.113  0.00  0.00    +0.042 A 
ATOM     11  C   UNL     1       9.095 -14.385  10.992  0.00  0.00    +0.022 A 
ATOM     12  C   UNL     1       8.382 -14.994  10.010  0.00  0.00    +0.027 A 
ATOM     13  C   UNL     1       7.752 -14.159   9.043  0.00  0.00    +0.043 A 
ATOM     14  N   UNL     1       7.040 -14.470   8.000  0.00  0.00    -0.376 N 
ATOM     15  C   UNL     1       6.689 -13.236   7.296  0.00  0.00    +0.124 C 
ATOM     16  C   UNL     1       5.167 -13.048   7.187  0.00  0.00    +0.138 C 
ATOM     17 CL   UNL     1      10.207 -12.390  12.426  0.00  0.00    -0.084 Cl
ATOM     18  H   UNL     1       4.238  -9.363   5.968  0.00  0.00    +0.150 HD
ATOM     19  H   UNL     1       6.784 -15.367   7.734  0.00  0.00    +0.160 HD
ENDROOT
BRANCH   1  20
ATOM     20  C   UNL     1       3.128  -9.783   4.208  0.00  0.00    +0.106 C 
BRANCH  20  21
ATOM     21  C   UNL     1       2.905  -8.272   4.111  0.00  0.00    +0.028 C 
BRANCH  21  22
ATOM     22  C   UNL     1       2.060  -7.960   2.875  0.00  0.00    +0.097 C 
BRANCH  22  24
ATOM     23  N   UNL     1       1.118  -5.961   1.763  0.00  0.00    -0.285 N 
ATOM     24  C   UNL     1       1.840  -6.472   2.780  0.00  0.00    +0.217 C 
ATOM     25  O   UNL     1       2.312  -5.734   3.619  0.00  0.00    -0.275 OA
ATOM     26  H   UNL     1       0.679  -6.554   1.134  0.00  0.00    +0.155 HD
BRANCH  23  30
ATOM     27  C   UNL     1       0.775  -1.829   1.319  0.00  0.00    +0.121 A 
ATOM     28  C   UNL     1       1.945  -2.377   1.825  0.00  0.00    +0.047 A 
ATOM     29  C   UNL     1       2.059  -3.745   1.973  0.00  0.00    +0.027 A 
ATOM     30  C   UNL     1       1.003  -4.572   1.614  0.00  0.00    +0.034 A 
ATOM     31  C   UNL     1      -0.167  -4.023   1.107  0.00  0.00    +0.027 A 
ATOM     32  C   UNL     1      -0.282  -2.654   0.965  0.00  0.00    +0.047 A 
BRANCH  27  33
ATOM     33  O   UNL     1       0.663  -0.481   1.174  0.00  0.00    -0.492 OA
BRANCH  33  35
ATOM     34  C   UNL     1       1.481   1.788   1.325  0.00  0.00    +0.048 C 
ATOM     35  C   UNL     1       1.791   0.308   1.558  0.00  0.00    +0.225 C 
ENDBRANCH  33  35
ENDBRANCH  27  33
ENDBRANCH  23  30
ENDBRANCH  22  24
ENDBRANCH  21  22
ENDBRANCH  20  21
ENDBRANCH   1  20
TORSDOF 7
