REMARK  Name = ZINC37321131
REMARK  7 active torsions:
REMARK  status: ('A' for Active; 'I' for Inactive)
REMARK    1  A    between atoms: C_1  and  C_2
REMARK    2  A    between atoms: C_2  and  O_3
REMARK    3  A    between atoms: O_3  and  C_4
REMARK    4  A    between atoms: C_5  and  C_12
REMARK    5  A    between atoms: C_12  and  N_13
REMARK    6  A    between atoms: N_13  and  C_14
REMARK    7  A    between atoms: C_19  and  O_22
REMARK                            x       y       z     vdW  Elec       q    Type
REMARK                         _______ _______ _______ _____ _____    ______ ____
ROOT
ATOM      1  C   UNL     1      -1.316  -2.009   2.424  0.00  0.00    -0.043 C 
ENDROOT
BRANCH   1   3
ATOM      2  C   UNL     1       0.818  -1.857   1.117  0.00  0.00    +0.136 A 
ATOM      3  C   UNL     1      -0.063  -2.627   1.861  0.00  0.00    -0.021 A 
ATOM      4  C   UNL     1       0.210  -3.963   2.086  0.00  0.00    +0.020 A 
ATOM      5  C   UNL     1       1.361  -4.532   1.570  0.00  0.00    +0.019 A 
ATOM      6  C   UNL     1       2.241  -3.765   0.828  0.00  0.00    +0.034 A 
ATOM      7  C   UNL     1       1.969  -2.430   0.595  0.00  0.00    +0.061 A 
ATOM      8 BR   UNL     1       3.169  -1.384  -0.426  0.00  0.00    -0.046 Br
ATOM      9 BR   UNL     1       1.731  -6.360   1.880  0.00  0.00    -0.050 Br
BRANCH   2  10
ATOM     10  O   UNL     1       0.551  -0.542   0.893  0.00  0.00    -0.491 OA
BRANCH  10  12
ATOM     11  C   UNL     1       0.836   1.821   1.311  0.00  0.00    +0.048 C 
ATOM     12  C   UNL     1       1.143   0.401   1.789  0.00  0.00    +0.226 C 
ENDBRANCH  10  12
ENDBRANCH   2  10
ENDBRANCH   1   3
BRANCH   1  13
ATOM     13  N   UNL     1      -2.317  -1.874   1.357  0.00  0.00    +0.384 N 
ATOM     14  H   UNL     1      -1.986  -1.217   0.666  0.00  0.00    -0.085 HD
ATOM     15  H   UNL     1      -2.469  -2.772   0.923  0.00  0.00    -0.085 HD
BRANCH  13  16
ATOM     16  C   UNL     1      -3.580  -1.387   1.929  0.00  0.00    -0.069 C 
ATOM     17  C   UNL     1      -3.380   0.027   2.478  0.00  0.00    -0.016 C 
ATOM     18  C   UNL     1      -4.694   0.534   3.074  0.00  0.00    +0.001 C 
ATOM     19  C   UNL     1      -5.772   0.556   1.987  0.00  0.00    +0.031 C 
ATOM     20  C   UNL     1      -5.972  -0.858   1.439  0.00  0.00    +0.113 C 
ATOM     21  C   UNL     1      -4.657  -1.365   0.843  0.00  0.00    +0.015 C 
BRANCH  20  22
ATOM     22  O   UNL     1      -6.978  -0.838   0.424  0.00  0.00    -0.392 OA
ATOM     23  H   UNL     1      -7.840  -0.526   0.732  0.00  0.00    +0.210 HD
ENDBRANCH  20  22
ENDBRANCH  13  16
ENDBRANCH   1  13
TORSDOF 6
