REMARK  Name = ZINC39304137
REMARK  10 active torsions:
REMARK  status: ('A' for Active; 'I' for Inactive)
REMARK    1  A    between atoms: C_1  and  C_2
REMARK    2  A    between atoms: C_2  and  O_3
REMARK    3  A    between atoms: O_3  and  C_4
REMARK    4  A    between atoms: C_4  and  C_6
REMARK    5  A    between atoms: C_6  and  C_26
REMARK    6  A    between atoms: N_10  and  C_12
REMARK    7  A    between atoms: C_12  and  C_13
REMARK    8  A    between atoms: N_15  and  C_16
REMARK    9  A    between atoms: C_26  and  C_27
REMARK   10  A    between atoms: C_30  and  C_33
REMARK                            x       y       z     vdW  Elec       q    Type
REMARK                         _______ _______ _______ _____ _____    ______ ____
ROOT
ATOM      1  C   UNL     1       1.515  -2.377   2.470  0.00  0.00    +0.057 C 
ATOM      2  C   UNL     1       0.818  -1.925   3.757  0.00  0.00    +0.015 C 
ATOM      3  C   UNL     1      -0.606  -2.490   3.779  0.00  0.00    -0.018 C 
ATOM      4  C   UNL     1      -0.546  -4.014   3.657  0.00  0.00    -0.078 C 
ATOM      5  N   UNL     1       0.108  -4.382   2.395  0.00  0.00    +0.386 N 
ATOM      6  C   UNL     1       1.497  -3.905   2.396  0.00  0.00    -0.060 C 
ATOM      7  H   UNL     1      -0.390  -3.962   1.625  0.00  0.00    -0.081 HD
ENDROOT
BRANCH   1   8
ATOM      8  C   UNL     1       0.791  -1.807   1.278  0.00  0.00    +0.312 C 
ATOM      9  O   UNL     1       0.309  -2.546   0.453  0.00  0.00    -0.250 OA
BRANCH   8  10
ATOM     10  O   UNL     1       0.682  -0.477   1.133  0.00  0.00    -0.465 OA
BRANCH  10  12
ATOM     11  C   UNL     1      -0.040   1.524  -0.015  0.00  0.00    +0.048 C 
ATOM     12  C   UNL     1      -0.018  -0.006  -0.021  0.00  0.00    +0.229 C 
ENDBRANCH  10  12
ENDBRANCH   8  10
ENDBRANCH   1   8
BRANCH   5  13
ATOM     13  C   UNL     1       0.094  -5.843   2.246  0.00  0.00    +0.019 C 
BRANCH  13  14
ATOM     14  C   UNL     1      -1.329  -6.320   2.112  0.00  0.00    +0.201 C 
ATOM     15  O   UNL     1      -2.242  -5.522   2.139  0.00  0.00    -0.278 OA
ATOM     16  N   UNL     1      -1.588  -7.635   1.963  0.00  0.00    -0.287 N 
ATOM     17  H   UNL     1      -0.857  -8.266   1.876  0.00  0.00    +0.155 HD
BRANCH  16  18
ATOM     18  C   UNL     1      -2.912  -8.088   1.934  0.00  0.00    +0.037 A 
ATOM     19  C   UNL     1      -3.896  -7.304   1.352  0.00  0.00    +0.023 A 
ATOM     20  C   UNL     1      -5.202  -7.753   1.326  0.00  0.00    +0.002 A 
ATOM     21  C   UNL     1      -5.519  -8.977   1.881  0.00  0.00    +0.004 A 
ATOM     22  C   UNL     1      -4.536  -9.766   2.466  0.00  0.00    -0.042 A 
ATOM     23  C   UNL     1      -3.232  -9.329   2.486  0.00  0.00    -0.023 A 
ATOM     24  C   UNL     1      -2.113 -10.141   3.083  0.00  0.00    +0.037 C 
ATOM     25  C   UNL     1      -2.668 -11.227   4.002  0.00  0.00    +0.005 C 
ATOM     26  C   UNL     1      -3.746 -12.004   3.236  0.00  0.00    +0.005 C 
ATOM     27  C   UNL     1      -4.958 -11.085   3.059  0.00  0.00    +0.035 C 
ENDBRANCH  16  18
ENDBRANCH  13  14
ENDBRANCH   5  13
BRANCH   1  28
ATOM     28  C   UNL     1       2.963  -1.883   2.473  0.00  0.00    +0.051 C 
BRANCH  28  29
ATOM     29  C   UNL     1       2.981  -0.378   2.548  0.00  0.00    -0.046 A 
ATOM     30  C   UNL     1       2.965   0.372   1.387  0.00  0.00    +0.004 A 
ATOM     31  C   UNL     1       2.981   1.752   1.456  0.00  0.00    +0.012 A 
ATOM     32  C   UNL     1       3.013   2.383   2.685  0.00  0.00    +0.055 A 
ATOM     33  C   UNL     1       3.028   1.633   3.846  0.00  0.00    +0.012 A 
ATOM     34  C   UNL     1       3.007   0.252   3.778  0.00  0.00    +0.004 A 
BRANCH  32  35
ATOM     35  C   UNL     1       3.031   3.888   2.760  0.00  0.00    +0.417 C 
ATOM     36  F   UNL     1       1.718   4.368   2.810  0.00  0.00    -0.166 F 
ATOM     37  F   UNL     1       3.718   4.289   3.911  0.00  0.00    -0.166 F 
ATOM     38  F   UNL     1       3.674   4.403   1.630  0.00  0.00    -0.166 F 
ENDBRANCH  32  35
ENDBRANCH  28  29
ENDBRANCH   1  28
TORSDOF 9
