REMARK  Name = ZINC02135410
REMARK  7 active torsions:
REMARK  status: ('A' for Active; 'I' for Inactive)
REMARK    1  A    between atoms: C_1  and  C_2
REMARK    2  A    between atoms: C_17  and  C_19
REMARK    3  A    between atoms: C_19  and  C_20
REMARK    4  A    between atoms: N_25  and  C_28
REMARK    5  A    between atoms: C_28  and  C_29
REMARK    6  A    between atoms: C_32  and  O_35
REMARK    7  A    between atoms: O_35  and  C_36
REMARK                            x       y       z     vdW  Elec       q    Type
REMARK                         _______ _______ _______ _____ _____    ______ ____
ROOT
ATOM      1  C   UNL     1      -1.171   7.237   0.061  0.00  0.00    +0.044 C 
ATOM      2  C   UNL     1      -0.518   5.879   0.045  0.00  0.00    -0.049 A 
ATOM      3  C   UNL     1      -1.297   4.735   0.042  0.00  0.00    +0.008 A 
ATOM      4  C   UNL     1      -0.700   3.495   0.029  0.00  0.00    -0.026 A 
ATOM      5  C   UNL     1       0.687   3.375   0.016  0.00  0.00    +0.054 A 
ATOM      6  C   UNL     1       1.464   4.532   0.019  0.00  0.00    +0.063 A 
ATOM      7  C   UNL     1       0.861   5.773   0.033  0.00  0.00    +0.025 A 
ATOM      8 CL   UNL     1       3.196   4.411   0.004  0.00  0.00    -0.082 Cl
ATOM      9  N   UNL     1       1.055   2.028   0.003  0.00  0.00    -0.285 N 
ATOM     10  C   UNL     1      -0.014   1.209   0.009  0.00  0.00    +0.211 C 
ATOM     11  O   UNL     1       0.002  -0.004   0.002  0.00  0.00    -0.277 OA
ATOM     12  C   UNL     1      -1.233   2.091   0.018  0.00  0.00    +0.050 C 
ATOM     13  C   UNL     1      -2.122   1.829  -1.203  0.00  0.00    +0.088 C 
ATOM     14  C   UNL     1      -3.231   0.872  -0.682  0.00  0.00    +0.073 C 
ATOM     15  C   UNL     1      -2.891   0.645   0.806  0.00  0.00    -0.049 C 
ATOM     16  C   UNL     1      -4.488   1.704  -0.787  0.00  0.00    +0.224 C 
ATOM     17  O   UNL     1      -5.599   1.338  -0.470  0.00  0.00    -0.275 OA
ATOM     18  N   UNL     1      -4.184   2.909  -1.284  0.00  0.00    -0.237 N 
ATOM     19  C   UNL     1      -2.885   3.086  -1.555  0.00  0.00    +0.225 C 
ATOM     20  O   UNL     1      -2.397   4.097  -2.012  0.00  0.00    -0.275 OA
ATOM     21  H   UNL     1       1.974   1.718  -0.009  0.00  0.00    +0.155 HD
ATOM     22  N   UNL     1      -2.078   1.808   1.166  0.00  0.00    +0.394 N 
ATOM     23  H   UNL     1      -2.681   2.614   1.370  0.00  0.00    -0.083 HD
ATOM     24  H   UNL     1      -1.500   1.596   1.988  0.00  0.00    -0.083 HD
ENDROOT
BRANCH  15  25
ATOM     25  C   UNL     1      -4.172   0.580   1.640  0.00  0.00    +0.080 C 
BRANCH  25  26
ATOM     26  C   UNL     1      -3.820   0.310   3.080  0.00  0.00    +0.209 C 
ATOM     27  O   UNL     1      -2.660   0.182   3.408  0.00  0.00    -0.276 OA
ATOM     28  N   UNL     1      -4.796   0.210   4.005  0.00  0.00    -0.329 N 
ATOM     29  H   UNL     1      -5.724   0.312   3.743  0.00  0.00    +0.145 HD
ATOM     30  H   UNL     1      -4.570   0.037   4.932  0.00  0.00    +0.145 HD
ENDBRANCH  25  26
ENDBRANCH  15  25
BRANCH  18  31
ATOM     31  C   UNL     1      -5.190   3.949  -1.512  0.00  0.00    +0.151 C 
BRANCH  31  32
ATOM     32  C   UNL     1      -5.326   4.796  -0.273  0.00  0.00    -0.029 A 
ATOM     33  C   UNL     1      -6.246   4.452   0.700  0.00  0.00    +0.009 A 
ATOM     34  C   UNL     1      -6.369   5.223   1.840  0.00  0.00    +0.046 A 
ATOM     35  C   UNL     1      -5.577   6.350   2.002  0.00  0.00    +0.120 A 
ATOM     36  C   UNL     1      -4.659   6.697   1.021  0.00  0.00    +0.046 A 
ATOM     37  C   UNL     1      -4.536   5.919  -0.114  0.00  0.00    +0.009 A 
BRANCH  35  38
ATOM     38  O   UNL     1      -5.700   7.114   3.119  0.00  0.00    -0.495 OA
ATOM     39  C   UNL     1      -6.665   6.697   4.087  0.00  0.00    +0.277 C 
ENDBRANCH  35  38
ENDBRANCH  31  32
ENDBRANCH  18  31
TORSDOF 5
