REMARK  Name = ZINC55111879
REMARK  10 active torsions:
REMARK  status: ('A' for Active; 'I' for Inactive)
REMARK    1  A    between atoms: C_1  and  N_2
REMARK    2  A    between atoms: N_2  and  C_3
REMARK    3  A    between atoms: N_2  and  C_4
REMARK    4  A    between atoms: C_4  and  C_6
REMARK    5  A    between atoms: C_4  and  C_21
REMARK    6  A    between atoms: C_6  and  N_7
REMARK    7  A    between atoms: C_8  and  C_10
REMARK    8  A    between atoms: C_10  and  O_11
REMARK    9  A    between atoms: O_11  and  C_12
REMARK   10  A    between atoms: C_16  and  C_18
REMARK                            x       y       z     vdW  Elec       q    Type
REMARK                         _______ _______ _______ _____ _____    ______ ____
ROOT
ATOM      1  N   UNL     1       0.044  -2.014   1.012  0.00  0.00    -0.314 N 
ATOM      2  C   UNL     1       0.458  -3.278   1.232  0.00  0.00    +0.251 C 
ATOM      3  O   UNL     1       0.107  -4.169   0.486  0.00  0.00    -0.272 OA
ATOM      4  H   UNL     1       0.325  -1.302   1.609  0.00  0.00    +0.149 HD
ENDROOT
BRANCH   1   5
ATOM      5  C   UNL     1      -0.828  -1.716  -0.126  0.00  0.00    +0.094 C 
BRANCH   5   6
ATOM      6  C   UNL     1      -1.251  -0.247  -0.073  0.00  0.00    -0.014 C 
BRANCH   6   7
ATOM      7  C   UNL     1      -2.103  -0.013   1.148  0.00  0.00    -0.022 A 
ATOM      8  C   UNL     1      -1.753   0.526   2.342  0.00  0.00    +0.009 A 
ATOM      9  C   UNL     1      -2.713   0.645   3.330  0.00  0.00    +0.008 A 
ATOM     10  C   UNL     1      -3.974   0.220   3.076  0.00  0.00    +0.045 A 
ATOM     11  S   UNL     1      -3.835  -0.366   1.395  0.00  0.00    -0.103 S 
ENDBRANCH   6   7
BRANCH   6  13
ATOM     12  C   UNL     1      -2.489   1.475  -1.195  0.00  0.00    -0.096 C 
ATOM     13  N   UNL     1      -2.022   0.085  -1.279  0.00  0.00    +0.382 N 
ATOM     14  C   UNL     1      -1.170  -0.075  -2.465  0.00  0.00    -0.096 C 
ATOM     15  H   UNL     1      -2.817  -0.533  -1.350  0.00  0.00    -0.082 HD
ENDBRANCH   6  13
ENDBRANCH   5   6
ENDBRANCH   1   5
BRANCH   2  16
ATOM     16  C   UNL     1       1.355  -3.585   2.403  0.00  0.00    +0.324 C 
BRANCH  16  17
ATOM     17  O   UNL     1       1.653  -4.983   2.422  0.00  0.00    -0.483 OA
BRANCH  17  18
ATOM     18  C   UNL     1       2.457  -5.429   3.422  0.00  0.00    +0.122 A 
ATOM     19  C   UNL     1       2.944  -4.539   4.370  0.00  0.00    +0.046 A 
ATOM     20  C   UNL     1       3.762  -4.987   5.390  0.00  0.00    +0.004 A 
ATOM     21  C   UNL     1       4.100  -6.323   5.473  0.00  0.00    +0.013 A 
ATOM     22  C   UNL     1       3.615  -7.225   4.525  0.00  0.00    +0.040 A 
ATOM     23  C   UNL     1       2.785  -6.772   3.500  0.00  0.00    +0.058 A 
BRANCH  22  24
ATOM     24  C   UNL     1       3.976  -8.656   4.611  0.00  0.00    +0.242 C 
ATOM     25  O   UNL     1       3.552  -9.440   3.784  0.00  0.00    -0.270 OA
ATOM     26  N   UNL     1       4.774  -9.092   5.605  0.00  0.00    -0.325 N 
ATOM     27  H   UNL     1       5.113  -8.466   6.265  0.00  0.00    +0.145 HD
ATOM     28  H   UNL     1       5.011 -10.031   5.661  0.00  0.00    +0.145 HD
ENDBRANCH  22  24
ENDBRANCH  17  18
ENDBRANCH  16  17
ENDBRANCH   2  16
TORSDOF 8
