REMARK  Name = ZINC45066727
REMARK  10 active torsions:
REMARK  status: ('A' for Active; 'I' for Inactive)
REMARK    1  A    between atoms: C_1  and  C_2
REMARK    2  A    between atoms: C_2  and  C_3
REMARK    3  A    between atoms: C_3  and  C_5
REMARK    4  A    between atoms: C_3  and  N_13
REMARK    5  A    between atoms: C_10  and  O_11
REMARK    6  A    between atoms: N_13  and  C_14
REMARK    7  A    between atoms: C_14  and  C_15
REMARK    8  A    between atoms: C_15  and  C_16
REMARK    9  A    between atoms: C_16  and  S_17
REMARK   10  A    between atoms: S_17  and  N_20
REMARK                            x       y       z     vdW  Elec       q    Type
REMARK                         _______ _______ _______ _____ _____    ______ ____
ROOT
ATOM      1  C   UNL     1      -1.427  -0.533   0.139  0.00  0.00    -0.038 C 
ENDROOT
BRANCH   1   2
ATOM      2  C   UNL     1      -1.481  -2.010   0.436  0.00  0.00    -0.019 A 
ATOM      3  C   UNL     1      -1.676  -2.914  -0.590  0.00  0.00    +0.020 A 
ATOM      4  C   UNL     1      -1.726  -4.270  -0.318  0.00  0.00    +0.018 A 
ATOM      5  C   UNL     1      -1.580  -4.722   0.981  0.00  0.00    +0.019 A 
ATOM      6  C   UNL     1      -1.384  -3.821   2.009  0.00  0.00    +0.047 A 
ATOM      7  C   UNL     1      -1.329  -2.462   1.738  0.00  0.00    +0.119 A 
ATOM      8 BR   UNL     1      -1.994  -5.505  -1.724  0.00  0.00    -0.050 Br
BRANCH   7   9
ATOM      9  O   UNL     1      -1.131  -1.574   2.748  0.00  0.00    -0.507 OA
ATOM     10  H   UNL     1      -1.947  -1.261   3.162  0.00  0.00    +0.292 HD
ENDBRANCH   7   9
ENDBRANCH   1   2
BRANCH   1  11
ATOM     11  N   UNL     1      -2.173  -0.254  -1.095  0.00  0.00    +0.384 N 
ATOM     12  H   UNL     1      -2.060   0.717  -1.345  0.00  0.00    -0.085 HD
ATOM     13  H   UNL     1      -1.820  -0.836  -1.841  0.00  0.00    -0.085 HD
BRANCH  11  14
ATOM     14  C   UNL     1      -3.597  -0.542  -0.882  0.00  0.00    -0.080 C 
BRANCH  14  15
ATOM     15  C   UNL     1      -4.392  -0.134  -2.124  0.00  0.00    +0.005 C 
BRANCH  15  16
ATOM     16  C   UNL     1      -5.876  -0.434  -1.902  0.00  0.00    +0.183 C 
BRANCH  16  17
ATOM     17  S   UNL     1      -6.817   0.051  -3.375  0.00  0.00    +0.027 S 
ATOM     18  O   UNL     1      -6.803   1.464  -3.522  0.00  0.00    -0.158 OA
ATOM     19  O   UNL     1      -6.487  -0.795  -4.468  0.00  0.00    -0.158 OA
BRANCH  17  20
ATOM     20  N   UNL     1      -8.391  -0.320  -3.015  0.00  0.00    -0.208 NA
ATOM     21  H   UNL     1      -9.112   0.200  -3.402  0.00  0.00    +0.144 HD
ATOM     22  H   UNL     1      -8.591  -1.057  -2.417  0.00  0.00    +0.144 HD
ENDBRANCH  17  20
ENDBRANCH  16  17
ENDBRANCH  15  16
ENDBRANCH  14  15
ENDBRANCH  11  14
ENDBRANCH   1  11
BRANCH   1  24
ATOM     23  C   UNL     1       0.095   1.418  -0.206  0.00  0.00    +0.002 C 
ATOM     24  C   UNL     1       0.030  -0.101  -0.037  0.00  0.00    -0.015 C 
ENDBRANCH   1  24
TORSDOF 9
