REMARK  Name = ZINC14986374
REMARK  7 active torsions:
REMARK  status: ('A' for Active; 'I' for Inactive)
REMARK    1  A    between atoms: C_4  and  C_7
REMARK    2  A    between atoms: C_7  and  C_8
REMARK    3  A    between atoms: C_7  and  N_61
REMARK    4  A    between atoms: C_14  and  C_15
REMARK    5  A    between atoms: C_14  and  N_61
REMARK    6  A    between atoms: N_23  and  C_26
REMARK    7  A    between atoms: C_26  and  C_27
REMARK                            x       y       z     vdW  Elec       q    Type
REMARK                         _______ _______ _______ _____ _____    ______ ____
ROOT
ATOM      1  C   UNL     1       1.286   3.516   0.009  0.00  0.00    +0.001 A 
ATOM      2  C   UNL     1       1.372   4.189   1.184  0.00  0.00    +0.017 A 
ATOM      3  C   UNL     1       1.310   5.650   1.159  0.00  0.00    +0.003 A 
ATOM      4  C   UNL     1       1.396   6.396   2.341  0.00  0.00    +0.059 A 
ATOM      5  C   UNL     1       1.335   7.771   2.286  0.00  0.00    +0.167 A 
ATOM      6  C   UNL     1       1.187   8.423   1.055  0.00  0.00    +0.168 A 
ATOM      7  C   UNL     1       1.101   7.693  -0.117  0.00  0.00    +0.076 A 
ATOM      8  C   UNL     1       1.163   6.306  -0.078  0.00  0.00    +0.056 A 
ATOM      9  N   UNL     1       1.081   5.562  -1.238  0.00  0.00    -0.303 N 
ATOM     10  C   UNL     1       1.145   4.220  -1.204  0.00  0.00    +0.253 A 
ATOM     11  O   UNL     1       1.075   3.595  -2.249  0.00  0.00    -0.267 OA
ATOM     12  O   UNL     1       1.154   9.768   1.279  0.00  0.00    -0.453 OA
ATOM     13  C   UNL     1       1.694   9.953   2.600  0.00  0.00    +0.466 C 
ATOM     14  O   UNL     1       1.395   8.715   3.272  0.00  0.00    -0.453 OA
ENDROOT
BRANCH   1  15
ATOM     15  C   UNL     1       1.346   2.010   0.000  0.00  0.00    -0.040 C 
BRANCH  15  16
ATOM     16  N   UNL     1      -0.027   1.471   0.010  0.00  0.00    +0.389 N 
ATOM     17  H   UNL     1      -0.512   1.795   0.855  0.00  0.00    -0.084 HD
ATOM     18  H   UNL     1      -0.528   1.804  -0.822  0.00  0.00    -0.084 HD
BRANCH  16  19
ATOM     19  C   UNL     1       0.002  -0.004   0.002  0.00  0.00    -0.010 C 
BRANCH  19  23
ATOM     20  C   UNL     1      -3.612  -1.486   1.731  0.00  0.00    +0.000 A 
ATOM     21  C   UNL     1      -2.408  -2.106   2.009  0.00  0.00    +0.000 A 
ATOM     22  C   UNL     1      -1.238  -1.626   1.449  0.00  0.00    +0.002 A 
ATOM     23  C   UNL     1      -1.273  -0.527   0.612  0.00  0.00    -0.057 A 
ATOM     24  C   UNL     1      -2.476   0.096   0.338  0.00  0.00    +0.002 A 
ATOM     25  C   UNL     1      -3.646  -0.387   0.894  0.00  0.00    +0.000 A 
ENDBRANCH  19  23
BRANCH  19  26
ATOM     26  C   UNL     1       0.119  -0.497  -1.417  0.00  0.00    -0.057 A 
ATOM     27  C   UNL     1      -0.587   0.130  -2.427  0.00  0.00    +0.002 A 
ATOM     28  C   UNL     1      -0.475  -0.319  -3.730  0.00  0.00    +0.000 A 
ATOM     29  C   UNL     1       0.334  -1.402  -4.021  0.00  0.00    +0.000 A 
ATOM     30  C   UNL     1       1.035  -2.032  -3.010  0.00  0.00    +0.000 A 
ATOM     31  C   UNL     1       0.928  -1.580  -1.708  0.00  0.00    +0.002 A 
ENDBRANCH  19  26
ENDBRANCH  16  19
ENDBRANCH  15  16
ENDBRANCH   1  15
BRANCH   9  32
ATOM     32  C   UNL     1       0.927   6.245  -2.524  0.00  0.00    +0.160 C 
BRANCH  32  33
ATOM     33  C   UNL     1       2.287   6.538  -3.103  0.00  0.00    -0.025 A 
ATOM     34  C   UNL     1       2.919   7.733  -2.812  0.00  0.00    +0.005 A 
ATOM     35  C   UNL     1       4.169   8.002  -3.338  0.00  0.00    +0.003 A 
ATOM     36  C   UNL     1       4.784   7.080  -4.165  0.00  0.00    +0.038 A 
ATOM     37  C   UNL     1       4.150   5.885  -4.461  0.00  0.00    +0.124 A 
ATOM     38  C   UNL     1       2.900   5.615  -3.929  0.00  0.00    +0.043 A 
ATOM     39  F   UNL     1       4.750   4.984  -5.268  0.00  0.00    -0.205 F 
ENDBRANCH  32  33
ENDBRANCH   9  32
TORSDOF 7
