REMARK  Name = ZINC63994390
REMARK  9 active torsions:
REMARK  status: ('A' for Active; 'I' for Inactive)
REMARK    1  A    between atoms: C_1  and  C_2
REMARK    2  A    between atoms: C_2  and  C_3
REMARK    3  A    between atoms: C_2  and  C_4
REMARK    4  A    between atoms: C_4  and  C_5
REMARK    5  A    between atoms: C_5  and  N_6
REMARK    6  A    between atoms: N_9  and  C_29
REMARK    7  A    between atoms: N_15  and  C_18
REMARK    8  A    between atoms: C_18  and  C_19
REMARK    9  A    between atoms: C_29  and  C_30
REMARK                            x       y       z     vdW  Elec       q    Type
REMARK                         _______ _______ _______ _____ _____    ______ ____
ROOT
ATOM      1  N   UNL     1       0.676  -0.494   3.720  0.00  0.00    -0.271 N 
ATOM      2  C   UNL     1       0.615  -1.675   4.365  0.00  0.00    +0.312 C 
ATOM      3  O   UNL     1      -0.068  -2.611   3.998  0.00  0.00    -0.252 OA
ATOM      4  N   UNL     1       1.391  -1.702   5.455  0.00  0.00    -0.215 N 
ATOM      5  C   UNL     1       2.041  -0.532   5.631  0.00  0.00    +0.247 C 
ATOM      6  O   UNL     1       2.812  -0.248   6.522  0.00  0.00    -0.273 OA
ATOM      7  C   UNL     1       1.609   0.346   4.481  0.00  0.00    +0.112 C 
ATOM      8  C   UNL     1       0.904   1.595   5.000  0.00  0.00    +0.017 C 
ATOM      9  C   UNL     1       0.518   2.488   3.817  0.00  0.00    -0.076 C 
ATOM     10  N   UNL     1       1.725   2.858   3.067  0.00  0.00    +0.381 N 
ATOM     11  C   UNL     1       2.345   1.658   2.492  0.00  0.00    -0.076 C 
ATOM     12  C   UNL     1       2.808   0.730   3.619  0.00  0.00    +0.017 C 
ATOM     13  H   UNL     1       2.380   3.308   3.689  0.00  0.00    -0.082 HD
ENDROOT
BRANCH   1  14
ATOM     14  C   UNL     1      -0.042  -0.124   2.497  0.00  0.00    +0.110 C 
BRANCH  14  15
ATOM     15  C   UNL     1      -1.543  -0.061   2.786  0.00  0.00    +0.022 C 
BRANCH  15  17
ATOM     16  C   UNL     1      -2.128  -0.564   0.410  0.00  0.00    +0.007 C 
ATOM     17  C   UNL     1      -2.280   0.449   1.546  0.00  0.00    -0.016 C 
ATOM     18  C   UNL     1      -3.764   0.629   1.873  0.00  0.00    +0.007 C 
ENDBRANCH  15  17
ENDBRANCH  14  15
ENDBRANCH   1  14
BRANCH  10  19
ATOM     19  C   UNL     1       1.363   3.785   1.987  0.00  0.00    -0.050 C 
BRANCH  19  20
ATOM     20  C   UNL     1       2.633   4.269   1.284  0.00  0.00    +0.086 C 
ATOM     21  C   UNL     1       2.295   5.360   0.292  0.00  0.00    +0.005 C 
ATOM     22  C   UNL     1       2.973   6.458   0.698  0.00  0.00    -0.004 A 
ATOM     23  C   UNL     1       3.064   7.823   0.166  0.00  0.00    +0.010 A 
ATOM     24  C   UNL     1       3.843   8.726   0.805  0.00  0.00    +0.001 A 
ATOM     25  C   UNL     1       4.562   8.391   1.961  0.00  0.00    +0.002 A 
ATOM     26  C   UNL     1       4.529   7.158   2.509  0.00  0.00    +0.026 A 
ATOM     27  C   UNL     1       3.742   6.130   1.919  0.00  0.00    +0.043 A 
ATOM     28  N   UNL     1       3.549   4.876   2.256  0.00  0.00    -0.380 N 
ATOM     29  H   UNL     1       3.945   4.426   3.018  0.00  0.00    +0.160 HD
ENDBRANCH  19  20
ENDBRANCH  10  19
BRANCH   4  30
ATOM     30  C   UNL     1       1.519  -2.857   6.347  0.00  0.00    +0.213 C 
BRANCH  30  31
ATOM     31  C   UNL     1       2.646  -3.737   5.870  0.00  0.00    +0.228 C 
ATOM     32  O   UNL     1       3.280  -3.429   4.883  0.00  0.00    -0.274 OA
ATOM     33  N   UNL     1       2.949  -4.866   6.541  0.00  0.00    -0.328 N 
ATOM     34  H   UNL     1       2.442  -5.112   7.330  0.00  0.00    +0.145 HD
ATOM     35  H   UNL     1       3.674  -5.432   6.234  0.00  0.00    +0.145 HD
ENDBRANCH  30  31
ENDBRANCH   4  30
TORSDOF 7
