REMARK  Name = ZINC42952205
REMARK  9 active torsions:
REMARK  status: ('A' for Active; 'I' for Inactive)
REMARK    1  A    between atoms: C_1  and  C_2
REMARK    2  A    between atoms: C_2  and  C_3
REMARK    3  A    between atoms: C_3  and  N_4
REMARK    4  A    between atoms: N_7  and  C_10
REMARK    5  A    between atoms: C_10  and  C_12
REMARK    6  A    between atoms: C_10  and  C_19
REMARK    7  A    between atoms: C_19  and  C_21
REMARK    8  A    between atoms: C_19  and  N_23
REMARK    9  A    between atoms: C_21  and  C_22
REMARK                            x       y       z     vdW  Elec       q    Type
REMARK                         _______ _______ _______ _____ _____    ______ ____
ROOT
ATOM      1  C   UNL     1      -2.146  -6.016   1.097  0.00  0.00    +0.072 C 
ENDROOT
BRANCH   1   5
ATOM      2  N   UNL     1      -1.459  -2.116  -0.381  0.00  0.00    +0.381 N 
ATOM      3  C   UNL     1      -0.777  -2.515   0.857  0.00  0.00    -0.063 C 
ATOM      4  C   UNL     1      -0.750  -4.042   0.955  0.00  0.00    +0.066 C 
ATOM      5  N   UNL     1      -2.128  -4.555   0.947  0.00  0.00    -0.301 NA
ATOM      6  C   UNL     1      -2.831  -4.142  -0.276  0.00  0.00    +0.066 C 
ATOM      7  C   UNL     1      -2.841  -2.614  -0.363  0.00  0.00    -0.063 C 
ATOM      8  H   UNL     1      -0.971  -2.505  -1.174  0.00  0.00    -0.082 HD
BRANCH   2   9
ATOM      9  C   UNL     1      -1.468  -0.650  -0.484  0.00  0.00    -0.079 C 
BRANCH   9  11
ATOM     10  C   UNL     1      -0.043   1.386  -0.734  0.00  0.00    +0.002 C 
ATOM     11  C   UNL     1      -0.033  -0.140  -0.627  0.00  0.00    -0.022 C 
ENDBRANCH   9  11
ENDBRANCH   2   9
ENDBRANCH   1   5
BRANCH   1  12
ATOM     12  C   UNL     1      -1.469  -6.397   2.388  0.00  0.00    -0.032 A 
ATOM     13  C   UNL     1      -1.679  -5.644   3.527  0.00  0.00    +0.006 A 
ATOM     14  C   UNL     1      -1.058  -5.993   4.711  0.00  0.00    +0.015 A 
ATOM     15  C   UNL     1      -0.226  -7.098   4.756  0.00  0.00    +0.018 A 
ATOM     16  C   UNL     1      -0.016  -7.852   3.616  0.00  0.00    +0.015 A 
ATOM     17  C   UNL     1      -0.642  -7.504   2.433  0.00  0.00    +0.006 A 
ATOM     18 BR   UNL     1       0.624  -7.576   6.376  0.00  0.00    -0.050 Br
ENDBRANCH   1  12
BRANCH   1  19
ATOM     19  C   UNL     1      -3.595  -6.508   1.116  0.00  0.00    -0.053 C 
BRANCH  19  20
ATOM     20  N   UNL     1      -3.619  -7.951   1.393  0.00  0.00    +0.381 N 
ATOM     21  H   UNL     1      -3.291  -8.118   2.333  0.00  0.00    -0.090 HD
ATOM     22  H   UNL     1      -4.562  -8.296   1.300  0.00  0.00    -0.090 HD
ATOM     23  H   UNL     1      -3.019  -8.429   0.738  0.00  0.00    -0.090 HD
ENDBRANCH  19  20
BRANCH  19  24
ATOM     24  C   UNL     1      -4.371  -5.767   2.207  0.00  0.00    -0.018 C 
ATOM     25  C   UNL     1      -5.846  -6.167   2.145  0.00  0.00    +0.002 C 
ENDBRANCH  19  24
ENDBRANCH   1  19
TORSDOF 7
