REMARK  Name = ZINC42636593
REMARK  9 active torsions:
REMARK  status: ('A' for Active; 'I' for Inactive)
REMARK    1  A    between atoms: C_1  and  C_2
REMARK    2  A    between atoms: C_2  and  C_4
REMARK    3  A    between atoms: C_2  and  N_14
REMARK    4  A    between atoms: N_14  and  C_15
REMARK    5  A    between atoms: C_15  and  C_17
REMARK    6  A    between atoms: C_15  and  C_18
REMARK    7  A    between atoms: N_20  and  C_21
REMARK    8  A    between atoms: C_25  and  N_27
REMARK    9  A    between atoms: C_28  and  C_30
REMARK                            x       y       z     vdW  Elec       q    Type
REMARK                         _______ _______ _______ _____ _____    ______ ____
ROOT
ATOM      1  C   UNL     1      -0.057  -0.122   2.414  0.00  0.00    +0.014 C 
ATOM      2  C   UNL     1      -1.410  -0.835   2.428  0.00  0.00    -0.004 C 
ENDROOT
BRANCH   1   3
ATOM      3  C   UNL     1       0.732  -0.516   3.636  0.00  0.00    +0.203 C 
ATOM      4  O   UNL     1       1.808  -1.063   3.513  0.00  0.00    -0.277 OA
ATOM      5  N   UNL     1       0.242  -0.261   4.866  0.00  0.00    -0.287 N 
ATOM      6  H   UNL     1      -0.585   0.236   4.965  0.00  0.00    +0.155 HD
BRANCH   5   7
ATOM      7  C   UNL     1       0.927  -0.713   5.999  0.00  0.00    +0.035 A 
ATOM      8  C   UNL     1       0.219  -1.136   7.117  0.00  0.00    +0.023 A 
ATOM      9  C   UNL     1       0.894  -1.583   8.236  0.00  0.00    +0.004 A 
ATOM     10  C   UNL     1       2.276  -1.610   8.248  0.00  0.00    +0.023 A 
ATOM     11  C   UNL     1       2.990  -1.188   7.134  0.00  0.00    +0.035 A 
ATOM     12  C   UNL     1       2.314  -0.744   6.006  0.00  0.00    +0.046 A 
BRANCH  11  13
ATOM     13  N   UNL     1       4.389  -1.216   7.146  0.00  0.00    -0.286 N 
ATOM     14  C   UNL     1       5.037  -2.200   7.800  0.00  0.00    +0.214 C 
ATOM     15  O   UNL     1       4.411  -3.014   8.446  0.00  0.00    -0.276 OA
ATOM     16  C   UNL     1       6.540  -2.290   7.727  0.00  0.00    +0.109 C 
ATOM     17  H   UNL     1       4.892  -0.526   6.685  0.00  0.00    +0.155 HD
ENDBRANCH  11  13
ENDBRANCH   5   7
ENDBRANCH   1   3
BRANCH   1  18
ATOM     18  N   UNL     1       0.686  -0.505   1.207  0.00  0.00    +0.391 N 
ATOM     19  H   UNL     1       0.761  -1.510   1.163  0.00  0.00    -0.084 HD
ATOM     20  H   UNL     1       1.610  -0.100   1.237  0.00  0.00    -0.084 HD
BRANCH  18  22
ATOM     21  C   UNL     1      -0.029   1.515   0.021  0.00  0.00    -0.009 C 
ATOM     22  C   UNL     1      -0.024  -0.015   0.018  0.00  0.00    -0.043 C 
BRANCH  22  23
ATOM     23  C   UNL     1       0.671  -0.512  -1.223  0.00  0.00    -0.061 A 
ATOM     24  C   UNL     1       2.052  -0.549  -1.278  0.00  0.00    +0.002 A 
ATOM     25  C   UNL     1       2.681  -1.003  -2.418  0.00  0.00    +0.004 A 
ATOM     26  C   UNL     1       1.938  -1.425  -3.513  0.00  0.00    -0.044 A 
ATOM     27  C   UNL     1       0.563  -1.394  -3.458  0.00  0.00    -0.044 A 
ATOM     28  C   UNL     1      -0.069  -0.938  -2.307  0.00  0.00    +0.006 A 
ATOM     29  C   UNL     1      -0.306  -1.851  -4.600  0.00  0.00    +0.035 C 
ATOM     30  C   UNL     1       0.499  -1.909  -5.897  0.00  0.00    +0.005 C 
ATOM     31  C   UNL     1       1.775  -2.719  -5.639  0.00  0.00    +0.005 C 
ATOM     32  C   UNL     1       2.689  -1.901  -4.729  0.00  0.00    +0.035 C 
ENDBRANCH  22  23
ENDBRANCH  18  22
ENDBRANCH   1  18
TORSDOF 6
