REMARK  Name = ZINC12896312
REMARK  7 active torsions:
REMARK  status: ('A' for Active; 'I' for Inactive)
REMARK    1  A    between atoms: C_1  and  C_2
REMARK    2  A    between atoms: C_2  and  C_3
REMARK    3  A    between atoms: C_2  and  C_4
REMARK    4  A    between atoms: C_4  and  S_5
REMARK    5  A    between atoms: S_5  and  C_6
REMARK    6  A    between atoms: C_11  and  C_15
REMARK    7  A    between atoms: C_12  and  O_14
REMARK                            x       y       z     vdW  Elec       q    Type
REMARK                         _______ _______ _______ _____ _____    ______ ____
ROOT
ATOM      1  C   UNL     1      -2.574   1.261   0.017  0.00  0.00    +0.018 C 
ATOM      2  C   UNL     1      -1.138   1.734   0.016  0.00  0.00    +0.011 A 
ATOM      3  C   UNL     1      -0.796   3.039   0.026  0.00  0.00    -0.022 A 
ATOM      4  C   UNL     1       0.659   3.109   0.012  0.00  0.00    +0.004 A 
ATOM      5  C   UNL     1       1.589   4.152   0.009  0.00  0.00    +0.030 A 
ATOM      6  C   UNL     1       2.926   3.871  -0.005  0.00  0.00    +0.042 A 
ATOM      7  C   UNL     1       3.371   2.555  -0.016  0.00  0.00    +0.022 A 
ATOM      8  C   UNL     1       2.473   1.511  -0.013  0.00  0.00    +0.027 A 
ATOM      9  C   UNL     1       1.107   1.773   0.001  0.00  0.00    +0.047 A 
ATOM     10  N   UNL     1      -0.011   0.966   0.007  0.00  0.00    -0.359 N 
ATOM     11  H   UNL     1       0.002  -0.004   0.002  0.00  0.00    +0.166 HD
ATOM     12 CL   UNL     1       4.079   5.170  -0.007  0.00  0.00    -0.084 Cl
ATOM     13  C   UNL     1      -1.796   4.167   0.044  0.00  0.00    +0.018 C 
ATOM     14  C   UNL     1      -3.159   3.583   0.433  0.00  0.00    -0.076 C 
ATOM     15  N   UNL     1      -3.444   2.387  -0.387  0.00  0.00    +0.388 N 
ATOM     16  H   UNL     1      -4.427   2.117  -0.260  0.00  0.00    -0.084 HD
ATOM     17  H   UNL     1      -3.275   2.607  -1.375  0.00  0.00    -0.084 HD
ENDROOT
BRANCH   1  23
ATOM     18  C   UNL     1      -3.036  -1.922  -2.707  0.00  0.00    +0.173 A 
ATOM     19  N   UNL     1      -2.711  -0.690  -3.187  0.00  0.00    -0.302 N 
ATOM     20  H   UNL     1      -2.591  -0.558  -4.140  0.00  0.00    +0.171 HD
ATOM     21  C   UNL     1      -2.562   0.349  -2.338  0.00  0.00    +0.258 A 
ATOM     22  O   UNL     1      -2.275   1.458  -2.759  0.00  0.00    -0.267 OA
ATOM     23  C   UNL     1      -2.736   0.131  -0.967  0.00  0.00    +0.070 A 
ATOM     24  C   UNL     1      -3.066  -1.142  -0.531  0.00  0.00    +0.222 A 
ATOM     25  N   UNL     1      -3.206  -2.132  -1.417  0.00  0.00    -0.189 NA
BRANCH  24  26
ATOM     26  O   UNL     1      -3.246  -1.382   0.789  0.00  0.00    -0.492 OA
ATOM     27  H   UNL     1      -3.473  -2.299   0.995  0.00  0.00    +0.294 HD
ENDBRANCH  24  26
BRANCH  18  28
ATOM     28  S   UNL     1      -3.234  -3.263  -3.832  0.00  0.00    -0.087 S 
BRANCH  28  29
ATOM     29  C   UNL     1      -3.645  -4.590  -2.672  0.00  0.00    +0.080 C 
BRANCH  29  31
ATOM     30  C   UNL     1      -4.092  -7.039  -2.456  0.00  0.00    +0.008 C 
ATOM     31  C   UNL     1      -3.868  -5.892  -3.444  0.00  0.00    -0.007 C 
ATOM     32  C   UNL     1      -5.096  -5.747  -4.345  0.00  0.00    +0.008 C 
ENDBRANCH  29  31
ENDBRANCH  28  29
ENDBRANCH  18  28
ENDBRANCH   1  23
TORSDOF 5
