REMARK  Name = ZINC67439193
REMARK  8 active torsions:
REMARK  status: ('A' for Active; 'I' for Inactive)
REMARK    1  A    between atoms: C_1  and  C_2
REMARK    2  A    between atoms: C_5  and  C_29
REMARK    3  A    between atoms: N_8  and  C_10
REMARK    4  A    between atoms: C_10  and  C_11
REMARK    5  A    between atoms: C_11  and  C_13
REMARK    6  A    between atoms: C_11  and  N_14
REMARK    7  A    between atoms: C_15  and  C_17
REMARK    8  A    between atoms: N_19  and  C_20
REMARK                            x       y       z     vdW  Elec       q    Type
REMARK                         _______ _______ _______ _____ _____    ______ ____
ROOT
ATOM      1  N   UNL     1       3.494  -2.481   0.938  0.00  0.00    -0.307 N 
ATOM      2  C   UNL     1       4.527  -1.841   0.355  0.00  0.00    +0.299 C 
ATOM      3  O   UNL     1       5.024  -0.874   0.894  0.00  0.00    -0.265 OA
ATOM      4  H   UNL     1       3.097  -3.254   0.507  0.00  0.00    +0.149 HD
ENDROOT
BRANCH   2   5
ATOM      5  C   UNL     1       5.063  -2.324  -0.953  0.00  0.00    +0.303 C 
ATOM      6  O   UNL     1       4.567  -3.292  -1.491  0.00  0.00    -0.265 OA
ATOM      7  N   UNL     1       6.097  -1.684  -1.535  0.00  0.00    -0.275 N 
ATOM      8  H   UNL     1       6.451  -0.873  -1.137  0.00  0.00    +0.155 HD
BRANCH   7   9
ATOM      9  C   UNL     1       6.659  -2.190  -2.712  0.00  0.00    +0.072 A 
ATOM     10  C   UNL     1       5.853  -2.817  -3.653  0.00  0.00    +0.029 A 
ATOM     11  C   UNL     1       6.409  -3.317  -4.815  0.00  0.00    +0.043 A 
ATOM     12  C   UNL     1       7.769  -3.193  -5.043  0.00  0.00    +0.161 A 
ATOM     13  C   UNL     1       8.578  -2.569  -4.106  0.00  0.00    +0.195 A 
ATOM     14  C   UNL     1       8.024  -2.061  -2.943  0.00  0.00    +0.182 A 
ATOM     15  F   UNL     1       8.809  -1.447  -2.031  0.00  0.00    -0.200 F 
ATOM     16  F   UNL     1       9.905  -2.450  -4.330  0.00  0.00    -0.199 F 
ATOM     17  F   UNL     1       8.310  -3.683  -6.181  0.00  0.00    -0.202 F 
ENDBRANCH   7   9
ENDBRANCH   2   5
BRANCH   1  18
ATOM     18  C   UNL     1       2.969  -2.007   2.221  0.00  0.00    +0.054 C 
ATOM     19  C   UNL     1       3.792  -2.608   3.362  0.00  0.00    +0.026 C 
BRANCH  18  20
ATOM     20  C   UNL     1       1.508  -2.439   2.364  0.00  0.00    -0.057 C 
BRANCH  20  26
ATOM     21  C   UNL     1      -0.026   1.538  -0.044  0.00  0.00    +0.005 C 
ATOM     22  C   UNL     1      -0.006   0.008  -0.045  0.00  0.00    -0.031 C 
ATOM     23  C   UNL     1      -1.443  -0.522  -0.039  0.00  0.00    +0.003 C 
ATOM     24  C   UNL     1      -1.413  -2.051   0.039  0.00  0.00    -0.031 C 
ATOM     25  C   UNL     1      -0.632  -2.477   1.284  0.00  0.00    -0.076 C 
ATOM     26  N   UNL     1       0.740  -1.962   1.206  0.00  0.00    +0.381 N 
ATOM     27  C   UNL     1       0.723  -0.494   1.202  0.00  0.00    -0.076 C 
ATOM     28  C   UNL     1      -2.843  -2.587   0.124  0.00  0.00    +0.005 C 
ATOM     29  H   UNL     1       1.175  -2.294   0.357  0.00  0.00    -0.082 HD
ENDBRANCH  20  26
ENDBRANCH  18  20
ENDBRANCH   1  18
TORSDOF 5
