REMARK  Name = ZINC58953225
REMARK  2 active torsions:
REMARK  status: ('A' for Active; 'I' for Inactive)
REMARK    1  A    between atoms: C_1  and  C_2
REMARK    2  A    between atoms: C_12  and  C_14
REMARK                            x       y       z     vdW  Elec       q    Type
REMARK                         _______ _______ _______ _____ _____    ______ ____
ROOT
ATOM      1  C   UNL     1       0.737  -1.705   3.346  0.00  0.00    +0.078 C 
ATOM      2  C   UNL     1       1.691  -2.755   2.774  0.00  0.00    +0.032 C 
ATOM      3  C   UNL     1       2.551  -3.328   3.904  0.00  0.00    +0.110 C 
ATOM      4  N   UNL     1       1.666  -3.831   4.963  0.00  0.00    -0.285 N 
ATOM      5  C   UNL     1       0.649  -2.929   5.522  0.00  0.00    +0.110 C 
ATOM      6  C   UNL     1      -0.190  -2.361   4.373  0.00  0.00    +0.032 C 
ATOM      7  C   UNL     1       1.784  -5.096   5.414  0.00  0.00    +0.305 C 
ATOM      8  O   UNL     1       2.729  -5.779   5.068  0.00  0.00    -0.252 OA
ATOM      9  N   UNL     1       0.855  -5.604   6.248  0.00  0.00    -0.285 N 
ATOM     10  C   UNL     1      -0.265  -4.857   6.840  0.00  0.00    +0.109 C 
ATOM     11  C   UNL     1      -1.044  -5.838   7.741  0.00  0.00    +0.020 C 
ATOM     12  C   UNL     1       0.009  -6.935   8.051  0.00  0.00    +0.020 C 
ATOM     13  C   UNL     1       0.790  -7.001   6.713  0.00  0.00    +0.109 C 
ENDROOT
BRANCH   1  24
ATOM     14  C   UNL     1       2.740   0.222   0.900  0.00  0.00    +0.033 C 
ATOM     15  C   UNL     1       1.646   0.581   1.909  0.00  0.00    +0.104 C 
ATOM     16  C   UNL     1       1.416   2.091   1.907  0.00  0.00    -0.017 A 
ATOM     17  C   UNL     1       2.311   3.000   2.470  0.00  0.00    +0.013 A 
ATOM     18  C   UNL     1       2.044   4.325   2.428  0.00  0.00    +0.046 A 
ATOM     19  S   UNL     1       0.476   4.358   1.573  0.00  0.00    -0.101 S 
ATOM     20  C   UNL     1       0.294   2.610   1.338  0.00  0.00    -0.004 A 
ATOM     21  C   UNL     1      -0.825   1.873   0.677  0.00  0.00    +0.061 C 
ATOM     22  C   UNL     1      -0.356   0.444   0.362  0.00  0.00    +0.113 C 
ATOM     23  N   UNL     1       0.385  -0.068   1.526  0.00  0.00    -0.294 N 
ATOM     24  C   UNL     1      -0.087  -1.114   2.231  0.00  0.00    +0.219 C 
ATOM     25  O   UNL     1      -1.176  -1.581   1.969  0.00  0.00    -0.275 OA
ENDBRANCH   1  24
TORSDOF 1
