REMARK  Name = ZINC15480296
REMARK  13 active torsions:
REMARK  status: ('A' for Active; 'I' for Inactive)
REMARK    1  A    between atoms: C_1  and  C_2
REMARK    2  A    between atoms: C_2  and  O_3
REMARK    3  A    between atoms: O_3  and  C_4
REMARK    4  A    between atoms: C_4  and  C_6
REMARK    5  A    between atoms: C_7  and  C_19
REMARK    6  A    between atoms: C_12  and  C_14
REMARK    7  A    between atoms: C_19  and  N_60
REMARK    8  A    between atoms: C_20  and  N_60
REMARK    9  A    between atoms: C_21  and  C_22
REMARK   10  A    between atoms: C_21  and  N_60
REMARK   11  A    between atoms: N_24  and  C_25
REMARK   12  A    between atoms: C_29  and  C_32
REMARK   13  A    between atoms: C_30  and  C_31
REMARK                            x       y       z     vdW  Elec       q    Type
REMARK                         _______ _______ _______ _____ _____    ______ ____
ROOT
ATOM      1  C   UNL     1      -8.749   2.323   1.430  0.00  0.00    +0.079 C 
ATOM      2  C   UNL     1      -8.552   2.736   0.160  0.00  0.00    +0.008 C 
ATOM      3  N   UNL     1      -9.145   2.095  -0.890  0.00  0.00    -0.274 N 
ATOM      4  C   UNL     1      -9.941   1.028  -0.754  0.00  0.00    +0.304 C 
ATOM      5  O   UNL     1     -10.421   0.521  -1.750  0.00  0.00    -0.252 OA
ATOM      6  N   UNL     1     -10.233   0.499   0.451  0.00  0.00    -0.285 N 
ATOM      7  C   UNL     1      -9.646   1.121   1.650  0.00  0.00    +0.179 C 
ATOM      8  H   UNL     1      -8.977   2.430  -1.785  0.00  0.00    +0.156 HD
ATOM      9  H   UNL     1     -10.816  -0.273   0.527  0.00  0.00    +0.151 HD
ENDROOT
BRANCH   7  10
ATOM     10  C   UNL     1     -10.776   1.543   2.554  0.00  0.00    +0.130 A 
ATOM     11  C   UNL     1     -10.854   1.310   3.876  0.00  0.00    +0.047 A 
ATOM     12  C   UNL     1     -12.071   1.875   4.321  0.00  0.00    +0.041 A 
ATOM     13  C   UNL     1     -12.664   2.421   3.243  0.00  0.00    +0.195 A 
ATOM     14  O   UNL     1     -11.872   2.221   2.177  0.00  0.00    -0.466 OA
ENDBRANCH   7  10
BRANCH   1  15
ATOM     15  C   UNL     1      -8.139   2.988   2.519  0.00  0.00    +0.339 C 
ATOM     16  O   UNL     1      -7.335   3.878   2.315  0.00  0.00    -0.245 OA
BRANCH  15  17
ATOM     17  O   UNL     1      -8.450   2.637   3.785  0.00  0.00    -0.462 OA
BRANCH  17  19
ATOM     18  C   UNL     1      -8.271   2.817   6.188  0.00  0.00    +0.048 C 
ATOM     19  C   UNL     1      -7.796   3.351   4.835  0.00  0.00    +0.229 C 
ENDBRANCH  17  19
ENDBRANCH  15  17
ENDBRANCH   1  15
BRANCH   2  20
ATOM     20  C   UNL     1      -7.667   3.928  -0.103  0.00  0.00    -0.026 C 
BRANCH  20  22
ATOM     21  C   UNL     1      -5.981   2.716  -1.348  0.00  0.00    -0.095 C 
ATOM     22  N   UNL     1      -6.259   3.480  -0.114  0.00  0.00    +0.387 N 
ATOM     23  H   UNL     1      -6.095   2.873   0.698  0.00  0.00    -0.081 HD
BRANCH  22  24
ATOM     24  C   UNL     1      -5.357   4.648  -0.029  0.00  0.00    +0.019 C 
BRANCH  24  25
ATOM     25  C   UNL     1      -3.947   4.159   0.179  0.00  0.00    +0.201 C 
ATOM     26  O   UNL     1      -3.719   2.969   0.234  0.00  0.00    -0.278 OA
ATOM     27  N   UNL     1      -2.938   5.045   0.306  0.00  0.00    -0.287 N 
ATOM     28  H   UNL     1      -3.130   5.995   0.347  0.00  0.00    +0.155 HD
BRANCH  27  29
ATOM     29  C   UNL     1      -1.616   4.593   0.377  0.00  0.00    +0.036 A 
ATOM     30  C   UNL     1      -1.294   3.311  -0.047  0.00  0.00    +0.023 A 
ATOM     31  C   UNL     1       0.011   2.867   0.029  0.00  0.00    +0.002 A 
ATOM     32  C   UNL     1       0.999   3.701   0.518  0.00  0.00    +0.004 A 
ATOM     33  C   UNL     1       0.683   4.980   0.938  0.00  0.00    -0.046 A 
ATOM     34  C   UNL     1      -0.622   5.429   0.869  0.00  0.00    -0.026 A 
ATOM     35  C   UNL     1      -0.965   6.823   1.326  0.00  0.00    +0.046 C 
ATOM     36  C   UNL     1       1.763   5.886   1.471  0.00  0.00    +0.044 C 
ENDBRANCH  27  29
ENDBRANCH  24  25
ENDBRANCH  22  24
ENDBRANCH  20  22
ENDBRANCH   2  20
TORSDOF 9
