REMARK  Name = ZINC61857024
REMARK  4 active torsions:
REMARK  status: ('A' for Active; 'I' for Inactive)
REMARK    1  A    between atoms: C_3  and  S_10
REMARK    2  A    between atoms: C_6  and  N_7
REMARK    3  A    between atoms: S_10  and  C_11
REMARK    4  A    between atoms: C_14  and  C_18
REMARK                            x       y       z     vdW  Elec       q    Type
REMARK                         _______ _______ _______ _____ _____    ______ ____
ROOT
ATOM      1  C   UNL     1       5.252   1.182  -0.055  0.00  0.00    +0.014 A 
ATOM      2  C   UNL     1       4.995  -0.178  -0.215  0.00  0.00    +0.016 A 
ATOM      3  C   UNL     1       6.025  -1.075  -0.227  0.00  0.00    +0.014 A 
ATOM      4  C   UNL     1       7.343  -0.631  -0.079  0.00  0.00    +0.030 A 
ATOM      5  C   UNL     1       7.604   0.734   0.081  0.00  0.00    +0.052 A 
ATOM      6  C   UNL     1       6.560   1.635   0.087  0.00  0.00    +0.035 A 
ATOM      7 CL   UNL     1       9.237   1.293   0.266  0.00  0.00    -0.083 Cl
ENDROOT
BRANCH   4   8
ATOM      8  C   UNL     1       8.455  -1.600  -0.092  0.00  0.00    +0.096 C 
ATOM      9  N   UNL     1       9.300  -1.658   0.938  0.00  0.00    -0.387 N 
ATOM     10  N   UNL     1       8.616  -2.417  -1.132  0.00  0.00    -0.345 N 
ATOM     11  H   UNL     1       9.225  -1.019   1.664  0.00  0.00    +0.157 HD
ATOM     12  H   UNL     1       8.001  -2.375  -1.881  0.00  0.00    +0.144 HD
ATOM     13  H   UNL     1       9.347  -3.055  -1.141  0.00  0.00    +0.144 HD
ATOM     14  H   UNL     1       9.991  -2.339   0.961  0.00  0.00    +0.157 HD
ENDBRANCH   4   8
BRANCH   1  15
ATOM     15  S   UNL     1       3.917   2.332  -0.040  0.00  0.00    -0.089 S 
BRANCH  15  18
ATOM     16  C   UNL     1       3.936   1.951   3.964  0.00  0.00    +0.034 A 
ATOM     17  C   UNL     1       4.217   1.777   2.623  0.00  0.00    +0.017 A 
ATOM     18  C   UNL     1       3.561   2.550   1.672  0.00  0.00    +0.013 A 
ATOM     19  C   UNL     1       2.624   3.494   2.075  0.00  0.00    +0.017 A 
ATOM     20  C   UNL     1       2.348   3.662   3.417  0.00  0.00    +0.034 A 
ATOM     21  C   UNL     1       3.003   2.892   4.361  0.00  0.00    +0.126 A 
BRANCH  21  22
ATOM     22  N   UNL     1       2.704   3.074   5.799  0.00  0.00    +0.056 N 
ATOM     23  O   UNL     1       3.276   2.401   6.625  0.00  0.00    -0.126 OA
ATOM     24  O   UNL     1       1.889   3.896   6.147  0.00  0.00    -0.126 OA
ENDBRANCH  21  22
ENDBRANCH  15  18
ENDBRANCH   1  15
TORSDOF 4
