REMARK  Name = ZINC65467233
REMARK  3 active torsions:
REMARK  status: ('A' for Active; 'I' for Inactive)
REMARK    1  A    between atoms: C_1  and  C_2
REMARK    2  A    between atoms: C_15  and  C_17
REMARK    3  A    between atoms: N_22  and  C_24
REMARK                            x       y       z     vdW  Elec       q    Type
REMARK                         _______ _______ _______ _____ _____    ______ ____
ROOT
ATOM      1  C   UNL     1      -2.433   1.282  -1.517  0.00  0.00    +0.007 C 
ATOM      2  C   UNL     1      -2.287  -0.235  -1.383  0.00  0.00    -0.014 C 
ATOM      3  C   UNL     1      -2.171  -0.605   0.097  0.00  0.00    +0.005 C 
ATOM      4  C   UNL     1      -2.005  -2.120   0.242  0.00  0.00    +0.023 C 
ATOM      5  C   UNL     1      -0.744  -2.556  -0.502  0.00  0.00    +0.079 C 
ATOM      6  C   UNL     1      -0.893  -2.209  -1.987  0.00  0.00    +0.010 C 
ATOM      7  C   UNL     1      -1.033  -0.694  -2.132  0.00  0.00    +0.008 C 
ATOM      8  C   UNL     1       0.337  -2.706  -2.744  0.00  0.00    +0.007 C 
ATOM      9  C   UNL     1       0.425  -4.230  -2.616  0.00  0.00    +0.019 C 
ATOM     10  C   UNL     1       0.559  -4.618  -1.141  0.00  0.00    +0.108 C 
ATOM     11  N   UNL     1      -0.546  -4.004  -0.377  0.00  0.00    -0.294 N 
ATOM     12  C   UNL     1      -1.345  -4.746   0.415  0.00  0.00    +0.248 C 
ATOM     13  O   UNL     1      -2.167  -4.204   1.129  0.00  0.00    -0.270 OA
ENDROOT
BRANCH  12  14
ATOM     14  C   UNL     1      -1.222  -6.216   0.417  0.00  0.00    +0.053 A 
ATOM     15  C   UNL     1      -0.484  -6.869   1.434  0.00  0.00    +0.020 A 
ATOM     16  C   UNL     1      -0.388  -8.225   1.411  0.00  0.00    +0.071 A 
ATOM     17  C   UNL     1      -1.020  -8.948   0.382  0.00  0.00    +0.251 A 
ATOM     18  O   UNL     1      -0.937 -10.164   0.356  0.00  0.00    -0.268 OA
ATOM     19  N   UNL     1      -1.717  -8.307  -0.575  0.00  0.00    -0.318 N 
ATOM     20  C   UNL     1      -1.830  -6.965  -0.569  0.00  0.00    +0.101 A 
ATOM     21  C   UNL     1      -2.366  -9.081  -1.635  0.00  0.00    +0.152 C 
ENDBRANCH  12  14
TORSDOF 1
