REMARK  Name = ZINC35606474
REMARK  10 active torsions:
REMARK  status: ('A' for Active; 'I' for Inactive)
REMARK    1  A    between atoms: C_1  and  C_2
REMARK    2  A    between atoms: C_7  and  C_21
REMARK    3  A    between atoms: C_8  and  N_11
REMARK    4  A    between atoms: N_11  and  C_12
REMARK    5  A    between atoms: C_15  and  C_18
REMARK    6  A    between atoms: C_18  and  C_19
REMARK    7  A    between atoms: C_18  and  C_20
REMARK    8  A    between atoms: C_24  and  O_29
REMARK    9  A    between atoms: C_25  and  O_27
REMARK   10  A    between atoms: O_27  and  C_28
REMARK                            x       y       z     vdW  Elec       q    Type
REMARK                         _______ _______ _______ _____ _____    ______ ____
ROOT
ATOM      1  C   UNL     1       3.820  -0.181   0.445  0.00  0.00    +0.045 C 
ATOM      2  C   UNL     1       2.685  -1.162   0.302  0.00  0.00    -0.034 A 
ATOM      3  C   UNL     1       2.371  -1.689  -0.964  0.00  0.00    +0.008 A 
ATOM      4  C   UNL     1       1.347  -2.574  -1.092  0.00  0.00    +0.045 A 
ATOM      5  C   UNL     1       0.612  -2.952   0.050  0.00  0.00    +0.117 A 
ATOM      6  N   UNL     1      -0.412  -3.776   0.211  0.00  0.00    -0.338 N 
ATOM      7  C   UNL     1      -0.763  -3.800   1.509  0.00  0.00    +0.087 A 
ATOM      8  C   UNL     1       0.079  -2.950   2.195  0.00  0.00    +0.133 A 
ATOM      9  N   UNL     1       0.942  -2.420   1.275  0.00  0.00    -0.289 N 
ATOM     10  C   UNL     1       1.979  -1.534   1.388  0.00  0.00    +0.097 A 
ATOM     11  H   UNL     1      -0.841  -4.283  -0.497  0.00  0.00    +0.167 HD
ENDROOT
BRANCH   7  12
ATOM     12  C   UNL     1      -1.864  -4.598   2.098  0.00  0.00    +0.005 A 
ATOM     13  C   UNL     1      -2.744  -4.012   3.007  0.00  0.00    +0.014 A 
ATOM     14  C   UNL     1      -3.768  -4.757   3.556  0.00  0.00    +0.050 A 
ATOM     15  C   UNL     1      -3.925  -6.089   3.204  0.00  0.00    +0.158 A 
ATOM     16  C   UNL     1      -3.050  -6.680   2.297  0.00  0.00    +0.162 A 
ATOM     17  C   UNL     1      -2.025  -5.936   1.740  0.00  0.00    +0.059 A 
BRANCH  16  18
ATOM     18  O   UNL     1      -3.206  -7.987   1.954  0.00  0.00    -0.491 OA
ATOM     19  C   UNL     1      -2.272  -8.528   1.018  0.00  0.00    +0.277 C 
ENDBRANCH  16  18
BRANCH  15  20
ATOM     20  O   UNL     1      -4.936  -6.819   3.748  0.00  0.00    -0.503 OA
ATOM     21  H   UNL     1      -5.758  -6.793   3.239  0.00  0.00    +0.292 HD
ENDBRANCH  15  20
ENDBRANCH   7  12
BRANCH   8  22
ATOM     22  N   UNL     1       0.056  -2.683   3.565  0.00  0.00    -0.299 N 
ATOM     23  H   UNL     1       0.404  -3.336   4.192  0.00  0.00    +0.154 HD
BRANCH  22  24
ATOM     24  C   UNL     1      -0.470  -1.477   4.032  0.00  0.00    +0.032 A 
ATOM     25  C   UNL     1      -1.093  -0.602   3.151  0.00  0.00    +0.023 A 
ATOM     26  C   UNL     1      -1.612   0.590   3.617  0.00  0.00    +0.006 A 
ATOM     27  C   UNL     1      -1.512   0.913   4.958  0.00  0.00    -0.045 A 
ATOM     28  C   UNL     1      -0.891   0.044   5.837  0.00  0.00    +0.006 A 
ATOM     29  C   UNL     1      -0.375  -1.152   5.380  0.00  0.00    +0.023 A 
BRANCH  27  30
ATOM     30  C   UNL     1      -2.079   2.215   5.462  0.00  0.00    +0.013 C 
ATOM     31  C   UNL     1      -3.149   1.931   6.518  0.00  0.00    +0.012 C 
ATOM     32  C   UNL     1      -0.959   3.053   6.083  0.00  0.00    +0.012 C 
ENDBRANCH  27  30
ENDBRANCH  22  24
ENDBRANCH   8  22
TORSDOF 6
