REMARK  Name = ZINC13816196
REMARK  9 active torsions:
REMARK  status: ('A' for Active; 'I' for Inactive)
REMARK    1  A    between atoms: C_5  and  C_7
REMARK    2  A    between atoms: C_7  and  C_9
REMARK    3  A    between atoms: C_7  and  C_23
REMARK    4  A    between atoms: C_9  and  C_10
REMARK    5  A    between atoms: C_10  and  N_11
REMARK    6  A    between atoms: N_13  and  C_14
REMARK    7  A    between atoms: C_14  and  C_15
REMARK    8  A    between atoms: C_15  and  C_16
REMARK    9  A    between atoms: C_16  and  C_17
REMARK                            x       y       z     vdW  Elec       q    Type
REMARK                         _______ _______ _______ _____ _____    ______ ____
ROOT
ATOM      1  N   UNL     1       5.720  -1.864  -2.179  0.00  0.00    -0.358 N 
ATOM      2  C   UNL     1       6.772  -2.442  -2.850  0.00  0.00    +0.169 C 
ATOM      3  N   UNL     1       6.671  -2.697  -4.197  0.00  0.00    -0.358 N 
ATOM      4  H   UNL     1       4.907  -1.637  -2.656  0.00  0.00    +0.162 HD
ATOM      5  H   UNL     1       8.662  -3.157  -2.594  0.00  0.00    +0.159 HD
ATOM      6  H   UNL     1       5.858  -2.470  -4.674  0.00  0.00    +0.162 HD
ATOM      7  N   UNL     1       7.855  -2.728  -2.141  0.00  0.00    -0.371 N 
ATOM      8  H   UNL     1       7.881  -2.517  -1.137  0.00  0.00    +0.159 HD
ENDROOT
BRANCH   1   9
ATOM      9  C   UNL     1       5.827  -1.592  -0.744  0.00  0.00    +0.116 C 
BRANCH   9  10
ATOM     10  C   UNL     1       4.529  -0.953  -0.247  0.00  0.00    +0.035 C 
BRANCH  10  11
ATOM     11  C   UNL     1       4.641  -0.668   1.252  0.00  0.00    +0.072 C 
BRANCH  11  16
ATOM     12  C   UNL     1       3.905  -4.146   2.525  0.00  0.00    +0.000 A 
ATOM     13  C   UNL     1       4.971  -4.360   3.380  0.00  0.00    +0.003 A 
ATOM     14  C   UNL     1       5.930  -3.379   3.548  0.00  0.00    +0.038 A 
ATOM     15  C   UNL     1       5.827  -2.185   2.855  0.00  0.00    +0.127 A 
ATOM     16  C   UNL     1       4.757  -1.970   2.003  0.00  0.00    -0.003 A 
ATOM     17  C   UNL     1       3.799  -2.952   1.837  0.00  0.00    +0.007 A 
ATOM     18  F   UNL     1       6.768  -1.228   3.014  0.00  0.00    -0.205 F 
ENDBRANCH  11  16
BRANCH  11  19
ATOM     19  C   UNL     1       3.414   0.072   1.716  0.00  0.00    +0.049 A 
ATOM     20  C   UNL     1       2.185  -0.225   1.158  0.00  0.00    +0.024 A 
ATOM     21  C   UNL     1       1.062   0.462   1.591  0.00  0.00    +0.003 A 
ATOM     22  C   UNL     1       1.217   1.426   2.576  0.00  0.00    +0.020 A 
ATOM     23  C   UNL     1       2.477   1.669   3.088  0.00  0.00    +0.111 A 
ATOM     24  N   UNL     1       3.524   0.996   2.651  0.00  0.00    -0.259 NA
ENDBRANCH  11  19
ENDBRANCH  10  11
ENDBRANCH   9  10
ENDBRANCH   1   9
BRANCH   3  25
ATOM     25  C   UNL     1       7.792  -3.312  -4.912  0.00  0.00    +0.116 C 
BRANCH  25  26
ATOM     26  C   UNL     1       7.423  -3.486  -6.386  0.00  0.00    +0.027 C 
BRANCH  26  27
ATOM     27  C   UNL     1       8.594  -4.128  -7.133  0.00  0.00    +0.058 C 
BRANCH  27  28
ATOM     28  C   UNL     1       8.230  -4.300  -8.585  0.00  0.00    +0.059 A 
ATOM     29  C   UNL     1       8.930  -3.833  -9.637  0.00  0.00    +0.107 A 
ATOM     30  N   UNL     1       8.251  -4.211 -10.764  0.00  0.00    -0.351 N 
ATOM     31  H   UNL     1       8.514  -4.016 -11.709  0.00  0.00    +0.166 HD
ATOM     32  C   UNL     1       7.158  -4.895 -10.361  0.00  0.00    +0.196 A 
ATOM     33  N   UNL     1       7.155  -4.949  -9.058  0.00  0.00    -0.241 NA
ENDBRANCH  27  28
ENDBRANCH  26  27
ENDBRANCH  25  26
ENDBRANCH   3  25
TORSDOF 9
