REMARK  Name = ZINC59045781
REMARK  12 active torsions:
REMARK  status: ('A' for Active; 'I' for Inactive)
REMARK    1  A    between atoms: C_1  and  C_2
REMARK    2  A    between atoms: C_2  and  C_3
REMARK    3  A    between atoms: C_3  and  C_4
REMARK    4  A    between atoms: C_4  and  S_5
REMARK    5  A    between atoms: S_5  and  C_6
REMARK    6  A    between atoms: C_11  and  N_15
REMARK    7  A    between atoms: C_16  and  C_18
REMARK    8  A    between atoms: C_18  and  S_19
REMARK    9  A    between atoms: S_19  and  C_20
REMARK   10  A    between atoms: C_23  and  C_26
REMARK   11  A    between atoms: N_24  and  N_25
REMARK   12  A    between atoms: C_31  and  O_32
REMARK                            x       y       z     vdW  Elec       q    Type
REMARK                         _______ _______ _______ _____ _____    ______ ____
ROOT
ATOM      1  N   UNL     1       1.325 -10.613  -2.129  0.00  0.00    -0.285 N 
ATOM      2  C   UNL     1       0.888 -11.450  -1.168  0.00  0.00    +0.227 C 
ATOM      3  O   UNL     1       0.308 -11.010  -0.198  0.00  0.00    -0.275 OA
ATOM      4  H   UNL     1       1.733 -10.969  -2.934  0.00  0.00    +0.155 HD
ENDROOT
BRANCH   1  10
ATOM      5  C   UNL     1      -0.393  -4.718  -0.794  0.00  0.00    +0.136 A 
ATOM      6  N   UNL     1       0.685  -5.128  -1.423  0.00  0.00    -0.233 NA
ATOM      7  C   UNL     1       0.941  -6.436  -1.649  0.00  0.00    +0.080 A 
ATOM      8  C   UNL     1       2.054  -7.005  -2.309  0.00  0.00    +0.031 A 
ATOM      9  C   UNL     1       2.165  -8.362  -2.457  0.00  0.00    +0.025 A 
ATOM     10  C   UNL     1       1.191  -9.228  -1.966  0.00  0.00    +0.035 A 
ATOM     11  C   UNL     1       0.085  -8.701  -1.312  0.00  0.00    +0.040 A 
ATOM     12  C   UNL     1      -0.029  -7.342  -1.163  0.00  0.00    +0.042 A 
ATOM     13  S   UNL     1      -1.222  -6.256  -0.418  0.00  0.00    -0.061 S 
BRANCH   5  14
ATOM     14  S   UNL     1      -0.891  -3.072  -0.410  0.00  0.00    -0.099 S 
BRANCH  14  15
ATOM     15  C   UNL     1       0.434  -2.042  -1.098  0.00  0.00    +0.076 C 
BRANCH  15  16
ATOM     16  C   UNL     1       0.123  -0.567  -0.832  0.00  0.00    +0.011 C 
BRANCH  16  18
ATOM     17  C   UNL     1       0.930   1.776  -1.146  0.00  0.00    +0.004 C 
ATOM     18  C   UNL     1       1.241   0.302  -1.412  0.00  0.00    -0.003 C 
ENDBRANCH  16  18
ENDBRANCH  15  16
ENDBRANCH  14  15
ENDBRANCH   5  14
ENDBRANCH   1  10
BRANCH   2  19
ATOM     19  C   UNL     1       1.118 -12.934  -1.299  0.00  0.00    +0.173 C 
BRANCH  19  20
ATOM     20  S   UNL     1       0.419 -13.784   0.142  0.00  0.00    -0.075 S 
BRANCH  20  21
ATOM     21  C   UNL     1       0.765 -15.486  -0.157  0.00  0.00    +0.209 A 
ATOM     22  N   UNL     1       1.395 -15.982  -1.198  0.00  0.00    -0.121 NA
ATOM     23  N   UNL     1       1.476 -17.260  -1.097  0.00  0.00    -0.127 NA
ATOM     24  C   UNL     1       0.901 -17.660   0.014  0.00  0.00    +0.185 A 
ATOM     25  N   UNL     1       0.433 -16.535   0.653  0.00  0.00    -0.224 N 
BRANCH  24  26
ATOM     26  C   UNL     1       0.784 -19.054   0.490  0.00  0.00    +0.062 A 
ATOM     27  C   UNL     1      -0.450 -19.549   0.913  0.00  0.00    +0.015 A 
ATOM     28  C   UNL     1      -0.553 -20.851   1.356  0.00  0.00    +0.001 A 
ATOM     29  C   UNL     1       0.563 -21.669   1.384  0.00  0.00    +0.004 A 
ATOM     30  C   UNL     1       1.791 -21.190   0.968  0.00  0.00    +0.046 A 
ATOM     31  C   UNL     1       1.909 -19.886   0.513  0.00  0.00    +0.128 A 
BRANCH  31  32
ATOM     32  O   UNL     1       3.114 -19.416   0.098  0.00  0.00    -0.506 OA
ATOM     33  H   UNL     1       3.643 -19.014   0.800  0.00  0.00    +0.292 HD
ENDBRANCH  31  32
ENDBRANCH  24  26
BRANCH  25  34
ATOM     34  N   UNL     1      -0.228 -16.479   1.847  0.00  0.00    -0.295 N 
ATOM     35  H   UNL     1      -1.228 -16.472   1.707  0.00  0.00    +0.163 HD
ATOM     36  H   UNL     1       0.047 -17.241   2.449  0.00  0.00    +0.163 HD
ENDBRANCH  25  34
ENDBRANCH  20  21
ENDBRANCH  19  20
ENDBRANCH   2  19
TORSDOF 11
