REMARK  Name = ZINC39519686
REMARK  7 active torsions:
REMARK  status: ('A' for Active; 'I' for Inactive)
REMARK    1  A    between atoms: C_1  and  C_2
REMARK    2  A    between atoms: C_4  and  C_7
REMARK    3  A    between atoms: C_7  and  N_8
REMARK    4  A    between atoms: N_11  and  C_14
REMARK    5  A    between atoms: C_14  and  C_15
REMARK    6  A    between atoms: N_17  and  C_18
REMARK    7  A    between atoms: C_19  and  C_27
REMARK                            x       y       z     vdW  Elec       q    Type
REMARK                         _______ _______ _______ _____ _____    ______ ____
ROOT
ATOM      1  C   UNL     1      -2.534  -7.629  -4.747  0.00  0.00    +0.232 C 
ATOM      2  O   UNL     1      -2.920  -8.071  -3.686  0.00  0.00    -0.274 OA
ATOM      3  N   UNL     1      -2.819  -8.281  -5.892  0.00  0.00    -0.278 N 
ATOM      4  H   UNL     1      -2.510  -7.928  -6.741  0.00  0.00    +0.155 HD
ENDROOT
BRANCH   3   5
ATOM      5  C   UNL     1      -3.551  -9.458  -5.856  0.00  0.00    +0.084 A 
ATOM      6  C   UNL     1      -3.930 -10.259  -6.922  0.00  0.00    +0.068 A 
ATOM      7  C   UNL     1      -4.702 -11.451  -6.615  0.00  0.00    -0.023 A 
ATOM      8  C   UNL     1      -4.955 -11.622  -5.300  0.00  0.00    -0.004 A 
ATOM      9  S   UNL     1      -4.179 -10.243  -4.510  0.00  0.00    -0.077 S 
ATOM     10  C   UNL     1      -5.722 -12.743  -4.670  0.00  0.00    +0.043 C 
ATOM     11  C   UNL     1      -6.503 -13.473  -5.773  0.00  0.00    +0.005 C 
ATOM     12  C   UNL     1      -5.558 -13.754  -6.946  0.00  0.00    +0.005 C 
ATOM     13  C   UNL     1      -5.202 -12.445  -7.653  0.00  0.00    +0.037 C 
BRANCH   6  14
ATOM     14  C   UNL     1      -3.566  -9.918  -8.300  0.00  0.00    +0.244 C 
ATOM     15  O   UNL     1      -2.523 -10.330  -8.774  0.00  0.00    -0.270 OA
ATOM     16  N   UNL     1      -4.386  -9.149  -9.043  0.00  0.00    -0.325 N 
ATOM     17  H   UNL     1      -5.217  -8.822  -8.666  0.00  0.00    +0.145 HD
ATOM     18  H   UNL     1      -4.145  -8.924  -9.956  0.00  0.00    +0.145 HD
ENDBRANCH   6  14
ENDBRANCH   3   5
BRANCH   1  19
ATOM     19  C   UNL     1      -1.738  -6.351  -4.786  0.00  0.00    +0.180 C 
BRANCH  19  23
ATOM     20  N   UNL     1      -1.692  -3.833  -1.391  0.00  0.00    +0.385 N 
ATOM     21  C   UNL     1      -0.403  -4.268  -1.945  0.00  0.00    -0.063 C 
ATOM     22  C   UNL     1      -0.600  -4.731  -3.390  0.00  0.00    +0.066 C 
ATOM     23  N   UNL     1      -1.565  -5.840  -3.420  0.00  0.00    -0.298 NA
ATOM     24  C   UNL     1      -2.852  -5.426  -2.845  0.00  0.00    +0.066 C 
ATOM     25  C   UNL     1      -2.637  -4.957  -1.405  0.00  0.00    -0.063 C 
ATOM     26  H   UNL     1      -2.059  -3.078  -1.950  0.00  0.00    -0.081 HD
BRANCH  20  27
ATOM     27  C   UNL     1      -1.500  -3.372  -0.010  0.00  0.00    -0.019 C 
BRANCH  27  31
ATOM     28  C   UNL     1      -0.018   1.503   0.010  0.00  0.00    +0.089 C 
ATOM     29  C   UNL     1       0.002  -0.004   0.002  0.00  0.00    +0.134 A 
ATOM     30  C   UNL     1      -1.077  -0.810   0.003  0.00  0.00    +0.068 A 
ATOM     31  C   UNL     1      -0.627  -2.143  -0.007  0.00  0.00    +0.067 A 
ATOM     32  N   UNL     1       0.676  -2.130  -0.013  0.00  0.00    -0.085 NA
ATOM     33  O   UNL     1       1.098  -0.778  -0.013  0.00  0.00    -0.360 OA
ENDBRANCH  27  31
ENDBRANCH  20  27
ENDBRANCH  19  23
ENDBRANCH   1  19
TORSDOF 6
