REMARK  Name = ZINC39631482
REMARK  11 active torsions:
REMARK  status: ('A' for Active; 'I' for Inactive)
REMARK    1  A    between atoms: C_1  and  C_2
REMARK    2  A    between atoms: C_2  and  C_4
REMARK    3  A    between atoms: C_2  and  N_11
REMARK    4  A    between atoms: C_4  and  C_5
REMARK    5  A    between atoms: C_5  and  C_6
REMARK    6  A    between atoms: C_6  and  C_7
REMARK    7  A    between atoms: C_7  and  C_8
REMARK    8  A    between atoms: C_7  and  C_9
REMARK    9  A    between atoms: C_7  and  O_10
REMARK   10  A    between atoms: C_12  and  C_14
REMARK   11  A    between atoms: C_25  and  C_27
REMARK                            x       y       z     vdW  Elec       q    Type
REMARK                         _______ _______ _______ _____ _____    ______ ____
ROOT
ATOM      1  C   UNL     1       0.373  -1.528   3.258  0.00  0.00    +0.100 C 
ATOM      2  C   UNL     1       1.079  -2.902   3.231  0.00  0.00    +0.121 C 
ATOM      3  N   UNL     1       0.901  -3.442   4.599  0.00  0.00    -0.296 N 
ATOM      4  C   UNL     1      -0.481  -3.054   4.972  0.00  0.00    +0.115 C 
ATOM      5  C   UNL     1      -0.650  -1.632   4.402  0.00  0.00    -0.004 C 
ATOM      6  C   UNL     1      -0.347  -0.593   5.477  0.00  0.00    -0.010 C 
ATOM      7  C   UNL     1      -1.411  -0.678   6.576  0.00  0.00    -0.082 C 
ATOM      8  N   UNL     1      -2.737  -0.439   5.995  0.00  0.00    +0.379 N 
ATOM      9  C   UNL     1      -3.059  -1.495   5.028  0.00  0.00    -0.082 C 
ATOM     10  C   UNL     1      -2.065  -1.445   3.864  0.00  0.00    -0.010 C 
ATOM     11  C   UNL     1       1.794  -4.130   5.338  0.00  0.00    +0.247 C 
ATOM     12  O   UNL     1       2.931  -4.276   4.936  0.00  0.00    -0.270 OA
ATOM     13  H   UNL     1      -3.429  -0.435   6.729  0.00  0.00    -0.086 HD
ATOM     14  H   UNL     1      -2.742   0.456   5.528  0.00  0.00    -0.086 HD
ENDROOT
BRANCH  11  15
ATOM     15  C   UNL     1       1.389  -4.707   6.638  0.00  0.00    +0.037 A 
ATOM     16  C   UNL     1       0.041  -4.946   6.910  0.00  0.00    +0.013 A 
ATOM     17  C   UNL     1      -0.330  -5.485   8.124  0.00  0.00    +0.001 A 
ATOM     18  C   UNL     1       0.631  -5.787   9.073  0.00  0.00    +0.000 A 
ATOM     19  C   UNL     1       1.969  -5.551   8.810  0.00  0.00    +0.001 A 
ATOM     20  C   UNL     1       2.354  -5.019   7.597  0.00  0.00    +0.013 A 
ENDBRANCH  11  15
BRANCH   1  22
ATOM     21  N   UNL     1      -0.501  -0.008   1.513  0.00  0.00    -0.312 N 
ATOM     22  C   UNL     1      -0.328  -1.272   1.949  0.00  0.00    +0.218 C 
ATOM     23  O   UNL     1      -0.736  -2.202   1.287  0.00  0.00    -0.275 OA
ATOM     24  H   UNL     1      -0.174   0.737   2.042  0.00  0.00    +0.149 HD
BRANCH  21  26
ATOM     25  C   UNL     1      -2.695   0.269   0.469  0.00  0.00    +0.028 C 
ATOM     26  C   UNL     1      -1.182   0.241   0.240  0.00  0.00    +0.070 C 
BRANCH  26  27
ATOM     27  C   UNL     1      -0.727   1.588  -0.326  0.00  0.00    +0.022 C 
BRANCH  27  28
ATOM     28  C   UNL     1       0.762   1.519  -0.671  0.00  0.00    +0.005 C 
BRANCH  28  29
ATOM     29  C   UNL     1       1.217   2.865  -1.238  0.00  0.00    +0.034 C 
BRANCH  29  30
ATOM     30  C   UNL     1       2.706   2.797  -1.583  0.00  0.00    +0.061 C 
ATOM     31  C   UNL     1       2.938   1.700  -2.624  0.00  0.00    +0.041 C 
ATOM     32  C   UNL     1       3.161   4.143  -2.150  0.00  0.00    +0.041 C 
BRANCH  30  33
ATOM     33  O   UNL     1       3.455   2.499  -0.403  0.00  0.00    -0.389 OA
ATOM     34  H   UNL     1       3.355   3.154   0.302  0.00  0.00    +0.210 HD
ENDBRANCH  30  33
ENDBRANCH  29  30
ENDBRANCH  28  29
ENDBRANCH  27  28
ENDBRANCH  26  27
ENDBRANCH  21  26
ENDBRANCH   1  22
TORSDOF 8
