REMARK  Name = ZINC63187771
REMARK  5 active torsions:
REMARK  status: ('A' for Active; 'I' for Inactive)
REMARK    1  A    between atoms: C_7  and  C_10
REMARK    2  A    between atoms: C_10  and  C_11
REMARK    3  A    between atoms: N_13  and  N_14
REMARK    4  A    between atoms: C_15  and  C_17
REMARK    5  A    between atoms: C_17  and  N_18
REMARK                            x       y       z     vdW  Elec       q    Type
REMARK                         _______ _______ _______ _____ _____    ______ ____
ROOT
ATOM      1  N   UNL     1      -0.567  -5.122  -3.001  0.00  0.00    -0.233 N 
ATOM      2  C   UNL     1      -1.380  -6.168  -3.245  0.00  0.00    +0.247 C 
ATOM      3  O   UNL     1      -1.926  -6.740  -2.325  0.00  0.00    -0.273 OA
ATOM      4  H   UNL     1      -0.131  -4.665  -3.737  0.00  0.00    +0.173 HD
ENDROOT
BRANCH   1   7
ATOM      5  C   UNL     1       0.460  -3.646  -1.440  0.00  0.00    +0.233 C 
ATOM      6  O   UNL     1       1.006  -3.075  -2.360  0.00  0.00    -0.274 OA
ATOM      7  N   UNL     1      -0.353  -4.693  -1.684  0.00  0.00    -0.234 N 
ATOM      8  H   UNL     1      -0.790  -5.150  -0.948  0.00  0.00    +0.173 HD
BRANCH   5   9
ATOM      9  C   UNL     1       0.691  -3.186  -0.024  0.00  0.00    +0.130 C 
BRANCH   9  16
ATOM     10  C   UNL     1      -0.016   1.348   0.009  0.00  0.00    +0.001 A 
ATOM     11  C   UNL     1       1.166   2.101   0.002  0.00  0.00    +0.002 A 
ATOM     12  C   UNL     1       2.391   1.535  -0.013  0.00  0.00    +0.026 A 
ATOM     13  C   UNL     1       2.529   0.120  -0.022  0.00  0.00    +0.043 A 
ATOM     14  N   UNL     1       3.587  -0.654  -0.037  0.00  0.00    -0.380 N 
ATOM     15  C   UNL     1       3.143  -2.053  -0.041  0.00  0.00    +0.145 C 
ATOM     16  C   UNL     1       1.631  -2.008  -0.025  0.00  0.00    -0.033 C 
ATOM     17  C   UNL     1       1.295  -0.698  -0.014  0.00  0.00    -0.001 A 
ATOM     18  C   UNL     1       0.002  -0.004   0.002  0.00  0.00    +0.010 A 
ATOM     19  H   UNL     1       4.509  -0.353  -0.045  0.00  0.00    +0.160 HD
ENDBRANCH   9  16
ENDBRANCH   5   9
ENDBRANCH   1   7
BRANCH   2  20
ATOM     20  C   UNL     1      -1.611  -6.629  -4.661  0.00  0.00    +0.215 C 
BRANCH  20  21
ATOM     21  N   UNL     1      -2.526  -7.774  -4.660  0.00  0.00    -0.215 N 
ATOM     22  C   UNL     1      -2.130  -9.062  -4.569  0.00  0.00    +0.247 C 
ATOM     23  O   UNL     1      -0.995  -9.478  -4.477  0.00  0.00    -0.273 OA
ATOM     24  C   UNL     1      -3.401  -9.871  -4.606  0.00  0.00    +0.113 C 
ATOM     25  C   UNL     1      -3.561 -10.706  -3.328  0.00  0.00    +0.035 C 
ATOM     26  C   UNL     1      -4.238 -12.013  -3.817  0.00  0.00    +0.003 C 
ATOM     27  C   UNL     1      -3.568 -12.255  -5.193  0.00  0.00    +0.003 C 
ATOM     28  C   UNL     1      -3.408 -10.840  -5.791  0.00  0.00    +0.035 C 
ATOM     29  N   UNL     1      -4.467  -8.875  -4.723  0.00  0.00    -0.285 N 
ATOM     30  C   UNL     1      -3.858  -7.672  -4.742  0.00  0.00    +0.310 C 
ATOM     31  O   UNL     1      -4.452  -6.615  -4.828  0.00  0.00    -0.252 OA
ATOM     32  H   UNL     1      -5.421  -9.046  -4.774  0.00  0.00    +0.151 HD
ENDBRANCH  20  21
ENDBRANCH   2  20
TORSDOF 5
