REMARK  Name = ZINC12373420
REMARK  11 active torsions:
REMARK  status: ('A' for Active; 'I' for Inactive)
REMARK    1  A    between atoms: C_2  and  C_3
REMARK    2  A    between atoms: C_3  and  C_4
REMARK    3  A    between atoms: C_4  and  C_5
REMARK    4  A    between atoms: C_4  and  C_8
REMARK    5  A    between atoms: C_4  and  O_29
REMARK    6  A    between atoms: C_5  and  C_6
REMARK    7  A    between atoms: C_8  and  N_9
REMARK    8  A    between atoms: C_10  and  C_12
REMARK    9  A    between atoms: C_12  and  C_13
REMARK   10  A    between atoms: C_20  and  C_21
REMARK   11  A    between atoms: C_20  and  N_56
REMARK                            x       y       z     vdW  Elec       q    Type
REMARK                         _______ _______ _______ _____ _____    ______ ____
ROOT
ATOM      1  C   UNL     1      -1.155   2.616   0.534  0.00  0.00    +0.028 C 
ATOM      2  C   UNL     1      -1.119   4.056   0.105  0.00  0.00    +0.200 C 
ATOM      3  O   UNL     1      -0.095   4.493  -0.377  0.00  0.00    -0.278 OA
ATOM      4  N   UNL     1      -2.165   4.877   0.233  0.00  0.00    -0.318 N 
ATOM      5  C   UNL     1      -3.453   4.442   0.765  0.00  0.00    +0.085 C 
ATOM      6  C   UNL     1      -3.286   3.132   1.538  0.00  0.00    -0.058 C 
ATOM      7  H   UNL     1      -2.065   5.802  -0.041  0.00  0.00    +0.149 HD
ATOM      8  N   UNL     1      -2.557   2.182   0.674  0.00  0.00    +0.391 N 
ATOM      9  H   UNL     1      -2.998   2.165  -0.253  0.00  0.00    -0.080 HD
ENDROOT
BRANCH   1  10
ATOM     10  C   UNL     1      -0.469   1.753  -0.526  0.00  0.00    +0.089 C 
BRANCH  10  12
ATOM     11  N   UNL     1      -0.710   1.308  -2.948  0.00  0.00    -0.313 N 
ATOM     12  C   UNL     1      -1.202   1.891  -1.836  0.00  0.00    +0.212 C 
ATOM     13  O   UNL     1      -2.234   2.525  -1.890  0.00  0.00    -0.276 OA
ATOM     14  H   UNL     1       0.116   0.801  -2.905  0.00  0.00    +0.149 HD
BRANCH  11  15
ATOM     15  C   UNL     1      -1.422   1.442  -4.221  0.00  0.00    +0.139 C 
BRANCH  15  16
ATOM     16  C   UNL     1      -0.725   0.594  -5.287  0.00  0.00    +0.088 C 
BRANCH  16  17
ATOM     17  O   UNL     1      -0.733  -0.777  -4.885  0.00  0.00    -0.386 OA
ATOM     18  H   UNL     1      -0.281  -0.944  -4.046  0.00  0.00    +0.210 HD
ENDBRANCH  16  17
BRANCH  16  19
ATOM     19  C   UNL     1      -1.464   0.739  -6.618  0.00  0.00    +0.063 C 
BRANCH  19  21
ATOM     20  C   UNL     1      -3.885   1.021  -6.773  0.00  0.00    +0.004 C 
ATOM     21  C   UNL     1      -2.878   0.241  -6.464  0.00  0.00    -0.032 C 
ENDBRANCH  19  21
ENDBRANCH  16  19
BRANCH  16  22
ATOM     22  C   UNL     1       0.720   1.069  -5.452  0.00  0.00    +0.063 C 
BRANCH  22  23
ATOM     23  C   UNL     1       1.370   0.317  -6.585  0.00  0.00    -0.032 C 
ATOM     24  C   UNL     1       1.922   0.974  -7.575  0.00  0.00    +0.004 C 
ENDBRANCH  22  23
ENDBRANCH  16  22
ENDBRANCH  15  16
ENDBRANCH  11  15
ENDBRANCH  10  12
ENDBRANCH   1  10
BRANCH   8  25
ATOM     25  C   UNL     1      -2.610   0.822   1.258  0.00  0.00    -0.042 C 
BRANCH  25  26
ATOM     26  C   UNL     1      -4.049   0.441   1.492  0.00  0.00    -0.061 A 
ATOM     27  C   UNL     1      -4.648   0.717   2.707  0.00  0.00    +0.005 A 
ATOM     28  C   UNL     1      -5.969   0.373   2.922  0.00  0.00    +0.041 A 
ATOM     29  C   UNL     1      -6.692  -0.258   1.924  0.00  0.00    +0.158 A 
ATOM     30  C   UNL     1      -6.090  -0.539   0.707  0.00  0.00    +0.159 A 
ATOM     31  C   UNL     1      -4.768  -0.189   0.493  0.00  0.00    +0.043 A 
ATOM     32  F   UNL     1      -6.793  -1.155  -0.269  0.00  0.00    -0.202 F 
ATOM     33  F   UNL     1      -7.982  -0.598   2.135  0.00  0.00    -0.202 F 
ENDBRANCH  25  26
ENDBRANCH   8  25
TORSDOF 11
