REMARK  Name = ZINC17067551
REMARK  6 active torsions:
REMARK  status: ('A' for Active; 'I' for Inactive)
REMARK    1  A    between atoms: C_1  and  C_2
REMARK    2  A    between atoms: C_2  and  C_3
REMARK    3  A    between atoms: C_2  and  C_4
REMARK    4  A    between atoms: C_7  and  N_10
REMARK    5  A    between atoms: C_11  and  C_13
REMARK    6  A    between atoms: C_13  and  C_14
REMARK                            x       y       z     vdW  Elec       q    Type
REMARK                         _______ _______ _______ _____ _____    ______ ____
ROOT
ATOM      1  C   UNL     1       4.568  -1.802  -6.237  0.00  0.00    +0.089 C 
ENDROOT
BRANCH   1   2
ATOM      2  C   UNL     1       5.970  -1.191  -6.299  0.00  0.00    +0.025 C 
ATOM      3  C   UNL     1       6.679  -1.700  -7.521  0.00  0.00    +0.200 C 
ATOM      4  O   UNL     1       6.601  -2.881  -7.783  0.00  0.00    -0.278 OA
ATOM      5  N   UNL     1       7.393  -0.915  -8.335  0.00  0.00    -0.315 N 
ATOM      6  C   UNL     1       7.501   0.532  -8.135  0.00  0.00    +0.059 C 
ATOM      7  C   UNL     1       6.505   1.227  -9.069  0.00  0.00    +0.020 C 
ATOM      8  C   UNL     1       6.543   2.738  -8.839  0.00  0.00    +0.002 C 
ATOM      9  C   UNL     1       6.147   3.036  -7.390  0.00  0.00    -0.001 C 
ATOM     10  C   UNL     1       7.153   2.367  -6.451  0.00  0.00    -0.014 C 
ATOM     11  C   UNL     1       7.164   0.862  -6.682  0.00  0.00    -0.050 C 
ATOM     12  H   UNL     1       7.857  -1.319  -9.085  0.00  0.00    +0.149 HD
ATOM     13  N   UNL     1       5.858   0.276  -6.347  0.00  0.00    +0.390 N 
ATOM     14  H   UNL     1       5.553   0.625  -5.431  0.00  0.00    -0.084 HD
ATOM     15  H   UNL     1       5.171   0.543  -7.061  0.00  0.00    -0.084 HD
ENDBRANCH   1   2
BRANCH   1  17
ATOM     16  N   UNL     1       2.657  -1.832  -4.666  0.00  0.00    -0.286 N 
ATOM     17  C   UNL     1       3.906  -1.407  -4.942  0.00  0.00    +0.216 C 
ATOM     18  O   UNL     1       4.497  -0.706  -4.147  0.00  0.00    -0.276 OA
ATOM     19  H   UNL     1       2.210  -2.446  -5.269  0.00  0.00    +0.155 HD
BRANCH  16  23
ATOM     20  C   UNL     1       0.717  -0.510  -1.225  0.00  0.00    -0.045 A 
ATOM     21  C   UNL     1      -0.008  -0.738  -2.381  0.00  0.00    +0.006 A 
ATOM     22  C   UNL     1       0.634  -1.171  -3.525  0.00  0.00    +0.023 A 
ATOM     23  C   UNL     1       2.005  -1.388  -3.511  0.00  0.00    +0.033 A 
ATOM     24  C   UNL     1       2.729  -1.163  -2.347  0.00  0.00    +0.023 A 
ATOM     25  C   UNL     1       2.083  -0.725  -1.208  0.00  0.00    +0.006 A 
BRANCH  20  27
ATOM     26  C   UNL     1      -1.042  -1.058   0.435  0.00  0.00    +0.012 C 
ATOM     27  C   UNL     1       0.015  -0.032   0.020  0.00  0.00    +0.013 C 
ATOM     28  C   UNL     1      -0.661   1.312  -0.259  0.00  0.00    +0.012 C 
ENDBRANCH  20  27
ENDBRANCH  16  23
ENDBRANCH   1  17
TORSDOF 4
