REMARK  Name = ZINC40561475
REMARK  11 active torsions:
REMARK  status: ('A' for Active; 'I' for Inactive)
REMARK    1  A    between atoms: C_1  and  N_2
REMARK    2  A    between atoms: N_2  and  C_3
REMARK    3  A    between atoms: N_2  and  C_4
REMARK    4  A    between atoms: C_4  and  C_5
REMARK    5  A    between atoms: C_5  and  N_6
REMARK    6  A    between atoms: C_7  and  C_24
REMARK    7  A    between atoms: C_15  and  O_22
REMARK    8  A    between atoms: O_22  and  C_23
REMARK    9  A    between atoms: C_27  and  O_30
REMARK   10  A    between atoms: O_30  and  C_31
REMARK   11  A    between atoms: C_31  and  C_32
REMARK                            x       y       z     vdW  Elec       q    Type
REMARK                         _______ _______ _______ _____ _____    ______ ____
ROOT
ATOM      1  N   UNL     1       2.845  -0.526  -2.362  0.00  0.00    -0.285 N 
ATOM      2  C   UNL     1       3.519  -1.824  -2.521  0.00  0.00    +0.144 C 
ATOM      3  C   UNL     1       4.061  -1.835  -3.913  0.00  0.00    +0.072 A 
ATOM      4  C   UNL     1       4.832  -2.848  -4.642  0.00  0.00    +0.199 A 
ATOM      5  O   UNL     1       5.010  -3.979  -4.225  0.00  0.00    -0.287 OA
ATOM      6  C   UNL     1       5.373  -2.365  -5.935  0.00  0.00    +0.065 A 
ATOM      7  C   UNL     1       6.290  -3.140  -6.650  0.00  0.00    +0.019 A 
ATOM      8  C   UNL     1       6.785  -2.682  -7.837  0.00  0.00    +0.046 A 
ATOM      9  C   UNL     1       6.379  -1.445  -8.335  0.00  0.00    +0.124 A 
ATOM     10  C   UNL     1       5.471  -0.667  -7.639  0.00  0.00    +0.092 A 
ATOM     11  C   UNL     1       4.951  -1.118  -6.428  0.00  0.00    +0.143 A 
ATOM     12  O   UNL     1       4.057  -0.346  -5.770  0.00  0.00    -0.449 OA
ATOM     13  C   UNL     1       3.721  -0.650  -4.500  0.00  0.00    +0.199 A 
ATOM     14  C   UNL     1       2.963   0.150  -3.523  0.00  0.00    +0.283 C 
ATOM     15  O   UNL     1       2.513   1.259  -3.732  0.00  0.00    -0.267 OA
ENDROOT
BRANCH   2  16
ATOM     16  C   UNL     1       2.533  -2.949  -2.336  0.00  0.00    -0.022 A 
ATOM     17  C   UNL     1       1.260  -2.844  -2.865  0.00  0.00    +0.009 A 
ATOM     18  C   UNL     1       0.354  -3.873  -2.697  0.00  0.00    +0.046 A 
ATOM     19  C   UNL     1       0.723  -5.013  -1.998  0.00  0.00    +0.121 A 
ATOM     20  C   UNL     1       2.001  -5.116  -1.469  0.00  0.00    +0.046 A 
ATOM     21  C   UNL     1       2.905  -4.087  -1.644  0.00  0.00    +0.009 A 
BRANCH  19  22
ATOM     22  O   UNL     1      -0.167  -6.027  -1.831  0.00  0.00    -0.487 OA
BRANCH  22  23
ATOM     23  C   UNL     1       0.282  -7.170  -1.100  0.00  0.00    +0.266 C 
BRANCH  23  24
ATOM     24  C   UNL     1      -0.832  -8.182  -1.017  0.00  0.00    +0.008 A 
ATOM     25  C   UNL     1      -2.052  -7.917  -1.610  0.00  0.00    +0.008 A 
ATOM     26  C   UNL     1      -3.073  -8.845  -1.534  0.00  0.00    +0.000 A 
ATOM     27  C   UNL     1      -2.875 -10.039  -0.866  0.00  0.00    +0.001 A 
ATOM     28  C   UNL     1      -1.656 -10.305  -0.273  0.00  0.00    +0.020 A 
ATOM     29  C   UNL     1      -0.631  -9.379  -0.353  0.00  0.00    +0.047 A 
ATOM     30 CL   UNL     1       0.903  -9.715   0.386  0.00  0.00    -0.083 Cl
ENDBRANCH  23  24
ENDBRANCH  22  23
ENDBRANCH  19  22
ENDBRANCH   2  16
BRANCH   9  31
ATOM     31  O   UNL     1       6.880  -0.998  -9.514  0.00  0.00    -0.495 OA
ATOM     32  C   UNL     1       7.814  -1.846 -10.184  0.00  0.00    +0.277 C 
ENDBRANCH   9  31
BRANCH   1  33
ATOM     33  C   UNL     1       2.159  -0.053  -1.157  0.00  0.00    +0.090 C 
BRANCH  33  34
ATOM     34  C   UNL     1       0.690  -0.478  -1.207  0.00  0.00    -0.060 C 
BRANCH  34  36
ATOM     35  C   UNL     1      -0.018   1.465   0.010  0.00  0.00    -0.097 C 
ATOM     36  N   UNL     1       0.002  -0.004   0.002  0.00  0.00    +0.377 N 
ATOM     37  C   UNL     1      -1.376  -0.512   0.012  0.00  0.00    -0.097 C 
ATOM     38  H   UNL     1       0.490  -0.338   0.820  0.00  0.00    -0.083 HD
ENDBRANCH  34  36
ENDBRANCH  33  34
ENDBRANCH   1  33
TORSDOF 8
