REMARK  Name = ZINC39670095
REMARK  9 active torsions:
REMARK  status: ('A' for Active; 'I' for Inactive)
REMARK    1  A    between atoms: C_1  and  C_2
REMARK    2  A    between atoms: C_2  and  C_3
REMARK    3  A    between atoms: C_3  and  C_4
REMARK    4  A    between atoms: C_3  and  C_6
REMARK    5  A    between atoms: C_4  and  C_5
REMARK    6  A    between atoms: C_10  and  C_19
REMARK    7  A    between atoms: N_21  and  C_22
REMARK    8  A    between atoms: C_22  and  C_23
REMARK    9  A    between atoms: C_28  and  C_32
REMARK                            x       y       z     vdW  Elec       q    Type
REMARK                         _______ _______ _______ _____ _____    ______ ____
ROOT
ATOM      1  C   UNL     1      -1.140  -2.381   0.502  0.00  0.00    +0.219 C 
ATOM      2  O   UNL     1      -1.690  -3.186  -0.220  0.00  0.00    -0.275 OA
ATOM      3  N   UNL     1      -0.618  -2.778   1.679  0.00  0.00    -0.300 N 
ATOM      4  C   UNL     1       0.080  -1.948   2.689  0.00  0.00    +0.121 C 
ATOM      5  C   UNL     1      -0.418  -2.487   4.049  0.00  0.00    +0.100 C 
ATOM      6  C   UNL     1      -0.868  -3.929   3.758  0.00  0.00    -0.004 C 
ATOM      7  C   UNL     1      -0.616  -4.143   2.259  0.00  0.00    +0.115 C 
ATOM      8  C   UNL     1      -2.353  -4.091   4.066  0.00  0.00    -0.010 C 
ATOM      9  C   UNL     1      -2.764  -5.546   3.823  0.00  0.00    -0.082 C 
ATOM     10  N   UNL     1      -1.967  -6.431   4.681  0.00  0.00    +0.379 N 
ATOM     11  C   UNL     1      -0.548  -6.338   4.316  0.00  0.00    -0.082 C 
ATOM     12  C   UNL     1      -0.044  -4.916   4.579  0.00  0.00    -0.010 C 
ATOM     13  H   UNL     1      -2.083  -6.157   5.645  0.00  0.00    -0.086 HD
ATOM     14  H   UNL     1      -2.281  -7.383   4.565  0.00  0.00    -0.086 HD
ENDROOT
BRANCH   5  15
ATOM     15  C   UNL     1      -1.577  -1.664   4.548  0.00  0.00    +0.219 C 
ATOM     16  O   UNL     1      -2.370  -1.192   3.759  0.00  0.00    -0.275 OA
ATOM     17  N   UNL     1      -1.734  -1.451   5.869  0.00  0.00    -0.309 N 
ATOM     18  H   UNL     1      -1.101  -1.828   6.500  0.00  0.00    +0.149 HD
BRANCH  17  19
ATOM     19  C   UNL     1      -2.861  -0.651   6.354  0.00  0.00    +0.159 C 
BRANCH  19  20
ATOM     20  C   UNL     1      -2.807  -0.566   7.857  0.00  0.00    +0.051 A 
ATOM     21  C   UNL     1      -3.464  -1.375   8.717  0.00  0.00    +0.115 A 
ATOM     22  N   UNL     1      -3.146  -0.965   9.983  0.00  0.00    -0.308 N 
ATOM     23  C   UNL     1      -3.515  -1.411  11.218  0.00  0.00    +0.093 A 
ATOM     24  C   UNL     1      -3.045  -0.814  12.334  0.00  0.00    +0.021 A 
ATOM     25  C   UNL     1      -2.168   0.279  12.236  0.00  0.00    -0.046 A 
ATOM     26  C   UNL     1      -1.792   0.734  11.011  0.00  0.00    +0.048 A 
ATOM     27  C   UNL     1      -2.291   0.100   9.856  0.00  0.00    +0.116 A 
ATOM     28  N   UNL     1      -2.098   0.319   8.563  0.00  0.00    -0.342 N 
ATOM     29  C   UNL     1      -1.646   0.944  13.484  0.00  0.00    +0.044 C 
ATOM     30  H   UNL     1      -1.532   1.012   8.188  0.00  0.00    +0.167 HD
ENDBRANCH  19  20
ENDBRANCH  17  19
ENDBRANCH   5  15
BRANCH   1  31
ATOM     31  C   UNL     1      -1.042  -0.937   0.083  0.00  0.00    +0.075 C 
BRANCH  31  33
ATOM     32  C   UNL     1       0.531   0.966  -0.301  0.00  0.00    +0.004 C 
ATOM     33  C   UNL     1       0.431  -0.533  -0.012  0.00  0.00    +0.009 C 
ENDBRANCH  31  33
BRANCH  31  34
ATOM     34  C   UNL     1      -1.709  -0.755  -1.282  0.00  0.00    +0.009 C 
ATOM     35  C   UNL     1      -3.214  -0.999  -1.151  0.00  0.00    +0.004 C 
ENDBRANCH  31  34
ENDBRANCH   1  31
TORSDOF 6
