REMARK  Name = ZINC55369759
REMARK  10 active torsions:
REMARK  status: ('A' for Active; 'I' for Inactive)
REMARK    1  A    between atoms: C_1  and  C_2
REMARK    2  A    between atoms: C_2  and  C_32
REMARK    3  A    between atoms: C_4  and  N_10
REMARK    4  A    between atoms: C_6  and  C_8
REMARK    5  A    between atoms: C_6  and  C_9
REMARK    6  A    between atoms: N_10  and  C_11
REMARK    7  A    between atoms: C_12  and  C_14
REMARK    8  A    between atoms: C_14  and  C_15
REMARK    9  A    between atoms: N_22  and  C_23
REMARK   10  A    between atoms: C_23  and  C_24
REMARK                            x       y       z     vdW  Elec       q    Type
REMARK                         _______ _______ _______ _____ _____    ______ ____
ROOT
ATOM      1  C   UNL     1       3.807  -0.526  -4.758  0.00  0.00    +0.124 C 
ENDROOT
BRANCH   1   2
ATOM      2  C   UNL     1       4.378   0.625  -5.588  0.00  0.00    +0.152 C 
ATOM      3  C   UNL     1       3.366   1.732  -5.669  0.00  0.00    +0.231 C 
ATOM      4  O   UNL     1       2.203   1.444  -5.861  0.00  0.00    -0.274 OA
ATOM      5  N   UNL     1       3.693   3.022  -5.537  0.00  0.00    -0.313 N 
ATOM      6  C   UNL     1       5.055   3.472  -5.267  0.00  0.00    +0.119 C 
ATOM      7  C   UNL     1       6.051   2.362  -5.608  0.00  0.00    +0.104 C 
ATOM      8  N   UNL     1       5.609   1.118  -4.957  0.00  0.00    -0.285 NA
ATOM      9  H   UNL     1       2.993   3.689  -5.625  0.00  0.00    +0.149 HD
BRANCH   8  10
ATOM     10  C   UNL     1       6.667   0.100  -5.000  0.00  0.00    +0.123 C 
BRANCH  10  11
ATOM     11  C   UNL     1       7.764   0.474  -4.036  0.00  0.00    +0.005 A 
ATOM     12  C   UNL     1       8.915   1.082  -4.501  0.00  0.00    +0.008 A 
ATOM     13  C   UNL     1       9.921   1.426  -3.618  0.00  0.00    +0.003 A 
ATOM     14  C   UNL     1       9.779   1.162  -2.269  0.00  0.00    +0.041 A 
ATOM     15  C   UNL     1       8.628   0.553  -1.800  0.00  0.00    +0.159 A 
ATOM     16  C   UNL     1       7.616   0.213  -2.685  0.00  0.00    +0.163 A 
ATOM     17  F   UNL     1       6.489  -0.376  -2.229  0.00  0.00    -0.202 F 
ATOM     18  F   UNL     1       8.489   0.295  -0.482  0.00  0.00    -0.202 F 
ENDBRANCH  10  11
ENDBRANCH   8  10
ENDBRANCH   1   2
BRANCH   1  21
ATOM     19  N   UNL     1       2.917  -0.858  -2.474  0.00  0.00    -0.302 N 
ATOM     20  C   UNL     1       2.520  -2.209  -2.876  0.00  0.00    +0.132 C 
ATOM     21  C   UNL     1       3.530  -0.045  -3.357  0.00  0.00    +0.218 C 
ATOM     22  O   UNL     1       3.859   1.074  -3.023  0.00  0.00    -0.276 OA
BRANCH  19  26
ATOM     23  C   UNL     1       1.000   1.544   0.681  0.00  0.00    -0.010 C 
ATOM     24  C   UNL     1       0.834   0.025   0.573  0.00  0.00    -0.072 C 
ATOM     25  C   UNL     1       1.141  -0.427  -0.851  0.00  0.00    +0.009 C 
ATOM     26  C   UNL     1       2.648  -0.389  -1.109  0.00  0.00    +0.073 C 
ATOM     27  C   UNL     1       3.326  -1.328  -0.110  0.00  0.00    +0.009 C 
ATOM     28  C   UNL     1       3.035  -0.883   1.319  0.00  0.00    -0.072 C 
ATOM     29  N   UNL     1       1.623  -0.665   1.578  0.00  0.00    +0.386 N 
ATOM     30  C   UNL     1       3.861   0.364   1.652  0.00  0.00    -0.010 C 
ATOM     31  C   UNL     1       3.518  -2.010   2.261  0.00  0.00    -0.010 C 
ATOM     32  C   UNL     1      -0.655  -0.289   0.846  0.00  0.00    -0.010 C 
ATOM     33  H   UNL     1       1.533  -0.155   2.462  0.00  0.00    -0.084 HD
ATOM     34  H   UNL     1       1.186  -1.575   1.758  0.00  0.00    -0.084 HD
ENDBRANCH  19  26
ENDBRANCH   1  21
TORSDOF 5
