REMARK  Name = ZINC03670433
REMARK  11 active torsions:
REMARK  status: ('A' for Active; 'I' for Inactive)
REMARK    1  A    between atoms: C_1  and  C_2
REMARK    2  A    between atoms: C_2  and  O_3
REMARK    3  A    between atoms: O_3  and  C_4
REMARK    4  A    between atoms: C_7  and  N_10
REMARK    5  A    between atoms: C_20  and  C_21
REMARK    6  A    between atoms: C_20  and  O_29
REMARK    7  A    between atoms: N_23  and  C_24
REMARK    8  A    between atoms: C_24  and  C_25
REMARK    9  A    between atoms: C_25  and  N_26
REMARK   10  A    between atoms: N_26  and  C_27
REMARK   11  A    between atoms: N_26  and  C_28
REMARK                            x       y       z     vdW  Elec       q    Type
REMARK                         _______ _______ _______ _____ _____    ______ ____
ROOT
ATOM      1  N   UNL     1      -1.989  -5.990  -0.013  0.00  0.00    -0.214 N 
ATOM      2  C   UNL     1      -0.921  -6.802  -0.118  0.00  0.00    +0.314 C 
ATOM      3  O   UNL     1       0.183  -6.299  -0.206  0.00  0.00    -0.252 OA
ATOM      4  N   UNL     1      -1.017  -8.137  -0.130  0.00  0.00    -0.269 N 
ATOM      5  C   UNL     1      -2.235  -8.812  -0.034  0.00  0.00    +0.043 A 
ATOM      6  C   UNL     1      -2.280 -10.200  -0.052  0.00  0.00    +0.025 A 
ATOM      7  C   UNL     1      -3.495 -10.850   0.044  0.00  0.00    +0.017 A 
ATOM      8  C   UNL     1      -4.668 -10.124   0.157  0.00  0.00    +0.018 A 
ATOM      9  C   UNL     1      -4.628  -8.740   0.175  0.00  0.00    +0.025 A 
ATOM     10  C   UNL     1      -3.418  -8.091   0.080  0.00  0.00    +0.034 A 
ATOM     11  C   UNL     1      -3.332  -6.582   0.102  0.00  0.00    +0.247 C 
ATOM     12 BR   UNL     1      -6.327 -11.024   0.287  0.00  0.00    -0.050 Br
ATOM     13  H   UNL     1      -0.203  -8.660  -0.209  0.00  0.00    +0.156 HD
ENDROOT
BRANCH   1  17
ATOM     14  C   UNL     1      -1.497  -1.849   0.008  0.00  0.00    +0.121 A 
ATOM     15  C   UNL     1      -1.585  -2.543   1.206  0.00  0.00    +0.047 A 
ATOM     16  C   UNL     1      -1.748  -3.914   1.200  0.00  0.00    +0.027 A 
ATOM     17  C   UNL     1      -1.824  -4.598  -0.006  0.00  0.00    +0.042 A 
ATOM     18  C   UNL     1      -1.736  -3.904  -1.204  0.00  0.00    +0.027 A 
ATOM     19  C   UNL     1      -1.579  -2.532  -1.197  0.00  0.00    +0.047 A 
BRANCH  14  20
ATOM     20  O   UNL     1      -1.336  -0.499   0.015  0.00  0.00    -0.492 OA
BRANCH  20  22
ATOM     21  C   UNL     1      -1.081   1.646   1.098  0.00  0.00    +0.048 C 
ATOM     22  C   UNL     1      -1.260   0.139   1.291  0.00  0.00    +0.225 C 
ENDBRANCH  20  22
ENDBRANCH  14  20
ENDBRANCH   1  17
BRANCH  11  23
ATOM     23  C   UNL     1      -4.170  -6.057  -1.035  0.00  0.00    +0.269 C 
ATOM     24  O   UNL     1      -5.181  -5.428  -0.804  0.00  0.00    -0.270 OA
ATOM     25  N   UNL     1      -3.796  -6.287  -2.310  0.00  0.00    -0.313 N 
ATOM     26  H   UNL     1      -2.988  -6.791  -2.495  0.00  0.00    +0.149 HD
BRANCH  25  27
ATOM     27  C   UNL     1      -4.611  -5.777  -3.415  0.00  0.00    +0.086 C 
BRANCH  27  28
ATOM     28  C   UNL     1      -3.970  -6.173  -4.747  0.00  0.00    -0.061 C 
BRANCH  28  29
ATOM     29  N   UNL     1      -4.786  -5.661  -5.855  0.00  0.00    +0.377 N 
ATOM     30  C   UNL     1      -4.110  -5.938  -7.130  0.00  0.00    -0.097 C 
ATOM     31  C   UNL     1      -6.098  -6.323  -5.843  0.00  0.00    -0.097 C 
ATOM     32  H   UNL     1      -4.911  -4.666  -5.750  0.00  0.00    -0.083 HD
ENDBRANCH  28  29
ENDBRANCH  27  28
ENDBRANCH  25  27
ENDBRANCH  11  23
BRANCH  11  33
ATOM     33  O   UNL     1      -3.915  -6.121   1.322  0.00  0.00    -0.360 OA
ATOM     34  H   UNL     1      -4.806  -6.460   1.486  0.00  0.00    +0.213 HD
ENDBRANCH  11  33
TORSDOF 8
