REMARK  Name = ZINC10093070
REMARK  6 active torsions:
REMARK  status: ('A' for Active; 'I' for Inactive)
REMARK    1  A    between atoms: C_3  and  S_20
REMARK    2  A    between atoms: C_6  and  N_7
REMARK    3  A    between atoms: C_8  and  C_10
REMARK    4  A    between atoms: C_10  and  C_11
REMARK    5  A    between atoms: C_11  and  N_43
REMARK    6  A    between atoms: S_20  and  N_23
REMARK                            x       y       z     vdW  Elec       q    Type
REMARK                         _______ _______ _______ _____ _____    ______ ____
ROOT
ATOM      1  N   UNL     1      -0.242   1.246   2.466  0.00  0.00    -0.286 N 
ATOM      2  C   UNL     1      -0.717   1.573   1.248  0.00  0.00    +0.215 C 
ATOM      3  O   UNL     1      -1.709   2.264   1.150  0.00  0.00    -0.276 OA
ATOM      4  H   UNL     1       0.511   0.639   2.546  0.00  0.00    +0.155 HD
ENDROOT
BRANCH   1  10
ATOM      5  C   UNL     1      -0.053   2.086   4.722  0.00  0.00    +0.025 A 
ATOM      6  C   UNL     1      -0.639   2.620   5.853  0.00  0.00    +0.030 A 
ATOM      7  C   UNL     1      -2.003   2.842   5.887  0.00  0.00    +0.105 A 
ATOM      8  C   UNL     1      -2.784   2.535   4.788  0.00  0.00    +0.030 A 
ATOM      9  C   UNL     1      -2.203   2.006   3.652  0.00  0.00    +0.025 A 
ATOM     10  C   UNL     1      -0.833   1.782   3.615  0.00  0.00    +0.033 A 
BRANCH   7  11
ATOM     11  S   UNL     1      -2.748   3.517   7.334  0.00  0.00    +0.056 S 
ATOM     12  O   UNL     1      -1.728   4.225   8.024  0.00  0.00    -0.153 OA
ATOM     13  O   UNL     1      -3.957   4.136   6.917  0.00  0.00    -0.153 OA
BRANCH  11  14
ATOM     14  N   UNL     1      -3.179   2.244   8.303  0.00  0.00    -0.204 NA
ATOM     15  H   UNL     1      -3.000   1.335   8.016  0.00  0.00    +0.144 HD
ATOM     16  H   UNL     1      -3.609   2.408   9.156  0.00  0.00    +0.144 HD
ENDBRANCH  11  14
ENDBRANCH   7  11
ENDBRANCH   1  10
BRANCH   2  17
ATOM     17  C   UNL     1      -0.016   1.080   0.008  0.00  0.00    +0.077 C 
BRANCH  17  18
ATOM     18  C   UNL     1      -0.754   1.590  -1.232  0.00  0.00    -0.069 C 
BRANCH  18  27
ATOM     19  C   UNL     1      -0.876   1.376  -3.641  0.00  0.00    -0.073 C 
ATOM     20  C   UNL     1       0.025   1.245  -4.881  0.00  0.00    +0.024 C 
ATOM     21  C   UNL     1       0.816  -0.015  -4.737  0.00  0.00    -0.011 A 
ATOM     22  C   UNL     1       0.964  -0.758  -3.605  0.00  0.00    -0.054 A 
ATOM     23  C   UNL     1       1.751  -1.903  -3.710  0.00  0.00    +0.009 A 
ATOM     24  C   UNL     1       2.323  -2.224  -4.894  0.00  0.00    +0.045 A 
ATOM     25  S   UNL     1       1.764  -0.893  -5.947  0.00  0.00    -0.101 S 
ATOM     26  C   UNL     1       0.281  -0.311  -2.316  0.00  0.00    -0.042 C 
ATOM     27  N   UNL     1      -0.042   1.130  -2.440  0.00  0.00    +0.383 N 
ATOM     28  H   UNL     1       0.834   1.659  -2.531  0.00  0.00    -0.081 HD
ENDBRANCH  18  27
ENDBRANCH  17  18
ENDBRANCH   2  17
TORSDOF 6
