REMARK  Name = ZINC52831412
REMARK  13 active torsions:
REMARK  status: ('A' for Active; 'I' for Inactive)
REMARK    1  A    between atoms: C_1  and  C_2
REMARK    2  A    between atoms: C_9  and  N_17
REMARK    3  A    between atoms: C_10  and  C_11
REMARK    4  A    between atoms: C_11  and  O_13
REMARK    5  A    between atoms: O_13  and  C_14
REMARK    6  A    between atoms: C_14  and  C_15
REMARK    7  A    between atoms: C_14  and  C_16
REMARK    8  A    between atoms: C_18  and  C_20
REMARK    9  A    between atoms: C_20  and  C_22
REMARK   10  A    between atoms: C_20  and  N_23
REMARK   11  A    between atoms: N_23  and  C_24
REMARK   12  A    between atoms: N_23  and  C_25
REMARK   13  A    between atoms: C_25  and  C_26
REMARK                            x       y       z     vdW  Elec       q    Type
REMARK                         _______ _______ _______ _____ _____    ______ ____
ROOT
ATOM      1  C   UNL     1      -1.073   1.089   0.033  0.00  0.00    +0.008 C 
ATOM      2  C   UNL     1      -1.114  -0.413   0.322  0.00  0.00    -0.009 C 
ATOM      3  C   UNL     1      -1.150  -1.189  -0.998  0.00  0.00    +0.008 C 
ATOM      4  C   UNL     1      -1.439  -2.667  -0.725  0.00  0.00    +0.037 C 
ATOM      5  C   UNL     1      -0.454  -3.171   0.320  0.00  0.00    -0.021 A 
ATOM      6  C   UNL     1       0.228  -2.316   1.111  0.00  0.00    -0.004 A 
ATOM      7  S   UNL     1       1.225  -3.354   2.140  0.00  0.00    -0.077 S 
ATOM      8  C   UNL     1       0.766  -4.861   1.558  0.00  0.00    +0.086 A 
ATOM      9  C   UNL     1      -0.159  -4.572   0.565  0.00  0.00    +0.091 A 
ATOM     10  C   UNL     1       0.142  -0.820   1.106  0.00  0.00    +0.046 C 
ENDROOT
BRANCH   8  11
ATOM     11  N   UNL     1       1.210  -6.106   1.973  0.00  0.00    -0.281 N 
ATOM     12  C   UNL     1       2.121  -6.202   2.961  0.00  0.00    +0.204 C 
ATOM     13  O   UNL     1       2.553  -5.198   3.487  0.00  0.00    -0.277 OA
ATOM     14  H   UNL     1       0.864  -6.909   1.552  0.00  0.00    +0.155 HD
BRANCH  12  15
ATOM     15  C   UNL     1       2.604  -7.556   3.413  0.00  0.00    +0.017 C 
ATOM     16  C   UNL     1       3.787  -7.991   2.546  0.00  0.00    -0.004 C 
BRANCH  15  17
ATOM     17  N   UNL     1       3.028  -7.481   4.817  0.00  0.00    +0.391 N 
ATOM     18  C   UNL     1       3.549  -8.788   5.241  0.00  0.00    -0.094 C 
ATOM     19  H   UNL     1       3.750  -6.783   4.914  0.00  0.00    -0.080 HD
BRANCH  17  20
ATOM     20  C   UNL     1       1.879  -7.117   5.657  0.00  0.00    +0.019 C 
BRANCH  20  21
ATOM     21  C   UNL     1       2.345  -6.874   7.069  0.00  0.00    +0.194 C 
ATOM     22  O   UNL     1       3.519  -6.993   7.349  0.00  0.00    -0.278 OA
ATOM     23  N   UNL     1       1.458  -6.525   8.021  0.00  0.00    -0.331 N 
ATOM     24  H   UNL     1       0.519  -6.430   7.798  0.00  0.00    +0.145 HD
ATOM     25  H   UNL     1       1.758  -6.369   8.931  0.00  0.00    +0.145 HD
ENDBRANCH  20  21
ENDBRANCH  17  20
ENDBRANCH  15  17
ENDBRANCH  12  15
ENDBRANCH   8  11
BRANCH   9  26
ATOM     26  C   UNL     1      -0.810  -5.635  -0.203  0.00  0.00    +0.342 C 
ATOM     27  O   UNL     1      -0.305  -6.038  -1.234  0.00  0.00    -0.245 OA
BRANCH  26  28
ATOM     28  O   UNL     1      -1.971  -6.168   0.232  0.00  0.00    -0.458 OA
BRANCH  28  29
ATOM     29  C   UNL     1      -2.550  -7.201  -0.568  0.00  0.00    +0.171 C 
ATOM     30  C   UNL     1      -3.338  -8.158   0.329  0.00  0.00    +0.052 C 
ATOM     31  C   UNL     1      -3.492  -6.579  -1.600  0.00  0.00    +0.052 C 
ENDBRANCH  28  29
ENDBRANCH  26  28
ENDBRANCH   9  26
TORSDOF 8
