REMARK  Name = ZINC36311531
REMARK  7 active torsions:
REMARK  status: ('A' for Active; 'I' for Inactive)
REMARK    1  A    between atoms: C_1  and  O_2
REMARK    2  A    between atoms: O_2  and  C_3
REMARK    3  A    between atoms: C_6  and  N_9
REMARK    4  A    between atoms: C_10  and  C_12
REMARK    5  A    between atoms: C_12  and  C_14
REMARK    6  A    between atoms: C_12  and  N_19
REMARK    7  A    between atoms: C_25  and  C_27
REMARK                            x       y       z     vdW  Elec       q    Type
REMARK                         _______ _______ _______ _____ _____    ______ ____
ROOT
ATOM      1  C   UNL     1       3.936  -4.397   5.608  0.00  0.00    +0.023 C 
ENDROOT
BRANCH   1   2
ATOM      2  N   UNL     1       3.498  -5.779   5.370  0.00  0.00    +0.390 N 
ATOM      3  C   UNL     1       3.899  -6.620   6.505  0.00  0.00    -0.058 C 
ATOM      4  C   UNL     1       3.343  -8.035   6.312  0.00  0.00    +0.089 C 
ATOM      5  N   UNL     1       3.785  -8.535   5.001  0.00  0.00    -0.301 N 
ATOM      6  C   UNL     1       3.569  -7.678   3.824  0.00  0.00    +0.089 C 
ATOM      7  C   UNL     1       4.114  -6.280   4.135  0.00  0.00    -0.058 C 
ATOM      8  C   UNL     1       4.371  -9.742   4.881  0.00  0.00    +0.247 C 
ATOM      9  O   UNL     1       4.840 -10.087   3.814  0.00  0.00    -0.270 OA
ATOM     10  H   UNL     1       2.494  -5.801   5.276  0.00  0.00    -0.081 HD
BRANCH   8  11
ATOM     11  C   UNL     1       4.445 -10.648   6.048  0.00  0.00    +0.038 A 
ATOM     12  C   UNL     1       3.327 -10.832   6.863  0.00  0.00    +0.013 A 
ATOM     13  C   UNL     1       3.401 -11.678   7.950  0.00  0.00    +0.002 A 
ATOM     14  C   UNL     1       4.581 -12.343   8.234  0.00  0.00    +0.015 A 
ATOM     15  C   UNL     1       5.694 -12.164   7.430  0.00  0.00    +0.019 A 
ATOM     16  C   UNL     1       5.630 -11.325   6.335  0.00  0.00    +0.028 A 
ATOM     17 BR   UNL     1       7.302 -13.077   7.828  0.00  0.00    -0.050 Br
ENDBRANCH   8  11
ENDBRANCH   1   2
BRANCH   1  18
ATOM     18  C   UNL     1       3.241  -3.850   6.856  0.00  0.00    -0.016 C 
ATOM     19  C   UNL     1       1.710  -3.920   6.681  0.00  0.00    +0.002 C 
ATOM     20  C   UNL     1       1.190  -2.631   7.365  0.00  0.00    +0.000 C 
ATOM     21  C   UNL     1       2.265  -1.583   6.982  0.00  0.00    +0.000 C 
ATOM     22  C   UNL     1       3.594  -2.364   7.047  0.00  0.00    +0.002 C 
ENDBRANCH   1  18
BRANCH   1  24
ATOM     23  N   UNL     1       4.334  -2.475   4.103  0.00  0.00    -0.287 N 
ATOM     24  C   UNL     1       3.577  -3.545   4.418  0.00  0.00    +0.204 C 
ATOM     25  O   UNL     1       2.607  -3.821   3.744  0.00  0.00    -0.277 OA
ATOM     26  H   UNL     1       5.154  -2.301   4.590  0.00  0.00    +0.155 HD
BRANCH  23  30
ATOM     27  C   UNL     1       3.152   0.083   1.030  0.00  0.00    +0.120 A 
ATOM     28  C   UNL     1       3.817   0.590   2.136  0.00  0.00    +0.047 A 
ATOM     29  C   UNL     1       4.209  -0.257   3.155  0.00  0.00    +0.027 A 
ATOM     30  C   UNL     1       3.937  -1.616   3.070  0.00  0.00    +0.034 A 
ATOM     31  C   UNL     1       3.271  -2.122   1.962  0.00  0.00    +0.027 A 
ATOM     32  C   UNL     1       2.875  -1.274   0.947  0.00  0.00    +0.047 A 
BRANCH  27  34
ATOM     33  C   UNL     1       3.084   2.302   0.178  0.00  0.00    +0.277 C 
ATOM     34  O   UNL     1       2.767   0.917   0.027  0.00  0.00    -0.495 OA
ENDBRANCH  27  34
ENDBRANCH  23  30
ENDBRANCH   1  24
TORSDOF 6
