REMARK  Name = ZINC66876448
REMARK  8 active torsions:
REMARK  status: ('A' for Active; 'I' for Inactive)
REMARK    1  A    between atoms: C_1  and  C_2
REMARK    2  A    between atoms: C_8  and  N_10
REMARK    3  A    between atoms: C_11  and  C_13
REMARK    4  A    between atoms: C_13  and  C_15
REMARK    5  A    between atoms: C_13  and  N_16
REMARK    6  A    between atoms: C_19  and  N_22
REMARK    7  A    between atoms: C_23  and  C_25
REMARK    8  A    between atoms: C_25  and  C_26
REMARK                            x       y       z     vdW  Elec       q    Type
REMARK                         _______ _______ _______ _____ _____    ______ ____
ROOT
ATOM      1  N   UNL     1       0.955   0.522   5.984  0.00  0.00    +0.387 N 
ATOM      2  C   UNL     1       0.232   0.872   7.213  0.00  0.00    -0.076 C 
ATOM      3  C   UNL     1       1.167   0.736   8.416  0.00  0.00    +0.004 C 
ATOM      4  C   UNL     1       2.361   1.679   8.238  0.00  0.00    +0.069 C 
ATOM      5  C   UNL     1       3.063   1.352   6.916  0.00  0.00    +0.004 C 
ATOM      6  C   UNL     1       2.058   1.466   5.769  0.00  0.00    -0.076 C 
ATOM      7  H   UNL     1       1.325  -0.413   6.069  0.00  0.00    -0.081 HD
ENDROOT
BRANCH   4   8
ATOM      8  N   UNL     1       3.298   1.498   9.348  0.00  0.00    -0.313 N 
ATOM      9  C   UNL     1       4.127   2.500   9.701  0.00  0.00    +0.213 C 
ATOM     10  O   UNL     1       4.097   3.552   9.098  0.00  0.00    -0.276 OA
ATOM     11  H   UNL     1       3.322   0.656   9.831  0.00  0.00    +0.149 HD
BRANCH   9  12
ATOM     12  C   UNL     1       5.092   2.314  10.844  0.00  0.00    +0.099 C 
BRANCH  12  13
ATOM     13  C   UNL     1       5.910   3.593  11.034  0.00  0.00    -0.002 C 
ATOM     14  C   UNL     1       6.849   3.804   9.829  0.00  0.00    +0.004 C 
ATOM     15  C   UNL     1       8.142   4.386  10.452  0.00  0.00    +0.000 C 
ATOM     16  C   UNL     1       8.265   3.600  11.780  0.00  0.00    +0.000 C 
ATOM     17  C   UNL     1       6.810   3.463  12.275  0.00  0.00    +0.004 C 
ENDBRANCH  12  13
ENDBRANCH   9  12
ENDBRANCH   4   8
BRANCH   1  18
ATOM     18  C   UNL     1       0.033   0.579   4.842  0.00  0.00    +0.016 C 
ATOM     19  C   UNL     1      -1.147  -0.363   5.091  0.00  0.00    -0.004 C 
BRANCH  18  21
ATOM     20  N   UNL     1       0.354   0.618   2.390  0.00  0.00    -0.314 N 
ATOM     21  C   UNL     1       0.757   0.157   3.590  0.00  0.00    +0.199 C 
ATOM     22  O   UNL     1       1.703  -0.599   3.662  0.00  0.00    -0.278 OA
ATOM     23  H   UNL     1      -0.403   1.222   2.332  0.00  0.00    +0.149 HD
BRANCH  20  30
ATOM     24  C   UNL     1       1.428   2.605   0.577  0.00  0.00    +0.009 C 
ATOM     25  C   UNL     1       0.865   1.269   0.088  0.00  0.00    +0.006 C 
ATOM     26  C   UNL     1       1.600   0.840  -1.183  0.00  0.00    +0.005 C 
ATOM     27  C   UNL     1       1.037  -0.496  -1.672  0.00  0.00    +0.000 C 
ATOM     28  C   UNL     1       1.230  -1.558  -0.587  0.00  0.00    +0.002 C 
ATOM     29  C   UNL     1       0.495  -1.129   0.684  0.00  0.00    +0.022 C 
ATOM     30  C   UNL     1       1.058   0.207   1.173  0.00  0.00    +0.076 C 
ENDBRANCH  20  30
ENDBRANCH  18  21
ENDBRANCH   1  18
TORSDOF 6
