REMARK  Name = ZINC02137954
REMARK  5 active torsions:
REMARK  status: ('A' for Active; 'I' for Inactive)
REMARK    1  A    between atoms: C_1  and  C_2
REMARK    2  A    between atoms: C_17  and  C_19
REMARK    3  A    between atoms: C_19  and  C_20
REMARK    4  A    between atoms: N_25  and  C_28
REMARK    5  A    between atoms: C_28  and  C_29
REMARK                            x       y       z     vdW  Elec       q    Type
REMARK                         _______ _______ _______ _____ _____    ______ ____
ROOT
ATOM      1  C   UNL     1      -4.749  -3.471  -3.546  0.00  0.00    +0.044 C 
ATOM      2  C   UNL     1      -4.678  -1.967  -3.583  0.00  0.00    -0.049 A 
ATOM      3  C   UNL     1      -3.542  -1.315  -3.136  0.00  0.00    +0.008 A 
ATOM      4  C   UNL     1      -3.478   0.060  -3.169  0.00  0.00    -0.026 A 
ATOM      5  C   UNL     1      -4.547   0.809  -3.652  0.00  0.00    +0.054 A 
ATOM      6  C   UNL     1      -5.688   0.145  -4.099  0.00  0.00    +0.063 A 
ATOM      7  C   UNL     1      -5.748  -1.234  -4.063  0.00  0.00    +0.025 A 
ATOM      8 CL   UNL     1      -7.037   1.054  -4.705  0.00  0.00    -0.082 Cl
ATOM      9  N   UNL     1      -4.250   2.172  -3.590  0.00  0.00    -0.285 N 
ATOM     10  C   UNL     1      -3.022   2.401  -3.086  0.00  0.00    +0.211 C 
ATOM     11  O   UNL     1      -2.498   3.483  -2.917  0.00  0.00    -0.277 OA
ATOM     12  C   UNL     1      -2.426   1.056  -2.772  0.00  0.00    +0.050 C 
ATOM     13  C   UNL     1      -1.117   0.831  -3.538  0.00  0.00    +0.088 C 
ATOM     14  C   UNL     1       0.001   1.180  -2.513  0.00  0.00    +0.073 C 
ATOM     15  C   UNL     1      -0.753   1.593  -1.232  0.00  0.00    -0.049 C 
ATOM     16  C   UNL     1       0.687  -0.149  -2.283  0.00  0.00    +0.224 C 
ATOM     17  O   UNL     1       1.622  -0.333  -1.533  0.00  0.00    -0.275 OA
ATOM     18  N   UNL     1       0.102  -1.089  -3.034  0.00  0.00    -0.237 N 
ATOM     19  C   UNL     1      -0.918  -0.649  -3.779  0.00  0.00    +0.225 C 
ATOM     20  O   UNL     1      -1.582  -1.331  -4.531  0.00  0.00    -0.275 OA
ATOM     21  H   UNL     1      -4.856   2.873  -3.878  0.00  0.00    +0.155 HD
ATOM     22  N   UNL     1      -2.064   0.956  -1.369  0.00  0.00    +0.394 N 
ATOM     23  H   UNL     1      -2.011  -0.030  -1.086  0.00  0.00    -0.083 HD
ATOM     24  H   UNL     1      -2.757   1.442  -0.788  0.00  0.00    -0.083 HD
ENDROOT
BRANCH  15  25
ATOM     25  C   UNL     1      -0.013   1.086   0.008  0.00  0.00    +0.080 C 
BRANCH  25  26
ATOM     26  C   UNL     1      -0.718   1.572   1.248  0.00  0.00    +0.209 C 
ATOM     27  O   UNL     1      -1.714   2.256   1.150  0.00  0.00    -0.276 OA
ATOM     28  N   UNL     1      -0.242   1.246   2.466  0.00  0.00    -0.329 N 
ATOM     29  H   UNL     1       0.555   0.699   2.544  0.00  0.00    +0.145 HD
ATOM     30  H   UNL     1      -0.696   1.559   3.264  0.00  0.00    +0.145 HD
ENDBRANCH  25  26
ENDBRANCH  15  25
BRANCH  18  31
ATOM     31  C   UNL     1       0.542  -2.486  -3.039  0.00  0.00    +0.151 C 
BRANCH  31  32
ATOM     32  C   UNL     1       1.593  -2.677  -4.103  0.00  0.00    -0.030 A 
ATOM     33  C   UNL     1       1.222  -3.036  -5.385  0.00  0.00    +0.005 A 
ATOM     34  C   UNL     1       2.185  -3.206  -6.361  0.00  0.00    +0.000 A 
ATOM     35  C   UNL     1       3.521  -3.028  -6.053  0.00  0.00    +0.000 A 
ATOM     36  C   UNL     1       3.893  -2.674  -4.769  0.00  0.00    +0.000 A 
ATOM     37  C   UNL     1       2.929  -2.499  -3.794  0.00  0.00    +0.005 A 
ENDBRANCH  31  32
ENDBRANCH  18  31
TORSDOF 4
