REMARK  Name = ZINC65965683
REMARK  7 active torsions:
REMARK  status: ('A' for Active; 'I' for Inactive)
REMARK    1  A    between atoms: C_1  and  C_2
REMARK    2  A    between atoms: C_4  and  N_7
REMARK    3  A    between atoms: C_8  and  C_10
REMARK    4  A    between atoms: C_10  and  C_11
REMARK    5  A    between atoms: C_10  and  N_12
REMARK    6  A    between atoms: C_16  and  C_18
REMARK    7  A    between atoms: N_20  and  C_21
REMARK                            x       y       z     vdW  Elec       q    Type
REMARK                         _______ _______ _______ _____ _____    ______ ____
ROOT
ATOM      1  N   UNL     1       0.213  -6.890  -1.085  0.00  0.00    +0.388 N 
ATOM      2  C   UNL     1       1.405  -6.767  -0.236  0.00  0.00    -0.078 C 
ATOM      3  C   UNL     1       1.512  -7.989   0.678  0.00  0.00    -0.018 C 
ATOM      4  C   UNL     1       1.623  -9.253  -0.179  0.00  0.00    +0.009 C 
ATOM      5  C   UNL     1       0.412  -9.332  -1.113  0.00  0.00    +0.058 C 
ATOM      6  C   UNL     1       0.345  -8.060  -1.961  0.00  0.00    -0.065 C 
ATOM      7  H   UNL     1      -0.603  -6.998  -0.502  0.00  0.00    -0.081 HD
ENDROOT
BRANCH   5   8
ATOM      8  C   UNL     1       0.550 -10.531  -2.015  0.00  0.00    +0.215 C 
ATOM      9  O   UNL     1       0.587 -10.384  -3.219  0.00  0.00    -0.276 OA
ATOM     10  N   UNL     1       0.632 -11.768  -1.485  0.00  0.00    -0.312 N 
ATOM     11  H   UNL     1       0.603 -11.885  -0.522  0.00  0.00    +0.149 HD
BRANCH  10  12
ATOM     12  C   UNL     1       0.766 -12.934  -2.362  0.00  0.00    +0.073 C 
ATOM     13  C   UNL     1      -0.620 -13.384  -2.826  0.00  0.00    +0.022 C 
ATOM     14  C   UNL     1      -0.480 -14.602  -3.742  0.00  0.00    +0.002 C 
ATOM     15  C   UNL     1       0.196 -15.741  -2.976  0.00  0.00    +0.000 C 
ATOM     16  C   UNL     1       1.583 -15.290  -2.512  0.00  0.00    +0.002 C 
ATOM     17  C   UNL     1       1.443 -14.072  -1.596  0.00  0.00    +0.022 C 
ENDBRANCH  10  12
ENDBRANCH   5   8
BRANCH   1  18
ATOM     18  C   UNL     1       0.071  -5.679  -1.905  0.00  0.00    +0.016 C 
ATOM     19  C   UNL     1      -1.178  -5.799  -2.779  0.00  0.00    -0.004 C 
BRANCH  18  21
ATOM     20  N   UNL     1       0.367  -3.270  -1.431  0.00  0.00    -0.256 N 
ATOM     21  C   UNL     1      -0.058  -4.476  -1.007  0.00  0.00    +0.206 C 
ATOM     22  O   UNL     1      -0.544  -4.594   0.098  0.00  0.00    -0.277 OA
ATOM     23  H   UNL     1       0.756  -3.176  -2.314  0.00  0.00    +0.158 HD
BRANCH  20  27
ATOM     24  C   UNL     1       0.602   1.401   0.297  0.00  0.00    +0.069 C 
ATOM     25  C   UNL     1       0.339  -0.080   0.199  0.00  0.00    +0.082 A 
ATOM     26  C   UNL     1       0.634  -0.895  -0.903  0.00  0.00    +0.092 A 
ATOM     27  C   UNL     1       0.249  -2.162  -0.604  0.00  0.00    +0.224 A 
ATOM     28  O   UNL     1      -0.269  -2.152   0.636  0.00  0.00    -0.339 OA
ATOM     29  N   UNL     1      -0.197  -0.825   1.126  0.00  0.00    -0.081 NA
ENDBRANCH  20  27
ENDBRANCH  18  21
ENDBRANCH   1  18
TORSDOF 5
