REMARK  Name = ZINC17107039
REMARK  16 active torsions:
REMARK  status: ('A' for Active; 'I' for Inactive)
REMARK    1  A    between atoms: C_1  and  C_2
REMARK    2  A    between atoms: C_2  and  N_3
REMARK    3  A    between atoms: N_3  and  C_4
REMARK    4  A    between atoms: C_4  and  C_5
REMARK    5  A    between atoms: N_10  and  C_11
REMARK    6  A    between atoms: C_11  and  C_12
REMARK    7  A    between atoms: C_12  and  C_13
REMARK    8  A    between atoms: C_13  and  N_64
REMARK    9  A    between atoms: C_14  and  C_15
REMARK   10  A    between atoms: C_14  and  N_64
REMARK   11  A    between atoms: C_15  and  C_17
REMARK   12  A    between atoms: C_15  and  O_25
REMARK   13  A    between atoms: C_20  and  O_24
REMARK   14  A    between atoms: C_21  and  O_23
REMARK   15  A    between atoms: N_28  and  C_33
REMARK   16  A    between atoms: N_31  and  C_32
REMARK                            x       y       z     vdW  Elec       q    Type
REMARK                         _______ _______ _______ _____ _____    ______ ____
ROOT
ATOM      1  C   UNL     1       8.015   4.722  -4.713  0.00  0.00    +0.123 C 
ENDROOT
BRANCH   1   7
ATOM      2  N   UNL     1      10.655   3.340  -4.167  0.00  0.00    -0.301 N 
ATOM      3  C   UNL     1      10.507   4.700  -4.312  0.00  0.00    +0.201 A 
ATOM      4  N   UNL     1      11.481   5.585  -4.235  0.00  0.00    -0.196 NA
ATOM      5  C   UNL     1      10.996   6.813  -4.422  0.00  0.00    +0.170 A 
ATOM      6  C   UNL     1       9.627   6.696  -4.636  0.00  0.00    +0.153 A 
ATOM      7  N   UNL     1       9.334   5.341  -4.557  0.00  0.00    -0.306 N 
ATOM      8  C   UNL     1       8.867   7.856  -4.869  0.00  0.00    +0.282 A 
ATOM      9  O   UNL     1       7.665   7.777  -5.056  0.00  0.00    -0.265 OA
ATOM     10  N   UNL     1       9.481   9.056  -4.883  0.00  0.00    -0.262 N 
ATOM     11  C   UNL     1      10.806   9.159  -4.678  0.00  0.00    +0.333 A 
ATOM     12  O   UNL     1      11.326  10.258  -4.697  0.00  0.00    -0.246 OA
ATOM     13  N   UNL     1      11.569   8.075  -4.443  0.00  0.00    -0.280 N 
ATOM     14  C   UNL     1      13.010   8.227  -4.226  0.00  0.00    +0.155 C 
ATOM     15  C   UNL     1       8.693  10.268  -5.125  0.00  0.00    +0.157 C 
BRANCH   2  17
ATOM     16  C   UNL     1      10.663   2.919  -6.579  0.00  0.00    +0.024 C 
ATOM     17  C   UNL     1      11.443   2.776  -5.270  0.00  0.00    +0.104 C 
ENDBRANCH   2  17
BRANCH   2  18
ATOM     18  C   UNL     1      11.258   3.012  -2.868  0.00  0.00    +0.104 C 
ATOM     19  C   UNL     1      10.217   3.196  -1.762  0.00  0.00    +0.024 C 
ENDBRANCH   2  18
ENDBRANCH   1   7
BRANCH   1  20
ATOM     20  C   UNL     1       7.372   4.538  -3.337  0.00  0.00    +0.003 C 
BRANCH  20  21
ATOM     21  C   UNL     1       5.950   3.999  -3.507  0.00  0.00    -0.081 C 
BRANCH  21  22
ATOM     22  N   UNL     1       5.337   3.825  -2.176  0.00  0.00    +0.381 N 
ATOM     23  H   UNL     1       5.312   4.731  -1.694  0.00  0.00    -0.086 HD
ATOM     24  H   UNL     1       5.898   3.161  -1.629  0.00  0.00    -0.086 HD
BRANCH  22  25
ATOM     25  C   UNL     1       3.963   3.305  -2.310  0.00  0.00    -0.046 C 
BRANCH  25  26
ATOM     26  C   UNL     1       3.354   3.135  -0.916  0.00  0.00    +0.128 C 
BRANCH  26  27
ATOM     27  C   UNL     1       1.949   2.604  -1.044  0.00  0.00    -0.017 A 
ATOM     28  C   UNL     1       1.734   1.244  -1.160  0.00  0.00    +0.010 A 
ATOM     29  C   UNL     1       0.447   0.752  -1.278  0.00  0.00    +0.049 A 
ATOM     30  C   UNL     1      -0.630   1.623  -1.279  0.00  0.00    +0.158 A 
ATOM     31  C   UNL     1      -0.413   2.993  -1.162  0.00  0.00    +0.159 A 
ATOM     32  C   UNL     1       0.879   3.479  -1.044  0.00  0.00    +0.055 A 
BRANCH  31  33
ATOM     33  O   UNL     1      -1.467   3.853  -1.168  0.00  0.00    -0.503 OA
ATOM     34  H   UNL     1      -1.831   4.035  -0.291  0.00  0.00    +0.292 HD
ENDBRANCH  31  33
BRANCH  30  35
ATOM     35  O   UNL     1      -1.896   1.141  -1.395  0.00  0.00    -0.503 OA
ATOM     36  H   UNL     1      -2.207   1.069  -2.308  0.00  0.00    +0.292 HD
ENDBRANCH  30  35
ENDBRANCH  26  27
BRANCH  26  37
ATOM     37  O   UNL     1       4.144   2.215  -0.161  0.00  0.00    -0.389 OA
ATOM     38  H   UNL     1       4.207   1.334  -0.554  0.00  0.00    +0.210 HD
ENDBRANCH  26  37
ENDBRANCH  25  26
ENDBRANCH  22  25
ENDBRANCH  21  22
ENDBRANCH  20  21
ENDBRANCH   1  20
TORSDOF 12
