REMARK  Name = ZINC35852145
REMARK  7 active torsions:
REMARK  status: ('A' for Active; 'I' for Inactive)
REMARK    1  A    between atoms: C_4  and  C_33
REMARK    2  A    between atoms: C_5  and  C_7
REMARK    3  A    between atoms: C_7  and  N_8
REMARK    4  A    between atoms: C_18  and  N_21
REMARK    5  A    between atoms: C_22  and  C_24
REMARK    6  A    between atoms: C_24  and  O_25
REMARK    7  A    between atoms: O_25  and  C_26
REMARK                            x       y       z     vdW  Elec       q    Type
REMARK                         _______ _______ _______ _____ _____    ______ ____
ROOT
ATOM      1  N   UNL     1       1.251  -2.772   1.475  0.00  0.00    +0.383 N 
ATOM      2  C   UNL     1       1.616  -4.186   1.422  0.00  0.00    -0.077 C 
ATOM      3  C   UNL     1       2.430  -4.538   2.648  0.00  0.00    +0.000 C 
ATOM      4  C   UNL     1       1.496  -5.080   3.745  0.00  0.00    +0.104 C 
ATOM      5  N   UNL     1       0.231  -4.318   3.790  0.00  0.00    -0.317 N 
ATOM      6  C   UNL     1       0.189  -2.877   3.657  0.00  0.00    +0.088 C 
ATOM      7  C   UNL     1       0.051  -2.492   2.165  0.00  0.00    -0.059 C 
ATOM      8  C   UNL     1      -0.964  -5.011   3.967  0.00  0.00    +0.121 A 
ATOM      9  C   UNL     1      -0.941  -6.393   4.121  0.00  0.00    +0.045 A 
ATOM     10  C   UNL     1      -2.133  -7.071   4.296  0.00  0.00    +0.028 A 
ATOM     11  C   UNL     1      -3.318  -6.338   4.312  0.00  0.00    +0.052 A 
ATOM     12  C   UNL     1      -3.264  -4.962   4.152  0.00  0.00    +0.136 A 
ATOM     13  N   UNL     1      -2.108  -4.346   3.991  0.00  0.00    -0.238 NA
ATOM     14  H   UNL     1       2.002  -2.269   1.924  0.00  0.00    -0.081 HD
ENDROOT
BRANCH  11  15
ATOM     15  N   UNL     1      -4.550  -6.984   4.486  0.00  0.00    -0.281 N 
ATOM     16  C   UNL     1      -4.634  -8.072   5.277  0.00  0.00    +0.255 C 
ATOM     17  O   UNL     1      -3.665  -8.441   5.907  0.00  0.00    -0.272 OA
ATOM     18  H   UNL     1      -5.342  -6.648   4.038  0.00  0.00    +0.155 HD
BRANCH  16  19
ATOM     19  C   UNL     1      -5.932  -8.830   5.380  0.00  0.00    +0.324 C 
BRANCH  19  20
ATOM     20  O   UNL     1      -5.770  -9.934   6.272  0.00  0.00    -0.483 OA
BRANCH  20  21
ATOM     21  C   UNL     1      -6.855 -10.727   6.477  0.00  0.00    +0.121 A 
ATOM     22  C   UNL     1      -8.050 -10.450   5.828  0.00  0.00    +0.047 A 
ATOM     23  C   UNL     1      -9.151 -11.257   6.038  0.00  0.00    +0.023 A 
ATOM     24  C   UNL     1      -9.064 -12.340   6.896  0.00  0.00    +0.041 A 
ATOM     25  C   UNL     1      -7.873 -12.617   7.544  0.00  0.00    +0.023 A 
ATOM     26  C   UNL     1      -6.768 -11.816   7.332  0.00  0.00    +0.047 A 
ATOM     27 CL   UNL     1     -10.450 -13.351   7.158  0.00  0.00    -0.084 Cl
ENDBRANCH  20  21
ENDBRANCH  19  20
ENDBRANCH  16  19
ENDBRANCH  11  15
BRANCH   1  28
ATOM     28  C   UNL     1       1.121  -2.276   0.099  0.00  0.00    -0.042 C 
BRANCH  28  33
ATOM     29  C   UNL     1      -0.298   1.223   0.078  0.00  0.00    +0.000 A 
ATOM     30  C   UNL     1       0.852   1.988   0.140  0.00  0.00    +0.001 A 
ATOM     31  C   UNL     1       2.088   1.373   0.188  0.00  0.00    +0.012 A 
ATOM     32  C   UNL     1       2.176  -0.007   0.175  0.00  0.00    +0.056 A 
ATOM     33  C   UNL     1       1.026  -0.771   0.114  0.00  0.00    -0.052 A 
ATOM     34  C   UNL     1      -0.211  -0.157   0.064  0.00  0.00    +0.002 A 
BRANCH  32  35
ATOM     35  C   UNL     1       3.525  -0.677   0.227  0.00  0.00    +0.418 C 
ATOM     36  F   UNL     1       4.530   0.294   0.172  0.00  0.00    -0.166 F 
ATOM     37  F   UNL     1       3.640  -1.402   1.418  0.00  0.00    -0.166 F 
ATOM     38  F   UNL     1       3.656  -1.546  -0.862  0.00  0.00    -0.166 F 
ENDBRANCH  32  35
ENDBRANCH  28  33
ENDBRANCH   1  28
TORSDOF 7
