REMARK  Name = ZINC36647962
REMARK  11 active torsions:
REMARK  status: ('A' for Active; 'I' for Inactive)
REMARK    1  A    between atoms: C_1  and  C_2
REMARK    2  A    between atoms: C_2  and  O_3
REMARK    3  A    between atoms: O_3  and  C_4
REMARK    4  A    between atoms: N_13  and  C_14
REMARK    5  A    between atoms: C_14  and  C_15
REMARK    6  A    between atoms: C_15  and  N_16
REMARK    7  A    between atoms: N_16  and  C_17
REMARK    8  A    between atoms: N_16  and  C_18
REMARK    9  A    between atoms: C_19  and  C_21
REMARK   10  A    between atoms: N_26  and  S_28
REMARK   11  A    between atoms: S_28  and  C_31
REMARK                            x       y       z     vdW  Elec       q    Type
REMARK                         _______ _______ _______ _____ _____    ______ ____
ROOT
ATOM      1  C   UNL     1       0.313  -1.872   1.656  0.00  0.00    +0.147 A 
ATOM      2  C   UNL     1      -0.559  -2.659   0.941  0.00  0.00    +0.048 A 
ATOM      3  C   UNL     1      -0.936  -3.916   1.391  0.00  0.00    +0.005 A 
ATOM      4  C   UNL     1      -0.425  -4.388   2.586  0.00  0.00    +0.017 A 
ATOM      5  C   UNL     1       0.447  -3.610   3.309  0.00  0.00    +0.044 A 
ATOM      6  C   UNL     1       0.859  -2.329   2.882  0.00  0.00    +0.122 A 
ATOM      7  N   UNL     1       1.725  -1.690   3.699  0.00  0.00    -0.221 NA
ATOM      8  C   UNL     1       2.162  -2.220   4.816  0.00  0.00    +0.168 A 
ATOM      9  S   UNL     1       1.324  -3.799   4.842  0.00  0.00    -0.052 S 
ATOM     10  N   UNL     1       3.043  -1.688   5.745  0.00  0.00    -0.252 N 
ATOM     11  C   UNL     1       3.430  -0.401   5.647  0.00  0.00    +0.226 C 
ATOM     12  O   UNL     1       4.282   0.035   6.391  0.00  0.00    -0.275 OA
ENDROOT
BRANCH  11  13
ATOM     13  C   UNL     1       2.803   0.497   4.612  0.00  0.00    +0.091 C 
ATOM     14  C   UNL     1       3.476   0.264   3.257  0.00  0.00    +0.015 C 
ATOM     15  C   UNL     1       2.818   1.151   2.199  0.00  0.00    +0.018 C 
ATOM     16  C   UNL     1       3.005   2.622   2.584  0.00  0.00    +0.109 C 
ATOM     17  N   UNL     1       2.490   2.824   3.945  0.00  0.00    -0.175 NA
ATOM     18  C   UNL     1       2.989   1.961   5.025  0.00  0.00    +0.122 C 
BRANCH  17  19
ATOM     19  S   UNL     1       1.368   4.001   4.257  0.00  0.00    +0.067 S 
ATOM     20  O   UNL     1       1.490   4.323   5.635  0.00  0.00    -0.152 OA
ATOM     21  O   UNL     1       1.506   4.975   3.231  0.00  0.00    -0.152 OA
BRANCH  19  22
ATOM     22  C   UNL     1      -0.223   3.273   4.049  0.00  0.00    +0.143 A 
ATOM     23  C   UNL     1      -1.003   2.649   4.965  0.00  0.00    +0.036 A 
ATOM     24  C   UNL     1      -2.230   2.149   4.572  0.00  0.00    +0.010 A 
ATOM     25  C   UNL     1      -2.618   2.297   3.282  0.00  0.00    +0.047 A 
ATOM     26  S   UNL     1      -1.230   3.171   2.578  0.00  0.00    -0.077 S 
ENDBRANCH  19  22
ENDBRANCH  17  19
ENDBRANCH  11  13
BRANCH   1  27
ATOM     27  O   UNL     1       0.658  -0.646   1.180  0.00  0.00    -0.490 OA
BRANCH  27  29
ATOM     28  C   UNL     1       0.578   1.152  -0.432  0.00  0.00    +0.048 C 
ATOM     29  C   UNL     1       0.074  -0.244  -0.060  0.00  0.00    +0.226 C 
ENDBRANCH  27  29
ENDBRANCH   1  27
BRANCH  10  30
ATOM     30  C   UNL     1       3.553  -2.525   6.834  0.00  0.00    +0.097 C 
BRANCH  30  31
ATOM     31  C   UNL     1       4.892  -3.139   6.421  0.00  0.00    -0.060 C 
BRANCH  31  32
ATOM     32  N   UNL     1       5.404  -3.978   7.513  0.00  0.00    +0.377 N 
ATOM     33  C   UNL     1       4.501  -5.118   7.719  0.00  0.00    -0.097 C 
ATOM     34  C   UNL     1       6.743  -4.471   7.166  0.00  0.00    -0.097 C 
ATOM     35  H   UNL     1       5.455  -3.433   8.361  0.00  0.00    -0.083 HD
ENDBRANCH  31  32
ENDBRANCH  30  31
ENDBRANCH  10  30
TORSDOF 8
