REMARK  Name = ZINC20763764
REMARK  9 active torsions:
REMARK  status: ('A' for Active; 'I' for Inactive)
REMARK    1  A    between atoms: C_4  and  C_7
REMARK    2  A    between atoms: C_7  and  N_8
REMARK    3  A    between atoms: C_12  and  C_19
REMARK    4  A    between atoms: C_13  and  N_15
REMARK    5  A    between atoms: N_15  and  C_16
REMARK    6  A    between atoms: C_16  and  C_17
REMARK    7  A    between atoms: C_17  and  N_18
REMARK    8  A    between atoms: N_23  and  C_25
REMARK    9  A    between atoms: C_25  and  C_26
REMARK                            x       y       z     vdW  Elec       q    Type
REMARK                         _______ _______ _______ _____ _____    ______ ____
ROOT
ATOM      1  N   UNL     1       4.152  -0.952   1.338  0.00  0.00    -0.325 N 
ATOM      2  C   UNL     1       5.343  -1.619   1.575  0.00  0.00    +0.126 A 
ATOM      3  C   UNL     1       5.748  -1.851   2.893  0.00  0.00    +0.011 A 
ATOM      4  C   UNL     1       6.920  -2.508   3.125  0.00  0.00    -0.018 A 
ATOM      5  C   UNL     1       7.687  -2.928   2.026  0.00  0.00    +0.095 A 
ATOM      6  C   UNL     1       7.222  -2.662   0.727  0.00  0.00    +0.139 A 
ATOM      7  N   UNL     1       6.073  -2.028   0.550  0.00  0.00    -0.216 NA
ATOM      8  C   UNL     1       7.411  -2.802   4.516  0.00  0.00    +0.052 C 
ATOM      9  C   UNL     1       6.669  -1.925   5.527  0.00  0.00    +0.090 C 
ATOM     10  N   UNL     1       5.224  -2.039   5.271  0.00  0.00    -0.294 NA
ATOM     11  C   UNL     1       4.875  -1.361   4.018  0.00  0.00    +0.123 C 
ATOM     12  H   UNL     1       3.610  -0.648   2.082  0.00  0.00    +0.148 HD
ENDROOT
BRANCH   6  13
ATOM     13  N   UNL     1       7.963  -3.068  -0.369  0.00  0.00    -0.330 N 
ATOM     14  H   UNL     1       8.803  -3.536  -0.240  0.00  0.00    +0.147 HD
BRANCH  13  15
ATOM     15  C   UNL     1       7.479  -2.791  -1.724  0.00  0.00    +0.083 C 
BRANCH  15  16
ATOM     16  C   UNL     1       8.477  -3.341  -2.744  0.00  0.00    -0.068 C 
BRANCH  16  17
ATOM     17  N   UNL     1       7.992  -3.063  -4.103  0.00  0.00    +0.379 N 
ATOM     18  H   UNL     1       7.896  -2.066  -4.229  0.00  0.00    -0.090 HD
ATOM     19  H   UNL     1       8.650  -3.425  -4.776  0.00  0.00    -0.090 HD
ATOM     20  H   UNL     1       7.095  -3.506  -4.237  0.00  0.00    -0.090 HD
ENDBRANCH  16  17
ENDBRANCH  15  16
ENDBRANCH  13  15
ENDBRANCH   6  13
BRANCH   5  21
ATOM     21  C   UNL     1       8.926  -3.618   2.226  0.00  0.00    +0.103 C 
ATOM     22  N   UNL     1       9.909  -4.165   2.385  0.00  0.00    -0.191 NA
ENDBRANCH   5  21
BRANCH   1  23
ATOM     23  C   UNL     1       3.711  -0.707  -0.038  0.00  0.00    +0.138 C 
BRANCH  23  27
ATOM     24  C   UNL     1      -0.017   1.378   0.010  0.00  0.00    +0.000 A 
ATOM     25  C   UNL     1       1.171   2.086   0.002  0.00  0.00    +0.000 A 
ATOM     26  C   UNL     1       2.377   1.411  -0.013  0.00  0.00    +0.005 A 
ATOM     27  C   UNL     1       2.396   0.029  -0.020  0.00  0.00    -0.030 A 
ATOM     28  C   UNL     1       1.208  -0.679  -0.012  0.00  0.00    +0.005 A 
ATOM     29  C   UNL     1       0.002  -0.004   0.002  0.00  0.00    +0.000 A 
ENDBRANCH  23  27
ENDBRANCH   1  23
BRANCH  10  30
ATOM     30  C   UNL     1       4.446  -1.501   6.395  0.00  0.00    +0.120 C 
BRANCH  30  31
ATOM     31  C   UNL     1       4.663  -2.361   7.613  0.00  0.00    -0.033 A 
ATOM     32  C   UNL     1       3.836  -3.442   7.852  0.00  0.00    +0.005 A 
ATOM     33  C   UNL     1       4.035  -4.231   8.970  0.00  0.00    +0.000 A 
ATOM     34  C   UNL     1       5.061  -3.939   9.848  0.00  0.00    +0.000 A 
ATOM     35  C   UNL     1       5.889  -2.858   9.608  0.00  0.00    +0.000 A 
ATOM     36  C   UNL     1       5.693  -2.072   8.489  0.00  0.00    +0.005 A 
ENDBRANCH  30  31
ENDBRANCH  10  30
TORSDOF 9
