REMARK  Name = ZINC39631269
REMARK  11 active torsions:
REMARK  status: ('A' for Active; 'I' for Inactive)
REMARK    1  A    between atoms: C_1  and  C_2
REMARK    2  A    between atoms: C_2  and  C_4
REMARK    3  A    between atoms: C_2  and  N_11
REMARK    4  A    between atoms: C_4  and  C_5
REMARK    5  A    between atoms: C_5  and  C_6
REMARK    6  A    between atoms: C_6  and  C_7
REMARK    7  A    between atoms: C_7  and  C_8
REMARK    8  A    between atoms: C_7  and  C_9
REMARK    9  A    between atoms: C_7  and  O_10
REMARK   10  A    between atoms: C_12  and  C_14
REMARK   11  A    between atoms: C_25  and  C_27
REMARK                            x       y       z     vdW  Elec       q    Type
REMARK                         _______ _______ _______ _____ _____    ______ ____
ROOT
ATOM      1  C   UNL     1      -3.465  -1.164  -1.134  0.00  0.00    +0.100 C 
ATOM      2  C   UNL     1      -4.361  -0.271  -0.248  0.00  0.00    +0.121 C 
ATOM      3  N   UNL     1      -4.986   0.686  -1.192  0.00  0.00    -0.296 N 
ATOM      4  C   UNL     1      -5.291  -0.128  -2.393  0.00  0.00    +0.115 C 
ATOM      5  C   UNL     1      -4.080  -1.071  -2.540  0.00  0.00    -0.004 C 
ATOM      6  C   UNL     1      -4.538  -2.449  -3.009  0.00  0.00    -0.010 C 
ATOM      7  C   UNL     1      -5.093  -2.341  -4.432  0.00  0.00    -0.082 C 
ATOM      8  N   UNL     1      -4.053  -1.817  -5.326  0.00  0.00    +0.379 N 
ATOM      9  C   UNL     1      -3.685  -0.455  -4.923  0.00  0.00    -0.082 C 
ATOM     10  C   UNL     1      -3.071  -0.483  -3.521  0.00  0.00    -0.010 C 
ATOM     11  C   UNL     1      -5.223   1.999  -1.002  0.00  0.00    +0.252 C 
ATOM     12  O   UNL     1      -5.749   2.655  -1.880  0.00  0.00    -0.270 OA
ATOM     13  H   UNL     1      -3.240  -2.412  -5.278  0.00  0.00    -0.086 HD
ATOM     14  H   UNL     1      -4.401  -1.804  -6.273  0.00  0.00    -0.086 HD
ENDROOT
BRANCH  11  15
ATOM     15  C   UNL     1      -4.846   2.639   0.273  0.00  0.00    +0.107 A 
ATOM     16  C   UNL     1      -3.579   3.213   0.423  0.00  0.00    +0.138 A 
ATOM     17  C   UNL     1      -3.233   3.812   1.620  0.00  0.00    +0.039 A 
ATOM     18  C   UNL     1      -4.136   3.844   2.668  0.00  0.00    +0.006 A 
ATOM     19  C   UNL     1      -5.391   3.279   2.527  0.00  0.00    +0.039 A 
ATOM     20  C   UNL     1      -5.755   2.682   1.335  0.00  0.00    +0.138 A 
ATOM     21  F   UNL     1      -6.983   2.136   1.198  0.00  0.00    -0.205 F 
ATOM     22  F   UNL     1      -2.695   3.182  -0.598  0.00  0.00    -0.205 F 
ENDBRANCH  11  15
BRANCH   1  24
ATOM     23  N   UNL     1      -1.020  -1.493  -1.321  0.00  0.00    -0.312 N 
ATOM     24  C   UNL     1      -2.051  -0.643  -1.145  0.00  0.00    +0.218 C 
ATOM     25  O   UNL     1      -1.841   0.542  -0.994  0.00  0.00    -0.275 OA
ATOM     26  H   UNL     1      -1.188  -2.441  -1.442  0.00  0.00    +0.149 HD
BRANCH  23  28
ATOM     27  C   UNL     1       0.873  -0.888   0.104  0.00  0.00    +0.028 C 
ATOM     28  C   UNL     1       0.354  -0.986  -1.332  0.00  0.00    +0.070 C 
BRANCH  28  29
ATOM     29  C   UNL     1       1.244  -1.940  -2.131  0.00  0.00    +0.022 C 
BRANCH  29  30
ATOM     30  C   UNL     1       0.802  -1.943  -3.596  0.00  0.00    +0.005 C 
BRANCH  30  31
ATOM     31  C   UNL     1       1.692  -2.897  -4.395  0.00  0.00    +0.034 C 
BRANCH  31  32
ATOM     32  C   UNL     1       1.250  -2.899  -5.860  0.00  0.00    +0.061 C 
ATOM     33  C   UNL     1       1.375  -1.486  -6.433  0.00  0.00    +0.041 C 
ATOM     34  C   UNL     1       2.140  -3.854  -6.660  0.00  0.00    +0.041 C 
BRANCH  32  35
ATOM     35  O   UNL     1      -0.109  -3.330  -5.947  0.00  0.00    -0.389 OA
ATOM     36  H   UNL     1      -0.263  -4.220  -5.601  0.00  0.00    +0.210 HD
ENDBRANCH  32  35
ENDBRANCH  31  32
ENDBRANCH  30  31
ENDBRANCH  29  30
ENDBRANCH  28  29
ENDBRANCH  23  28
ENDBRANCH   1  24
TORSDOF 8
