REMARK  Name = ZINC39464431
REMARK  3 active torsions:
REMARK  status: ('A' for Active; 'I' for Inactive)
REMARK    1  A    between atoms: C_4  and  P_8
REMARK    2  A    between atoms: C_5  and  O_7
REMARK    3  A    between atoms: C_17  and  O_24
REMARK                            x       y       z     vdW  Elec       q    Type
REMARK                         _______ _______ _______ _____ _____    ______ ____
ROOT
ATOM      1  P   UNL     1       3.989  -0.847  -0.042  0.00  0.00    +0.318 P 
ATOM      2  O   UNL     1       3.856  -2.123  -0.781  0.00  0.00    -0.266 OA
ATOM      3  N   UNL     1       5.157   0.097  -0.733  0.00  0.00    -0.175 NA
ATOM      4  N   UNL     1       6.463  -0.215  -0.426  0.00  0.00    -0.225 NA
ATOM      5  C   UNL     1       7.372   0.724  -1.101  0.00  0.00    +0.108 C 
ATOM      6  C   UNL     1       8.795   0.171  -1.025  0.00  0.00    +0.052 C 
ATOM      7  C   UNL     1       9.130  -0.173   0.404  0.00  0.00    -0.040 A 
ATOM      8  C   UNL     1      10.465  -0.313   0.755  0.00  0.00    +0.027 A 
ATOM      9  C   UNL     1      10.816  -0.628   2.052  0.00  0.00    +0.083 A 
ATOM     10  C   UNL     1       9.826  -0.805   3.010  0.00  0.00    +0.135 A 
ATOM     11  C   UNL     1       8.495  -0.664   2.656  0.00  0.00    +0.052 A 
ATOM     12  C   UNL     1       8.145  -0.348   1.351  0.00  0.00    -0.020 A 
ATOM     13  C   UNL     1       6.682  -0.207   1.020  0.00  0.00    +0.130 C 
ATOM     14  C   UNL     1       5.905  -1.338   1.700  0.00  0.00    +0.194 C 
ATOM     15  O   UNL     1       4.496  -1.128   1.478  0.00  0.00    -0.311 OA
ATOM     16 CL   UNL     1      12.488  -0.802   2.485  0.00  0.00    -0.080 Cl
ATOM     17  H   UNL     1       4.935   0.833  -1.325  0.00  0.00    +0.151 HD
ENDROOT
BRANCH   1  21
ATOM     18  C   UNL     1      -0.017   1.377   0.010  0.00  0.00    +0.004 A 
ATOM     19  C   UNL     1       1.171   2.086   0.002  0.00  0.00    +0.001 A 
ATOM     20  C   UNL     1       2.379   1.415  -0.013  0.00  0.00    +0.018 A 
ATOM     21  C   UNL     1       2.403   0.033  -0.021  0.00  0.00    +0.094 A 
ATOM     22  C   UNL     1       1.214  -0.680  -0.013  0.00  0.00    +0.131 A 
ATOM     23  C   UNL     1       0.002  -0.004   0.002  0.00  0.00    +0.046 A 
BRANCH  22  24
ATOM     24  O   UNL     1       1.235  -2.039  -0.021  0.00  0.00    -0.506 OA
ATOM     25  H   UNL     1       1.249  -2.437   0.860  0.00  0.00    +0.292 HD
ENDBRANCH  22  24
ENDBRANCH   1  21
BRANCH  10  26
ATOM     26  O   UNL     1      10.162  -1.114   4.290  0.00  0.00    -0.505 OA
ATOM     27  H   UNL     1      10.297  -0.344   4.858  0.00  0.00    +0.292 HD
ENDBRANCH  10  26
TORSDOF 3
