REMARK  Name = ZINC45851489
REMARK  1 active torsions:
REMARK  status: ('A' for Active; 'I' for Inactive)
REMARK    1  A    between atoms: C_5  and  C_6
REMARK                            x       y       z     vdW  Elec       q    Type
REMARK                         _______ _______ _______ _____ _____    ______ ____
ROOT
ATOM      1  C   UNL     1      -1.647  -1.075   1.651  0.00  0.00    +0.253 C 
ATOM      2  O   UNL     1      -2.622  -0.874   2.352  0.00  0.00    -0.269 OA
ATOM      3  N   UNL     1      -1.420  -2.306   1.151  0.00  0.00    -0.294 N 
ATOM      4  C   UNL     1      -0.162  -2.609   0.454  0.00  0.00    +0.127 C 
ATOM      5  C   UNL     1       0.495  -3.818   1.132  0.00  0.00    +0.128 C 
ATOM      6  N   UNL     1      -0.511  -4.881   1.274  0.00  0.00    -0.282 N 
ATOM      7  C   UNL     1      -1.768  -4.577   1.970  0.00  0.00    +0.128 C 
ATOM      8  C   UNL     1      -2.423  -3.370   1.297  0.00  0.00    +0.127 C 
ATOM      9  C   UNL     1      -0.283  -6.111   0.773  0.00  0.00    +0.305 C 
ATOM     10  O   UNL     1       0.851  -6.458   0.504  0.00  0.00    -0.252 OA
ATOM     11  N   UNL     1      -1.313  -6.957   0.571  0.00  0.00    -0.285 N 
ATOM     12  C   UNL     1      -2.697  -6.465   0.572  0.00  0.00    +0.109 C 
ATOM     13  C   UNL     1      -3.378  -6.905  -0.728  0.00  0.00    +0.019 C 
ATOM     14  C   UNL     1      -3.251  -8.423  -0.877  0.00  0.00    +0.003 C 
ATOM     15  C   UNL     1      -1.771  -8.808  -0.953  0.00  0.00    +0.019 C 
ATOM     16  C   UNL     1      -1.072  -8.388   0.339  0.00  0.00    +0.109 C 
ENDROOT
BRANCH   1  21
ATOM     17  C   UNL     1      -0.623   1.266   1.944  0.00  0.00    +0.024 A 
ATOM     18  C   UNL     1       0.359   2.116   1.456  0.00  0.00    -0.036 A 
ATOM     19  C   UNL     1       1.133   1.638   0.440  0.00  0.00    -0.006 A 
ATOM     20  S   UNL     1       0.577   0.094   0.131  0.00  0.00    -0.088 S 
ATOM     21  C   UNL     1      -0.720   0.020   1.352  0.00  0.00    +0.075 A 
ATOM     22  C   UNL     1       2.250   2.361  -0.253  0.00  0.00    +0.043 C 
ATOM     23  C   UNL     1       2.152   3.853   0.093  0.00  0.00    +0.005 C 
ATOM     24  C   UNL     1       1.975   3.997   1.607  0.00  0.00    +0.005 C 
ATOM     25  C   UNL     1       0.581   3.519   2.014  0.00  0.00    +0.036 C 
ENDBRANCH   1  21
TORSDOF 1
