REMARK  Name = ZINC52860146
REMARK  5 active torsions:
REMARK  status: ('A' for Active; 'I' for Inactive)
REMARK    1  A    between atoms: C_1  and  N_2
REMARK    2  A    between atoms: N_2  and  C_3
REMARK    3  A    between atoms: N_2  and  C_10
REMARK    4  A    between atoms: C_3  and  C_4
REMARK    5  A    between atoms: C_15  and  C_16
REMARK                            x       y       z     vdW  Elec       q    Type
REMARK                         _______ _______ _______ _____ _____    ______ ____
ROOT
ATOM      1  C   UNL     1       0.136  -0.819  -1.179  0.00  0.00    +0.040 A 
ATOM      2  C   UNL     1       1.372  -1.029  -1.778  0.00  0.00    +0.025 A 
ATOM      3  C   UNL     1       1.444  -1.585  -3.039  0.00  0.00    +0.022 A 
ATOM      4  C   UNL     1       0.288  -1.938  -3.717  0.00  0.00    +0.042 A 
ATOM      5  C   UNL     1      -0.948  -1.738  -3.138  0.00  0.00    +0.033 A 
ATOM      6  C   UNL     1      -1.036  -1.181  -1.860  0.00  0.00    +0.034 A 
ATOM      7 CL   UNL     1       0.395  -2.636  -5.303  0.00  0.00    -0.084 Cl
ENDROOT
BRANCH   6   8
ATOM      8  C   UNL     1      -2.354  -0.970  -1.232  0.00  0.00    +0.096 C 
ATOM      9  N   UNL     1      -2.713   0.250  -0.829  0.00  0.00    -0.387 N 
ATOM     10  N   UNL     1      -3.187  -1.997  -1.067  0.00  0.00    -0.345 N 
ATOM     11  H   UNL     1      -3.554   0.379  -0.363  0.00  0.00    +0.157 HD
ATOM     12  H   UNL     1      -2.926  -2.885  -1.360  0.00  0.00    +0.144 HD
ATOM     13  H   UNL     1      -4.053  -1.858  -0.654  0.00  0.00    +0.144 HD
ATOM     14  H   UNL     1      -2.132   1.008  -1.002  0.00  0.00    +0.157 HD
ENDBRANCH   6   8
BRANCH   1  16
ATOM     15  C   UNL     1      -0.139   1.183   0.245  0.00  0.00    +0.129 C 
ATOM     16  N   UNL     1       0.062  -0.260   0.091  0.00  0.00    -0.328 N 
BRANCH  16  17
ATOM     17  C   UNL     1       0.184  -1.113   1.275  0.00  0.00    +0.147 C 
BRANCH  17  18
ATOM     18  C   UNL     1      -1.190  -1.487   1.769  0.00  0.00    +0.008 A 
ATOM     19  C   UNL     1      -1.955  -2.555   1.436  0.00  0.00    +0.028 A 
ATOM     20  C   UNL     1      -3.200  -2.697   2.022  0.00  0.00    +0.025 A 
ATOM     21  C   UNL     1      -3.618  -1.763   2.911  0.00  0.00    +0.060 A 
ATOM     22  S   UNL     1      -2.230  -0.641   2.949  0.00  0.00    -0.099 S 
ATOM     23 BR   UNL     1      -4.302  -4.171   1.589  0.00  0.00    -0.050 Br
ENDBRANCH  17  18
ENDBRANCH  16  17
ENDBRANCH   1  16
TORSDOF 4
