REMARK  Name = ZINC20106650
REMARK  8 active torsions:
REMARK  status: ('A' for Active; 'I' for Inactive)
REMARK    1  A    between atoms: C_1  and  C_2
REMARK    2  A    between atoms: C_5  and  N_9
REMARK    3  A    between atoms: C_7  and  C_8
REMARK    4  A    between atoms: C_10  and  C_12
REMARK    5  A    between atoms: N_23  and  C_35
REMARK    6  A    between atoms: C_24  and  C_26
REMARK    7  A    between atoms: N_28  and  C_29
REMARK    8  A    between atoms: C_35  and  C_36
REMARK                            x       y       z     vdW  Elec       q    Type
REMARK                         _______ _______ _______ _____ _____    ______ ____
ROOT
ATOM      1  C   UNL     1      -2.065  -2.596   2.995  0.00  0.00    +0.123 C 
ATOM      2  C   UNL     1      -3.306  -1.618   3.025  0.00  0.00    +0.155 C 
ATOM      3  C   UNL     1      -2.812  -0.298   3.631  0.00  0.00    +0.004 C 
ATOM      4  C   UNL     1      -2.051   0.303   2.708  0.00  0.00    +0.009 C 
ATOM      5  C   UNL     1      -2.049  -0.657   1.573  0.00  0.00    +0.127 C 
ATOM      6  C   UNL     1      -1.145  -1.874   1.994  0.00  0.00    +0.128 C 
ATOM      7  C   UNL     1      -0.975  -2.572   0.674  0.00  0.00    +0.224 C 
ATOM      8  O   UNL     1      -0.741  -3.754   0.530  0.00  0.00    -0.275 OA
ATOM      9  N   UNL     1      -1.125  -1.673  -0.331  0.00  0.00    -0.282 N 
ATOM     10  C   UNL     1      -1.536  -0.351   0.201  0.00  0.00    +0.199 C 
ATOM     11  O   UNL     1      -3.378  -1.244   1.602  0.00  0.00    -0.358 OA
ENDROOT
BRANCH   1  13
ATOM     12  N   UNL     1      -2.062  -3.298   5.367  0.00  0.00    -0.285 N 
ATOM     13  C   UNL     1      -1.413  -2.696   4.350  0.00  0.00    +0.224 C 
ATOM     14  O   UNL     1      -0.305  -2.236   4.525  0.00  0.00    -0.275 OA
ATOM     15  H   UNL     1      -3.100  -3.638   5.233  0.00  0.00    +0.155 HD
BRANCH  12  20
ATOM     16  C   UNL     1       0.558  -4.075  10.338  0.00  0.00    +0.044 C 
ATOM     17  C   UNL     1      -0.138  -3.869   9.018  0.00  0.00    -0.047 A 
ATOM     18  C   UNL     1       0.586  -3.922   7.840  0.00  0.00    +0.005 A 
ATOM     19  C   UNL     1      -0.049  -3.733   6.629  0.00  0.00    +0.023 A 
ATOM     20  C   UNL     1      -1.416  -3.489   6.593  0.00  0.00    +0.034 A 
ATOM     21  C   UNL     1      -2.139  -3.430   7.777  0.00  0.00    +0.027 A 
ATOM     22  C   UNL     1      -1.499  -3.625   8.986  0.00  0.00    -0.046 A 
ATOM     23  C   UNL     1      -2.284  -3.567  10.271  0.00  0.00    +0.044 C 
ENDBRANCH  12  20
ENDBRANCH   1  13
BRANCH  10  24
ATOM     24  C   UNL     1      -0.353   0.580   0.274  0.00  0.00    +0.237 C 
ATOM     25  O   UNL     1       0.774   0.132   0.251  0.00  0.00    -0.274 OA
ATOM     26  N   UNL     1      -0.547   1.910   0.366  0.00  0.00    -0.311 N 
ATOM     27  H   UNL     1      -1.569   2.317   0.387  0.00  0.00    +0.149 HD
BRANCH  26  28
ATOM     28  C   UNL     1       0.603   2.815   0.437  0.00  0.00    +0.073 C 
ATOM     29  C   UNL     1       1.071   2.932   1.889  0.00  0.00    +0.022 C 
ATOM     30  C   UNL     1       2.272   3.877   1.964  0.00  0.00    +0.002 C 
ATOM     31  C   UNL     1       1.866   5.258   1.446  0.00  0.00    +0.000 C 
ATOM     32  C   UNL     1       1.399   5.142  -0.006  0.00  0.00    +0.002 C 
ATOM     33  C   UNL     1       0.198   4.197  -0.080  0.00  0.00    +0.022 C 
ENDBRANCH  26  28
ENDBRANCH  10  24
BRANCH   9  34
ATOM     34  C   UNL     1      -0.910  -1.968  -1.750  0.00  0.00    +0.143 C 
BRANCH  34  35
ATOM     35  C   UNL     1       0.529  -1.697  -2.107  0.00  0.00    -0.030 A 
ATOM     36  C   UNL     1       0.905  -0.444  -2.554  0.00  0.00    +0.008 A 
ATOM     37  C   UNL     1       2.225  -0.192  -2.877  0.00  0.00    +0.038 A 
ATOM     38  C   UNL     1       3.169  -1.199  -2.764  0.00  0.00    +0.123 A 
ATOM     39  C   UNL     1       2.790  -2.455  -2.321  0.00  0.00    +0.038 A 
ATOM     40  C   UNL     1       1.470  -2.703  -1.993  0.00  0.00    +0.008 A 
ATOM     41  F   UNL     1       4.458  -0.956  -3.085  0.00  0.00    -0.205 F 
ENDBRANCH  34  35
ENDBRANCH   9  34
TORSDOF 6
