REMARK  Name = ZINC35426953
REMARK  7 active torsions:
REMARK  status: ('A' for Active; 'I' for Inactive)
REMARK    1  A    between atoms: C_1  and  C_2
REMARK    2  A    between atoms: N_15  and  C_18
REMARK    3  A    between atoms: N_23  and  C_24
REMARK    4  A    between atoms: C_27  and  O_32
REMARK    5  A    between atoms: C_29  and  O_30
REMARK    6  A    between atoms: O_30  and  C_31
REMARK    7  A    between atoms: O_32  and  C_33
REMARK                            x       y       z     vdW  Elec       q    Type
REMARK                         _______ _______ _______ _____ _____    ______ ____
ROOT
ATOM      1  C   UNL     1      -0.028   1.547   0.031  0.00  0.00    +0.035 C 
ATOM      2  C   UNL     1       0.003   0.018   0.010  0.00  0.00    +0.122 C 
ATOM      3  C   UNL     1       0.689  -0.440  -1.242  0.00  0.00    +0.044 A 
ATOM      4  C   UNL     1       0.289  -1.339  -2.153  0.00  0.00    +0.025 A 
ATOM      5  C   UNL     1       1.264  -1.371  -3.173  0.00  0.00    +0.020 A 
ATOM      6  C   UNL     1       2.237  -0.495  -2.834  0.00  0.00    +0.092 A 
ATOM      7  N   UNL     1       1.909   0.055  -1.642  0.00  0.00    -0.312 N 
ATOM      8  C   UNL     1       2.594   0.938  -0.817  0.00  0.00    +0.090 A 
ATOM      9  C   UNL     1       2.732   0.775   0.527  0.00  0.00    +0.004 A 
ATOM     10  C   UNL     1       3.425   1.786   1.218  0.00  0.00    -0.034 A 
ATOM     11  C   UNL     1       3.921   2.825   0.493  0.00  0.00    -0.021 A 
ATOM     12  S   UNL     1       3.447   2.444  -1.172  0.00  0.00    -0.077 S 
ATOM     13  C   UNL     1       4.680   4.000   1.015  0.00  0.00    -0.036 C 
ATOM     14  N   UNL     1       4.491   4.060   2.477  0.00  0.00    +0.381 N 
ATOM     15  C   UNL     1       4.772   2.742   3.060  0.00  0.00    -0.074 C 
ATOM     16  C   UNL     1       3.644   1.761   2.729  0.00  0.00    +0.018 C 
ATOM     17  C   UNL     1       5.408   5.055   3.049  0.00  0.00    -0.096 C 
ATOM     18  C   UNL     1       2.169  -0.455   1.204  0.00  0.00    +0.148 C 
ATOM     19  N   UNL     1       0.698  -0.467   1.228  0.00  0.00    -0.273 N 
ATOM     20  C   UNL     1       0.015  -0.899   2.306  0.00  0.00    +0.307 C 
ATOM     21  O   UNL     1      -1.201  -0.897   2.296  0.00  0.00    -0.252 OA
ATOM     22  N   UNL     1       0.679  -1.333   3.396  0.00  0.00    -0.266 N 
ATOM     23  H   UNL     1       1.645  -1.413   3.374  0.00  0.00    +0.156 HD
ATOM     24  H   UNL     1       3.539   4.323   2.683  0.00  0.00    -0.082 HD
ENDROOT
BRANCH  22  25
ATOM     25  C   UNL     1      -0.028  -1.670   4.561  0.00  0.00    +0.078 A 
ATOM     26  C   UNL     1      -1.272  -1.108   4.805  0.00  0.00    +0.050 A 
ATOM     27  C   UNL     1      -1.968  -1.440   5.952  0.00  0.00    +0.084 A 
ATOM     28  C   UNL     1      -1.423  -2.335   6.862  0.00  0.00    +0.142 A 
ATOM     29  C   UNL     1      -0.179  -2.900   6.622  0.00  0.00    +0.094 A 
ATOM     30  C   UNL     1       0.517  -2.574   5.470  0.00  0.00    +0.145 A 
ATOM     31 CL   UNL     1      -3.525  -0.735   6.257  0.00  0.00    -0.080 Cl
BRANCH  30  32
ATOM     32  O   UNL     1       1.734  -3.131   5.229  0.00  0.00    -0.493 OA
ATOM     33  C   UNL     1       2.232  -4.049   6.205  0.00  0.00    +0.277 C 
ENDBRANCH  30  32
BRANCH  28  34
ATOM     34  O   UNL     1      -2.109  -2.659   7.991  0.00  0.00    -0.494 OA
ATOM     35  C   UNL     1      -1.489  -3.587   8.883  0.00  0.00    +0.277 C 
ENDBRANCH  28  34
ENDBRANCH  22  25
TORSDOF 3
