REMARK  Name = ZINC21673267
REMARK  10 active torsions:
REMARK  status: ('A' for Active; 'I' for Inactive)
REMARK    1  A    between atoms: C_1  and  C_2
REMARK    2  A    between atoms: C_2  and  C_4
REMARK    3  A    between atoms: C_2  and  N_15
REMARK    4  A    between atoms: N_6  and  C_7
REMARK    5  A    between atoms: C_8  and  C_12
REMARK    6  A    between atoms: N_18  and  S_21
REMARK    7  A    between atoms: S_21  and  C_24
REMARK    8  A    between atoms: C_27  and  O_33
REMARK    9  A    between atoms: C_28  and  N_30
REMARK   10  A    between atoms: O_33  and  C_34
REMARK                            x       y       z     vdW  Elec       q    Type
REMARK                         _______ _______ _______ _____ _____    ______ ____
ROOT
ATOM      1  N   UNL     1      -3.535   1.877  -0.011  0.00  0.00    +0.389 N 
ATOM      2  C   UNL     1      -3.345   2.858   1.066  0.00  0.00    -0.060 C 
ATOM      3  C   UNL     1      -4.349   4.002   0.893  0.00  0.00    +0.091 C 
ATOM      4  N   UNL     1      -5.701   3.429   0.805  0.00  0.00    -0.180 NA
ATOM      5  C   UNL     1      -5.935   2.342  -0.158  0.00  0.00    +0.091 C 
ATOM      6  C   UNL     1      -4.868   1.263   0.056  0.00  0.00    -0.060 C 
ATOM      7  H   UNL     1      -3.461   2.413  -0.968  0.00  0.00    -0.081 HD
ENDROOT
BRANCH   4   8
ATOM      8  S   UNL     1      -6.927   3.991   1.766  0.00  0.00    +0.061 S 
ATOM      9  O   UNL     1      -6.577   5.318   2.135  0.00  0.00    -0.153 OA
ATOM     10  O   UNL     1      -8.142   3.681   1.097  0.00  0.00    -0.153 OA
BRANCH   8  11
ATOM     11  C   UNL     1      -6.909   3.036   3.247  0.00  0.00    +0.108 A 
ATOM     12  C   UNL     1      -7.659   1.877   3.329  0.00  0.00    +0.032 A 
ATOM     13  C   UNL     1      -7.642   1.124   4.487  0.00  0.00    +0.050 A 
ATOM     14  C   UNL     1      -6.881   1.536   5.571  0.00  0.00    +0.150 A 
ATOM     15  C   UNL     1      -6.134   2.702   5.487  0.00  0.00    +0.169 A 
ATOM     16  C   UNL     1      -6.149   3.450   4.325  0.00  0.00    +0.065 A 
BRANCH  15  17
ATOM     17  N   UNL     1      -5.320   3.145   6.642  0.00  0.00    +0.060 N 
ATOM     18  O   UNL     1      -4.664   4.169   6.567  0.00  0.00    -0.126 OA
ATOM     19  O   UNL     1      -5.307   2.486   7.666  0.00  0.00    -0.126 OA
ENDBRANCH  15  17
BRANCH  14  20
ATOM     20  O   UNL     1      -6.867   0.799   6.713  0.00  0.00    -0.493 OA
ATOM     21  C   UNL     1      -7.660  -0.389   6.728  0.00  0.00    +0.277 C 
ENDBRANCH  14  20
ENDBRANCH   8  11
ENDBRANCH   4   8
BRANCH   1  23
ATOM     22  C   UNL     1      -2.765  -0.138   1.149  0.00  0.00    -0.004 C 
ATOM     23  C   UNL     1      -2.482   0.853   0.018  0.00  0.00    +0.017 C 
BRANCH  23  24
ATOM     24  C   UNL     1      -2.458   0.119  -1.298  0.00  0.00    +0.204 C 
ATOM     25  O   UNL     1      -3.390   0.223  -2.067  0.00  0.00    -0.277 OA
ATOM     26  N   UNL     1      -1.402  -0.653  -1.620  0.00  0.00    -0.281 N 
ATOM     27  H   UNL     1      -0.554  -0.744  -0.924  0.00  0.00    +0.155 HD
BRANCH  26  28
ATOM     28  C   UNL     1      -1.382  -1.332  -2.829  0.00  0.00    +0.084 A 
ATOM     29  C   UNL     1      -0.393  -2.167  -3.334  0.00  0.00    +0.065 A 
ATOM     30  C   UNL     1      -0.637  -2.753  -4.630  0.00  0.00    +0.022 A 
ATOM     31  C   UNL     1      -1.793  -2.434  -5.241  0.00  0.00    +0.048 A 
ATOM     32  S   UNL     1      -2.582  -1.341  -4.077  0.00  0.00    -0.081 S 
BRANCH  29  33
ATOM     33  C   UNL     1       0.838  -2.442  -2.585  0.00  0.00    +0.244 C 
ATOM     34  O   UNL     1       1.012  -1.935  -1.493  0.00  0.00    -0.270 OA
ATOM     35  N   UNL     1       1.776  -3.257  -3.107  0.00  0.00    -0.325 N 
ATOM     36  H   UNL     1       2.699  -3.464  -2.546  0.00  0.00    +0.145 HD
ATOM     37  H   UNL     1       1.619  -3.716  -4.095  0.00  0.00    +0.145 HD
ENDBRANCH  29  33
ENDBRANCH  26  28
ENDBRANCH  23  24
ENDBRANCH   1  23
TORSDOF 8
