REMARK  Name = ZINC55023140
REMARK  11 active torsions:
REMARK  status: ('A' for Active; 'I' for Inactive)
REMARK    1  A    between atoms: C_1  and  C_2
REMARK    2  A    between atoms: C_4  and  S_24
REMARK    3  A    between atoms: C_6  and  N_9
REMARK    4  A    between atoms: C_7  and  C_8
REMARK    5  A    between atoms: C_10  and  C_12
REMARK    6  A    between atoms: C_12  and  N_13
REMARK    7  A    between atoms: N_13  and  C_14
REMARK    8  A    between atoms: N_13  and  C_15
REMARK    9  A    between atoms: C_15  and  C_16
REMARK   10  A    between atoms: C_16  and  C_17
REMARK   11  A    between atoms: S_24  and  N_27
REMARK                            x       y       z     vdW  Elec       q    Type
REMARK                         _______ _______ _______ _____ _____    ______ ____
ROOT
ATOM      1  N   UNL     1       0.052  -2.797   2.393  0.00  0.00    -0.287 N 
ATOM      2  C   UNL     1      -0.031  -4.143   2.385  0.00  0.00    +0.201 C 
ATOM      3  O   UNL     1      -0.028  -4.745   1.333  0.00  0.00    -0.278 OA
ATOM      4  H   UNL     1       0.130  -2.321   3.234  0.00  0.00    +0.155 HD
ENDROOT
BRANCH   1  10
ATOM      5  C   UNL     1       1.206   1.236  -0.172  0.00  0.00    +0.044 C 
ATOM      6  C   UNL     1       0.577  -0.131  -0.084  0.00  0.00    -0.044 A 
ATOM      7  C   UNL     1      -0.027  -0.686  -1.198  0.00  0.00    +0.032 A 
ATOM      8  C   UNL     1      -0.605  -1.940  -1.122  0.00  0.00    +0.107 A 
ATOM      9  C   UNL     1      -0.580  -2.642   0.067  0.00  0.00    +0.052 A 
ATOM     10  C   UNL     1       0.026  -2.088   1.187  0.00  0.00    +0.038 A 
ATOM     11  C   UNL     1       0.610  -0.831   1.106  0.00  0.00    -0.026 A 
ATOM     12  C   UNL     1       1.274  -0.228   2.317  0.00  0.00    +0.046 C 
BRANCH   8  13
ATOM     13  S   UNL     1      -1.374  -2.642  -2.544  0.00  0.00    +0.056 S 
ATOM     14  O   UNL     1      -2.317  -3.591  -2.067  0.00  0.00    -0.153 OA
ATOM     15  O   UNL     1      -1.743  -1.556  -3.383  0.00  0.00    -0.153 OA
BRANCH  13  16
ATOM     16  N   UNL     1      -0.212  -3.496  -3.357  0.00  0.00    -0.204 NA
ATOM     17  H   UNL     1       0.695  -3.530  -3.014  0.00  0.00    +0.144 HD
ATOM     18  H   UNL     1      -0.438  -3.962  -4.177  0.00  0.00    +0.144 HD
ENDBRANCH  13  16
ENDBRANCH   8  13
ENDBRANCH   1  10
BRANCH   2  19
ATOM     19  C   UNL     1      -0.129  -4.898   3.686  0.00  0.00    +0.018 C 
BRANCH  19  20
ATOM     20  N   UNL     1      -0.208  -6.339   3.410  0.00  0.00    +0.384 N 
ATOM     21  C   UNL     1      -1.457  -6.633   2.695  0.00  0.00    -0.096 C 
ATOM     22  H   UNL     1       0.578  -6.616   2.841  0.00  0.00    -0.082 HD
BRANCH  20  23
ATOM     23  C   UNL     1      -0.182  -7.082   4.676  0.00  0.00    -0.074 C 
BRANCH  23  24
ATOM     24  C   UNL     1      -0.138  -8.584   4.386  0.00  0.00    +0.016 C 
BRANCH  24  25
ATOM     25  C   UNL     1      -0.112  -9.347   5.685  0.00  0.00    -0.049 A 
ATOM     26  C   UNL     1       1.097  -9.656   6.280  0.00  0.00    +0.006 A 
ATOM     27  C   UNL     1       1.123 -10.354   7.472  0.00  0.00    +0.038 A 
ATOM     28  C   UNL     1      -0.063 -10.745   8.071  0.00  0.00    +0.123 A 
ATOM     29  C   UNL     1      -1.273 -10.435   7.474  0.00  0.00    +0.038 A 
ATOM     30  C   UNL     1      -1.297  -9.731   6.285  0.00  0.00    +0.006 A 
ATOM     31  F   UNL     1      -0.039 -11.429   9.236  0.00  0.00    -0.205 F 
ENDBRANCH  24  25
ENDBRANCH  23  24
ENDBRANCH  20  23
ENDBRANCH  19  20
ENDBRANCH   2  19
TORSDOF 8
