REMARK  Name = ZINC04281258
REMARK  12 active torsions:
REMARK  status: ('A' for Active; 'I' for Inactive)
REMARK    1  A    between atoms: C_1  and  C_2
REMARK    2  A    between atoms: C_2  and  C_3
REMARK    3  A    between atoms: C_3  and  C_4
REMARK    4  A    between atoms: C_4  and  O_5
REMARK    5  A    between atoms: O_5  and  C_6
REMARK    6  A    between atoms: C_10  and  C_12
REMARK    7  A    between atoms: N_14  and  C_15
REMARK    8  A    between atoms: C_16  and  C_27
REMARK    9  A    between atoms: C_20  and  C_25
REMARK   10  A    between atoms: C_20  and  C_26
REMARK   11  A    between atoms: C_21  and  C_23
REMARK   12  A    between atoms: C_21  and  C_24
REMARK                            x       y       z     vdW  Elec       q    Type
REMARK                         _______ _______ _______ _____ _____    ______ ____
ROOT
ATOM      1  C   UNL     1       1.081   7.399   0.030  0.00  0.00    +0.090 A 
ATOM      2  C   UNL     1       2.164   8.273   0.024  0.00  0.00    +0.084 A 
ATOM      3  C   UNL     1       1.876   9.692   0.049  0.00  0.00    -0.021 A 
ATOM      4  C   UNL     1       0.564  10.020   0.067  0.00  0.00    -0.015 A 
ATOM      5  S   UNL     1      -0.284   8.467   0.054  0.00  0.00    -0.078 S 
ATOM      6  C   UNL     1      -0.014  11.396   0.104  0.00  0.00    -0.041 C 
ATOM      7  C   UNL     1       2.290  12.039  -0.602  0.00  0.00    -0.069 C 
ATOM      8  C   UNL     1       2.913  10.806   0.054  0.00  0.00    +0.024 C 
ATOM      9  C   UNL     1       2.127  11.790  -2.104  0.00  0.00    -0.010 C 
ATOM     10  C   UNL     1       3.279  13.209  -0.427  0.00  0.00    -0.010 C 
ATOM     11  C   UNL     1      -1.029  11.557  -1.035  0.00  0.00    -0.005 C 
ATOM     12  C   UNL     1      -0.765  11.567   1.438  0.00  0.00    -0.005 C 
ATOM     13  N   UNL     1       1.019  12.467   0.035  0.00  0.00    +0.389 N 
ATOM     14  H   UNL     1       1.226  12.778   0.992  0.00  0.00    -0.084 HD
ATOM     15  H   UNL     1       0.635  13.252  -0.504  0.00  0.00    -0.084 HD
ENDROOT
BRANCH   1  18
ATOM     16  C   UNL     1      -0.064   5.326   0.031  0.00  0.00    +0.249 C 
ATOM     17  O   UNL     1      -1.123   5.923   0.044  0.00  0.00    -0.270 OA
ATOM     18  N   UNL     1       1.096   6.013   0.023  0.00  0.00    -0.275 N 
ATOM     19  H   UNL     1       1.941   5.536   0.012  0.00  0.00    +0.156 HD
BRANCH  16  24
ATOM     20  C   UNL     1      -1.226   1.751   0.017  0.00  0.00    +0.121 A 
ATOM     21  C   UNL     1      -0.013   1.076   0.008  0.00  0.00    +0.046 A 
ATOM     22  C   UNL     1       1.177   1.781   0.000  0.00  0.00    +0.004 A 
ATOM     23  C   UNL     1       1.166   3.161   0.008  0.00  0.00    +0.013 A 
ATOM     24  C   UNL     1      -0.049   3.848   0.023  0.00  0.00    +0.040 A 
ATOM     25  C   UNL     1      -1.248   3.135   0.031  0.00  0.00    +0.058 A 
BRANCH  20  26
ATOM     26  O   UNL     1      -2.392   1.053   0.019  0.00  0.00    -0.492 OA
BRANCH  26  27
ATOM     27  C   UNL     1      -2.294  -0.373   0.010  0.00  0.00    +0.229 C 
BRANCH  27  28
ATOM     28  C   UNL     1      -3.699  -0.980   0.013  0.00  0.00    +0.041 C 
BRANCH  28  30
ATOM     29  C   UNL     1      -4.998  -3.114   0.007  0.00  0.00    +0.004 C 
ATOM     30  C   UNL     1      -3.594  -2.507   0.004  0.00  0.00    -0.000 C 
ENDBRANCH  28  30
ENDBRANCH  27  28
ENDBRANCH  26  27
ENDBRANCH  20  26
ENDBRANCH  16  24
ENDBRANCH   1  18
BRANCH   2  31
ATOM     31  C   UNL     1       3.507   7.774  -0.006  0.00  0.00    +0.102 C 
ATOM     32  N   UNL     1       4.572   7.379  -0.030  0.00  0.00    -0.191 NA
ENDBRANCH   2  31
TORSDOF 7
