REMARK  Name = ZINC66925163
REMARK  7 active torsions:
REMARK  status: ('A' for Active; 'I' for Inactive)
REMARK    1  A    between atoms: C_1  and  C_2
REMARK    2  A    between atoms: C_2  and  C_4
REMARK    3  A    between atoms: C_2  and  N_10
REMARK    4  A    between atoms: C_4  and  N_5
REMARK    5  A    between atoms: N_13  and  C_14
REMARK    6  A    between atoms: C_14  and  C_15
REMARK    7  A    between atoms: C_15  and  O_25
REMARK                            x       y       z     vdW  Elec       q    Type
REMARK                         _______ _______ _______ _____ _____    ______ ____
ROOT
ATOM      1  N   UNL     1       0.617  -0.863  -1.132  0.00  0.00    -0.295 N 
ATOM      2  C   UNL     1      -0.028  -0.823  -2.315  0.00  0.00    +0.300 C 
ATOM      3  O   UNL     1      -1.174  -0.421  -2.369  0.00  0.00    -0.253 OA
ATOM      4  N   UNL     1       0.597  -1.229  -3.438  0.00  0.00    -0.296 N 
ATOM      5  H   UNL     1       1.532  -1.183  -1.089  0.00  0.00    +0.151 HD
ATOM      6  H   UNL     1       1.512  -1.550  -3.394  0.00  0.00    +0.150 HD
ENDROOT
BRANCH   1   8
ATOM      7  C   UNL     1       0.077   1.096   0.229  0.00  0.00    +0.029 C 
ATOM      8  C   UNL     1      -0.063  -0.421   0.088  0.00  0.00    +0.091 C 
BRANCH   8   9
ATOM      9  C   UNL     1       0.570  -1.107   1.301  0.00  0.00    +0.144 C 
BRANCH   9  10
ATOM     10  N   UNL     1       0.332  -2.550   1.225  0.00  0.00    -0.337 N 
ATOM     11  C   UNL     1      -0.742  -3.224   1.739  0.00  0.00    +0.104 A 
ATOM     12  C   UNL     1      -0.563  -4.526   1.445  0.00  0.00    +0.101 A 
ATOM     13  N   UNL     1       0.590  -4.644   0.770  0.00  0.00    -0.352 N 
ATOM     14  C   UNL     1       1.129  -3.464   0.630  0.00  0.00    +0.173 A 
ATOM     15  H   UNL     1       0.963  -5.475   0.435  0.00  0.00    +0.166 HD
ENDBRANCH   9  10
ENDBRANCH   8   9
ENDBRANCH   1   8
BRANCH   4  16
ATOM     16  C   UNL     1      -0.104  -1.186  -4.723  0.00  0.00    +0.145 C 
BRANCH  16  17
ATOM     17  C   UNL     1       0.863  -1.571  -5.845  0.00  0.00    +0.107 C 
ATOM     18  C   UNL     1       2.068  -0.633  -5.816  0.00  0.00    +0.041 C 
ATOM     19  C   UNL     1       2.912  -0.891  -7.069  0.00  0.00    +0.008 C 
ATOM     20  C   UNL     1       2.139  -0.381  -8.284  0.00  0.00    +0.035 C 
ATOM     21  C   UNL     1       0.738  -0.935  -8.290  0.00  0.00    -0.041 A 
ATOM     22  C   UNL     1       0.150  -1.478  -7.168  0.00  0.00    -0.011 A 
ATOM     23  C   UNL     1      -1.148  -1.965  -7.240  0.00  0.00    +0.007 A 
ATOM     24  C   UNL     1      -1.852  -1.913  -8.425  0.00  0.00    +0.000 A 
ATOM     25  C   UNL     1      -1.262  -1.371  -9.551  0.00  0.00    +0.000 A 
ATOM     26  C   UNL     1       0.028  -0.885  -9.482  0.00  0.00    +0.004 A 
BRANCH  17  27
ATOM     27  O   UNL     1       1.308  -2.914  -5.643  0.00  0.00    -0.382 OA
ATOM     28  H   UNL     1       0.595  -3.568  -5.640  0.00  0.00    +0.211 HD
ENDBRANCH  17  27
ENDBRANCH  16  17
ENDBRANCH   4  16
TORSDOF 6
