REMARK  Name = ZINC41038119
REMARK  7 active torsions:
REMARK  status: ('A' for Active; 'I' for Inactive)
REMARK    1  A    between atoms: C_1  and  C_2
REMARK    2  A    between atoms: C_8  and  C_9
REMARK    3  A    between atoms: C_8  and  N_12
REMARK    4  A    between atoms: N_15  and  C_16
REMARK    5  A    between atoms: C_16  and  C_17
REMARK    6  A    between atoms: C_16  and  C_18
REMARK    7  A    between atoms: C_16  and  C_19
REMARK                            x       y       z     vdW  Elec       q    Type
REMARK                         _______ _______ _______ _____ _____    ______ ____
ROOT
ATOM      1  C   UNL     1      -0.019   1.526   0.010  0.00  0.00    +0.010 C 
ATOM      2  C   UNL     1       0.002  -0.004   0.002  0.00  0.00    +0.020 C 
ATOM      3  C   UNL     1       0.718  -0.497  -1.257  0.00  0.00    +0.006 C 
ATOM      4  C   UNL     1       2.154   0.032  -1.268  0.00  0.00    +0.000 C 
ATOM      5  C   UNL     1       2.894  -0.475  -0.028  0.00  0.00    +0.003 C 
ATOM      6  C   UNL     1       2.178   0.019   1.231  0.00  0.00    +0.038 C 
ATOM      7  C   UNL     1       0.742  -0.511   1.242  0.00  0.00    +0.140 C 
ENDROOT
BRANCH   7   8
ATOM      8  N   UNL     1       0.762  -1.976   1.234  0.00  0.00    -0.283 N 
ATOM      9  C   UNL     1       1.364  -2.647   2.235  0.00  0.00    +0.301 C 
ATOM     10  O   UNL     1       1.891  -2.037   3.145  0.00  0.00    -0.253 OA
ATOM     11  N   UNL     1       1.383  -3.995   2.228  0.00  0.00    -0.295 N 
ATOM     12  H   UNL     1       0.342  -2.462   0.507  0.00  0.00    +0.151 HD
ATOM     13  H   UNL     1       0.962  -4.481   1.502  0.00  0.00    +0.151 HD
BRANCH  11  14
ATOM     14  C   UNL     1       2.037  -4.724   3.316  0.00  0.00    +0.028 C 
ATOM     15  C   UNL     1       1.364  -4.371   4.644  0.00  0.00    +0.031 C 
ATOM     16  C   UNL     1       1.915  -6.229   3.067  0.00  0.00    +0.031 C 
ATOM     17  C   UNL     1       3.516  -4.335   3.374  0.00  0.00    +0.031 C 
ENDBRANCH  11  14
ENDBRANCH   7   8
BRANCH   7  18
ATOM     18  C   UNL     1       0.037  -0.025   2.481  0.00  0.00    +0.379 C 
ATOM     19  O   UNL     1      -0.408  -0.828   3.284  0.00  0.00    -0.244 OA
ATOM     20  O   UNL     1      -0.089   1.171   2.682  0.00  0.00    -0.244 OA
ENDBRANCH   7  18
TORSDOF 3
