REMARK  Name = ZINC13632770
REMARK  10 active torsions:
REMARK  status: ('A' for Active; 'I' for Inactive)
REMARK    1  A    between atoms: C_1  and  C_2
REMARK    2  A    between atoms: C_2  and  C_3
REMARK    3  A    between atoms: C_2  and  C_4
REMARK    4  A    between atoms: C_2  and  C_5
REMARK    5  A    between atoms: C_8  and  C_11
REMARK    6  A    between atoms: N_13  and  C_14
REMARK    7  A    between atoms: C_17  and  N_20
REMARK    8  A    between atoms: N_20  and  C_21
REMARK    9  A    between atoms: C_21  and  N_23
REMARK   10  A    between atoms: C_24  and  C_26
REMARK                            x       y       z     vdW  Elec       q    Type
REMARK                         _______ _______ _______ _____ _____    ______ ____
ROOT
ATOM      1  C   UNL     1       1.204   1.977   0.026  0.00  0.00    +0.034 A 
ATOM      2  C   UNL     1       1.457   2.956   0.979  0.00  0.00    +0.025 A 
ATOM      3  C   UNL     1       2.621   3.696   0.914  0.00  0.00    +0.025 A 
ATOM      4  C   UNL     1       3.532   3.471  -0.110  0.00  0.00    +0.033 A 
ATOM      5  C   UNL     1       3.275   2.497  -1.065  0.00  0.00    +0.025 A 
ATOM      6  C   UNL     1       2.115   1.752  -0.998  0.00  0.00    +0.025 A 
ENDROOT
BRANCH   1   9
ATOM      7  C   UNL     1       0.039  -0.079  -0.258  0.00  0.00    +0.248 C 
ATOM      8  O   UNL     1       1.059  -0.582  -0.689  0.00  0.00    -0.270 OA
ATOM      9  N   UNL     1       0.027   1.222   0.095  0.00  0.00    -0.282 N 
ATOM     10  H   UNL     1      -0.798   1.636   0.393  0.00  0.00    +0.155 HD
BRANCH   7  14
ATOM     11  C   UNL     1      -3.483  -2.420   0.134  0.00  0.00    -0.042 A 
ATOM     12  C   UNL     1      -2.325  -2.995  -0.357  0.00  0.00    +0.005 A 
ATOM     13  C   UNL     1      -1.177  -2.240  -0.487  0.00  0.00    +0.013 A 
ATOM     14  C   UNL     1      -1.187  -0.893  -0.122  0.00  0.00    +0.037 A 
ATOM     15  C   UNL     1      -2.357  -0.320   0.378  0.00  0.00    +0.013 A 
ATOM     16  C   UNL     1      -3.499  -1.085   0.498  0.00  0.00    +0.005 A 
BRANCH  11  18
ATOM     17  C   UNL     1      -4.466  -4.418   1.225  0.00  0.00    +0.015 C 
ATOM     18  C   UNL     1      -4.733  -3.250   0.273  0.00  0.00    -0.013 C 
ATOM     19  C   UNL     1      -5.862  -2.383   0.834  0.00  0.00    +0.015 C 
ATOM     20  C   UNL     1      -5.140  -3.792  -1.099  0.00  0.00    +0.015 C 
ENDBRANCH  11  18
ENDBRANCH   7  14
ENDBRANCH   1   9
BRANCH   4  21
ATOM     21  N   UNL     1       4.709   4.226  -0.178  0.00  0.00    -0.297 N 
ATOM     22  H   UNL     1       5.224   4.395   0.627  0.00  0.00    +0.154 HD
BRANCH  21  23
ATOM     23  C   UNL     1       5.127   4.717  -1.361  0.00  0.00    +0.141 C 
ATOM     24  S   UNL     1       4.272   4.338  -2.795  0.00  0.00    -0.018 S 
BRANCH  23  25
ATOM     25  N   UNL     1       6.218   5.506  -1.416  0.00  0.00    -0.261 N 
ATOM     26  C   UNL     1       6.636   5.997  -2.600  0.00  0.00    +0.285 C 
ATOM     27  O   UNL     1       6.029   5.728  -3.619  0.00  0.00    -0.266 OA
ATOM     28  H   UNL     1       6.703   5.721  -0.604  0.00  0.00    +0.157 HD
BRANCH  26  29
ATOM     29  C   UNL     1       7.822   6.854  -2.659  0.00  0.00    +0.191 A 
ATOM     30  C   UNL     1       8.354   7.412  -3.788  0.00  0.00    +0.056 A 
ATOM     31  C   UNL     1       9.474   8.152  -3.383  0.00  0.00    +0.058 A 
ATOM     32  C   UNL     1       9.581   8.011  -2.041  0.00  0.00    +0.171 A 
ATOM     33  O   UNL     1       8.584   7.228  -1.609  0.00  0.00    -0.444 OA
ATOM     34 BR   UNL     1      10.919   8.790  -0.955  0.00  0.00    -0.008 Br
ENDBRANCH  26  29
ENDBRANCH  23  25
ENDBRANCH  21  23
ENDBRANCH   4  21
TORSDOF 7
