REMARK  Name = ZINC28520383
REMARK  6 active torsions:
REMARK  status: ('A' for Active; 'I' for Inactive)
REMARK    1  A    between atoms: C_6  and  C_7
REMARK    2  A    between atoms: C_7  and  C_8
REMARK    3  A    between atoms: N_13  and  C_15
REMARK    4  A    between atoms: C_15  and  C_16
REMARK    5  A    between atoms: C_22  and  N_24
REMARK    6  A    between atoms: N_27  and  C_28
REMARK                            x       y       z     vdW  Elec       q    Type
REMARK                         _______ _______ _______ _____ _____    ______ ____
ROOT
ATOM      1  C   UNL     1      -0.351   1.730  -0.272  0.00  0.00    -0.007 C 
ATOM      2  C   UNL     1      -1.068   2.067   1.037  0.00  0.00    +0.003 C 
ATOM      3  C   UNL     1      -0.652   1.068   2.119  0.00  0.00    +0.000 C 
ATOM      4  C   UNL     1       0.861   1.148   2.331  0.00  0.00    +0.002 C 
ATOM      5  C   UNL     1       1.578   0.811   1.022  0.00  0.00    +0.022 C 
ATOM      6  C   UNL     1       1.162   1.810  -0.060  0.00  0.00    +0.076 C 
ENDROOT
BRANCH   6   7
ATOM      7  N   UNL     1       1.848   1.487  -1.313  0.00  0.00    -0.296 N 
ATOM      8  C   UNL     1       2.854   2.270  -1.752  0.00  0.00    +0.301 C 
ATOM      9  O   UNL     1       3.191   3.244  -1.107  0.00  0.00    -0.253 OA
ATOM     10  N   UNL     1       3.485   1.973  -2.905  0.00  0.00    -0.278 N 
ATOM     11  H   UNL     1       1.543   0.605  -1.896  0.00  0.00    +0.151 HD
ATOM     12  H   UNL     1       3.180   1.091  -3.488  0.00  0.00    +0.152 HD
BRANCH  10  13
ATOM     13  C   UNL     1       4.578   2.824  -3.381  0.00  0.00    +0.183 C 
ATOM     14  C   UNL     1       4.406   3.088  -4.856  0.00  0.00    +0.015 C 
ATOM     15  C   UNL     1       4.986   2.284  -5.746  0.00  0.00    +0.000 C 
ATOM     16  C   UNL     1       5.797   1.148  -5.291  0.00  0.00    +0.015 C 
ATOM     17  C   UNL     1       6.216   1.107  -4.014  0.00  0.00    +0.069 C 
ATOM     18  N   UNL     1       5.861   2.143  -3.165  0.00  0.00    -0.329 N 
ATOM     19  H   UNL     1       6.519   2.459  -2.342  0.00  0.00    +0.148 HD
ENDBRANCH  10  13
ENDBRANCH   6   7
BRANCH   1  20
ATOM     20  C   UNL     1      -0.768   2.729  -1.354  0.00  0.00    -0.074 C 
BRANCH  20  25
ATOM     21  C   UNL     1       0.100   2.856  -5.015  0.00  0.00    -0.023 C 
ATOM     22  C   UNL     1      -0.224   1.405  -5.383  0.00  0.00    +0.000 C 
ATOM     23  C   UNL     1       0.188   0.490  -4.226  0.00  0.00    -0.018 C 
ATOM     24  C   UNL     1      -0.540   0.926  -2.953  0.00  0.00    -0.079 C 
ATOM     25  N   UNL     1      -0.197   2.320  -2.644  0.00  0.00    +0.380 N 
ATOM     26  C   UNL     1      -0.626   3.223  -3.719  0.00  0.00    -0.075 C 
ATOM     27  H   UNL     1       0.898   2.386  -2.567  0.00  0.00    -0.082 HD
BRANCH  21  28
ATOM     28  C   UNL     1      -0.363   3.783  -6.141  0.00  0.00    +0.037 C 
BRANCH  28  34
ATOM     29  C   UNL     1       1.613   4.194  -7.620  0.00  0.00    +0.006 A 
ATOM     30  C   UNL     1       2.353   3.935  -8.758  0.00  0.00    +0.038 A 
ATOM     31  C   UNL     1       1.911   2.990  -9.669  0.00  0.00    +0.123 A 
ATOM     32  C   UNL     1       0.732   2.303  -9.436  0.00  0.00    +0.038 A 
ATOM     33  C   UNL     1      -0.002   2.560  -8.294  0.00  0.00    +0.006 A 
ATOM     34  C   UNL     1       0.439   3.503  -7.385  0.00  0.00    -0.047 A 
ATOM     35  F   UNL     1       2.631   2.739 -10.785  0.00  0.00    -0.205 F 
ENDBRANCH  28  34
ENDBRANCH  21  28
ENDBRANCH  20  25
ENDBRANCH   1  20
TORSDOF 6
