REMARK  Name = ZINC28390151
REMARK  6 active torsions:
REMARK  status: ('A' for Active; 'I' for Inactive)
REMARK    1  A    between atoms: C_3  and  C_6
REMARK    2  A    between atoms: C_10  and  N_16
REMARK    3  A    between atoms: N_16  and  C_17
REMARK    4  A    between atoms: C_17  and  C_18
REMARK    5  A    between atoms: N_23  and  C_24
REMARK    6  A    between atoms: C_24  and  C_25
REMARK                            x       y       z     vdW  Elec       q    Type
REMARK                         _______ _______ _______ _____ _____    ______ ____
ROOT
ATOM      1  N   UNL     1      -1.504   2.213  -0.758  0.00  0.00    -0.330 N 
ATOM      2  H   UNL     1      -1.588   3.309  -0.809  0.00  0.00    +0.147 HD
ENDROOT
BRANCH   1   7
ATOM      3  C   UNL     1       2.720  -1.660  -1.813  0.00  0.00    +0.218 A 
ATOM      4  N   UNL     1       1.444  -1.635  -1.411  0.00  0.00    -0.204 NA
ATOM      5  C   UNL     1       1.019  -0.381  -1.365  0.00  0.00    +0.163 A 
ATOM      6  C   UNL     1      -0.205   0.216  -1.020  0.00  0.00    +0.091 A 
ATOM      7  C   UNL     1      -0.308   1.593  -1.086  0.00  0.00    +0.126 A 
ATOM      8  N   UNL     1       0.742   2.328  -1.470  0.00  0.00    -0.200 NA
ATOM      9  C   UNL     1       1.891   1.776  -1.794  0.00  0.00    +0.217 A 
ATOM     10  N   UNL     1       2.059   0.426  -1.751  0.00  0.00    -0.181 N 
ATOM     11  N   UNL     1       3.135  -0.426  -2.031  0.00  0.00    -0.139 NA
ATOM     12  N   UNL     1       2.939   2.576  -2.183  0.00  0.00    -0.327 N 
ATOM     13  H   UNL     1       3.904   2.123  -2.455  0.00  0.00    +0.145 HD
ATOM     14  H   UNL     1       2.813   3.668  -2.220  0.00  0.00    +0.145 HD
BRANCH   3  17
ATOM     15  C   UNL     1       4.220  -4.993  -2.051  0.00  0.00    +0.042 A 
ATOM     16  C   UNL     1       3.124  -4.155  -1.764  0.00  0.00    +0.053 A 
ATOM     17  C   UNL     1       3.538  -2.879  -1.985  0.00  0.00    +0.173 A 
ATOM     18  O   UNL     1       4.820  -2.920  -2.394  0.00  0.00    -0.460 OA
ATOM     19  C   UNL     1       5.238  -4.195  -2.430  0.00  0.00    +0.196 A 
ENDBRANCH   3  17
ENDBRANCH   1   7
BRANCH   1  20
ATOM     20  C   UNL     1      -2.657   1.410  -0.342  0.00  0.00    +0.088 C 
BRANCH  20  21
ATOM     21  C   UNL     1      -3.783   2.336   0.123  0.00  0.00    -0.051 C 
ATOM     22  C   UNL     1      -4.990   1.505   0.626  0.00  0.00    -0.016 C 
ATOM     23  C   UNL     1      -5.682   2.511   1.585  0.00  0.00    -0.020 C 
ATOM     24  C   UNL     1      -4.494   3.269   2.213  0.00  0.00    -0.078 C 
ATOM     25  N   UNL     1      -3.349   3.125   1.295  0.00  0.00    +0.385 N 
ATOM     26  H   UNL     1      -2.526   2.608   1.810  0.00  0.00    -0.081 HD
BRANCH  25  27
ATOM     27  C   UNL     1      -2.835   4.438   0.884  0.00  0.00    -0.040 C 
BRANCH  27  28
ATOM     28  C   UNL     1      -2.303   5.169   2.091  0.00  0.00    -0.024 A 
ATOM     29  C   UNL     1      -3.061   6.146   2.720  0.00  0.00    +0.062 A 
ATOM     30  C   UNL     1      -2.541   6.792   3.828  0.00  0.00    +0.131 A 
ATOM     31  N   UNL     1      -1.338   6.496   4.279  0.00  0.00    -0.260 NA
ATOM     32  C   UNL     1      -0.588   5.577   3.703  0.00  0.00    +0.131 A 
ATOM     33  C   UNL     1      -1.042   4.885   2.594  0.00  0.00    +0.062 A 
ATOM     34 CL   UNL     1      -0.047   3.677   1.843  0.00  0.00    -0.082 Cl
ATOM     35 CL   UNL     1      -4.643   6.548   2.129  0.00  0.00    -0.082 Cl
ENDBRANCH  27  28
ENDBRANCH  25  27
ENDBRANCH  20  21
ENDBRANCH   1  20
TORSDOF 6
