REMARK  Name = ZINC19691359
REMARK  4 active torsions:
REMARK  status: ('A' for Active; 'I' for Inactive)
REMARK    1  A    between atoms: C_3  and  N_20
REMARK    2  A    between atoms: C_6  and  C_7
REMARK    3  A    between atoms: C_11  and  O_19
REMARK    4  A    between atoms: C_12  and  O_18
REMARK                            x       y       z     vdW  Elec       q    Type
REMARK                         _______ _______ _______ _____ _____    ______ ____
ROOT
ATOM      1  C   UNL     1      -2.586   4.112   0.042  0.00  0.00    +0.115 C 
ATOM      2  C   UNL     1      -1.247   3.421   0.032  0.00  0.00    -0.019 A 
ATOM      3  C   UNL     1      -1.222   2.034   0.019  0.00  0.00    +0.055 A 
ATOM      4  C   UNL     1      -0.016   1.356   0.009  0.00  0.00    +0.159 A 
ATOM      5  C   UNL     1       1.178   2.071   0.002  0.00  0.00    +0.158 A 
ATOM      6  C   UNL     1       1.148   3.454   0.011  0.00  0.00    +0.053 A 
ATOM      7  C   UNL     1      -0.064   4.129   0.028  0.00  0.00    -0.038 A 
ATOM      8  C   UNL     1      -0.044   5.637   0.048  0.00  0.00    +0.050 C 
ATOM      9  C   UNL     1      -1.416   6.182  -0.350  0.00  0.00    +0.086 C 
ATOM     10  N   UNL     1      -2.440   5.508   0.464  0.00  0.00    -0.305 NA
ATOM     11  H   UNL     1      -3.400   6.031   0.340  0.00  0.00    +0.123 HD
ENDROOT
BRANCH   1  17
ATOM     12  C   UNL     1      -3.407   3.627   2.356  0.00  0.00    +0.008 A 
ATOM     13  C   UNL     1      -4.256   2.975   3.232  0.00  0.00    +0.033 A 
ATOM     14  C   UNL     1      -5.196   2.084   2.749  0.00  0.00    +0.126 A 
ATOM     15  C   UNL     1      -5.292   1.850   1.390  0.00  0.00    +0.033 A 
ATOM     16  C   UNL     1      -4.447   2.506   0.514  0.00  0.00    +0.008 A 
ATOM     17  C   UNL     1      -3.507   3.397   0.997  0.00  0.00    -0.026 A 
BRANCH  14  18
ATOM     18  N   UNL     1      -6.100   1.382   3.687  0.00  0.00    +0.056 N 
ATOM     19  O   UNL     1      -6.928   0.597   3.261  0.00  0.00    -0.126 OA
ATOM     20  O   UNL     1      -6.015   1.589   4.884  0.00  0.00    -0.126 OA
ENDBRANCH  14  18
ENDBRANCH   1  17
BRANCH   5  21
ATOM     21  O   UNL     1       2.368   1.414  -0.015  0.00  0.00    -0.503 OA
ATOM     22  H   UNL     1       3.310   1.982  -0.021  0.00  0.00    +0.292 HD
ENDBRANCH   5  21
BRANCH   4  23
ATOM     23  O   UNL     1       0.002  -0.004   0.002  0.00  0.00    -0.503 OA
ATOM     24  H   UNL     1       0.962  -0.541  -0.005  0.00  0.00    +0.292 HD
ENDBRANCH   4  23
TORSDOF 4
