REMARK  Name = ZINC37034365
REMARK  3 active torsions:
REMARK  status: ('A' for Active; 'I' for Inactive)
REMARK    1  A    between atoms: C_6  and  C_7
REMARK    2  A    between atoms: C_7  and  C_9
REMARK    3  A    between atoms: C_7  and  N_17
REMARK                            x       y       z     vdW  Elec       q    Type
REMARK                         _______ _______ _______ _____ _____    ______ ____
ROOT
ATOM      1  C   UNL     1      -1.294  -0.773   0.011  0.00  0.00    -0.013 C 
ENDROOT
BRANCH   1   7
ATOM      2  C   UNL     1      -0.017   1.378   0.010  0.00  0.00    +0.006 A 
ATOM      3  C   UNL     1       1.169   2.091   0.002  0.00  0.00    +0.048 A 
ATOM      4  C   UNL     1       2.378   1.419  -0.013  0.00  0.00    +0.142 A 
ATOM      5  C   UNL     1       2.397   0.025  -0.021  0.00  0.00    +0.076 A 
ATOM      6  C   UNL     1       1.207  -0.684  -0.013  0.00  0.00    +0.029 A 
ATOM      7  C   UNL     1       0.002  -0.004   0.002  0.00  0.00    -0.056 A 
ATOM      8  N   UNL     1       3.629  -0.644  -0.038  0.00  0.00    -0.280 N 
ATOM      9  C   UNL     1       4.751   0.043   0.269  0.00  0.00    +0.255 C 
ATOM     10  O   UNL     1       5.831  -0.507   0.231  0.00  0.00    -0.272 OA
ATOM     11  C   UNL     1       4.655   1.496   0.659  0.00  0.00    +0.325 C 
ATOM     12  O   UNL     1       3.552   2.104  -0.020  0.00  0.00    -0.481 OA
ATOM     13  H   UNL     1       3.675  -1.586  -0.267  0.00  0.00    +0.155 HD
ENDBRANCH   1   7
BRANCH   1  14
ATOM     14  C   UNL     1      -1.866  -0.810  -1.383  0.00  0.00    -0.054 A 
ATOM     15  C   UNL     1      -2.552   0.284  -1.877  0.00  0.00    +0.040 A 
ATOM     16  C   UNL     1      -3.078   0.251  -3.157  0.00  0.00    +0.125 A 
ATOM     17  C   UNL     1      -2.916  -0.879  -3.942  0.00  0.00    +0.053 A 
ATOM     18  C   UNL     1      -2.229  -1.972  -3.446  0.00  0.00    +0.021 A 
ATOM     19  C   UNL     1      -1.700  -1.935  -2.168  0.00  0.00    +0.017 A 
ATOM     20 BR   UNL     1      -2.008  -3.514  -4.517  0.00  0.00    -0.050 Br
ATOM     21  F   UNL     1      -3.748   1.319  -3.640  0.00  0.00    -0.205 F 
ENDBRANCH   1  14
BRANCH   1  22
ATOM     22  N   UNL     1      -2.247  -0.115   0.914  0.00  0.00    +0.385 N 
ATOM     23  H   UNL     1      -3.115  -0.630   0.920  0.00  0.00    -0.089 HD
ATOM     24  H   UNL     1      -1.864  -0.091   1.848  0.00  0.00    -0.089 HD
ATOM     25  H   UNL     1      -2.417   0.827   0.596  0.00  0.00    -0.089 HD
ENDBRANCH   1  22
TORSDOF 3
