REMARK  Name = ZINC58928962
REMARK  11 active torsions:
REMARK  status: ('A' for Active; 'I' for Inactive)
REMARK    1  A    between atoms: C_1  and  C_2
REMARK    2  A    between atoms: C_4  and  C_27
REMARK    3  A    between atoms: N_6  and  C_8
REMARK    4  A    between atoms: C_8  and  C_9
REMARK    5  A    between atoms: C_14  and  C_15
REMARK    6  A    between atoms: C_15  and  N_16
REMARK    7  A    between atoms: C_17  and  C_19
REMARK    8  A    between atoms: C_19  and  C_20
REMARK    9  A    between atoms: C_19  and  N_23
REMARK   10  A    between atoms: C_20  and  C_21
REMARK   11  A    between atoms: C_20  and  C_22
REMARK                            x       y       z     vdW  Elec       q    Type
REMARK                         _______ _______ _______ _____ _____    ______ ____
ROOT
ATOM      1  C   UNL     1       2.342  -0.122   5.632  0.00  0.00    -0.059 A 
ATOM      2  C   UNL     1       2.813   0.784   6.564  0.00  0.00    +0.002 A 
ATOM      3  C   UNL     1       2.037   1.115   7.659  0.00  0.00    +0.000 A 
ATOM      4  C   UNL     1       0.790   0.540   7.822  0.00  0.00    +0.000 A 
ATOM      5  C   UNL     1       0.320  -0.365   6.889  0.00  0.00    +0.005 A 
ATOM      6  C   UNL     1       1.094  -0.693   5.792  0.00  0.00    -0.029 A 
ENDROOT
BRANCH   1   7
ATOM      7  C   UNL     1       3.188  -0.483   4.438  0.00  0.00    -0.043 C 
BRANCH   7  13
ATOM      8  C   UNL     1       5.625   2.845   5.329  0.00  0.00    +0.005 C 
ATOM      9  C   UNL     1       4.939   2.802   3.962  0.00  0.00    -0.031 C 
ATOM     10  C   UNL     1       5.950   2.372   2.895  0.00  0.00    +0.003 C 
ATOM     11  C   UNL     1       6.430   0.951   3.204  0.00  0.00    -0.031 C 
ATOM     12  C   UNL     1       5.222   0.013   3.271  0.00  0.00    -0.075 C 
ATOM     13  N   UNL     1       4.306   0.463   4.326  0.00  0.00    +0.383 N 
ATOM     14  C   UNL     1       3.786   1.796   4.000  0.00  0.00    -0.075 C 
ATOM     15  C   UNL     1       7.381   0.481   2.102  0.00  0.00    +0.005 C 
ATOM     16  H   UNL     1       4.801   0.502   5.205  0.00  0.00    -0.081 HD
ENDBRANCH   7  13
ENDBRANCH   1   7
BRANCH   6  17
ATOM     17  C   UNL     1       0.578  -1.676   4.773  0.00  0.00    +0.139 C 
BRANCH  17  18
ATOM     18  N   UNL     1       1.214  -2.979   4.985  0.00  0.00    -0.310 N 
ATOM     19  C   UNL     1       0.904  -4.018   4.186  0.00  0.00    +0.234 C 
ATOM     20  O   UNL     1       0.030  -3.903   3.353  0.00  0.00    -0.274 OA
ATOM     21  H   UNL     1       1.859  -3.093   5.702  0.00  0.00    +0.149 HD
BRANCH  19  22
ATOM     22  C   UNL     1       1.643  -5.324   4.327  0.00  0.00    +0.163 C 
BRANCH  22  23
ATOM     23  N   UNL     1       0.757  -6.430   3.955  0.00  0.00    -0.288 N 
ATOM     24  C   UNL     1       0.973  -7.664   4.452  0.00  0.00    +0.298 C 
ATOM     25  O   UNL     1       1.904  -7.859   5.209  0.00  0.00    -0.253 OA
ATOM     26  N   UNL     1       0.158  -8.681   4.110  0.00  0.00    -0.313 N 
ATOM     27  H   UNL     1       0.014  -6.274   3.351  0.00  0.00    +0.151 HD
ATOM     28  H   UNL     1      -0.585  -8.525   3.506  0.00  0.00    +0.146 HD
ATOM     29  H   UNL     1       0.314  -9.569   4.467  0.00  0.00    +0.146 HD
ENDBRANCH  22  23
BRANCH  22  30
ATOM     30  C   UNL     1       2.867  -5.320   3.409  0.00  0.00    +0.012 C 
ATOM     31  C   UNL     1       2.418  -5.090   1.964  0.00  0.00    +0.009 C 
ATOM     32  C   UNL     1       3.818  -4.199   3.832  0.00  0.00    +0.009 C 
ENDBRANCH  22  30
ENDBRANCH  19  22
ENDBRANCH  17  18
ENDBRANCH   6  17
TORSDOF 7
