REMARK  Name = ZINC38650185
REMARK  12 active torsions:
REMARK  status: ('A' for Active; 'I' for Inactive)
REMARK    1  A    between atoms: C_1  and  C_2
REMARK    2  A    between atoms: C_6  and  C_35
REMARK    3  A    between atoms: C_7  and  O_8
REMARK    4  A    between atoms: O_8  and  C_9
REMARK    5  A    between atoms: C_9  and  C_10
REMARK    6  A    between atoms: C_10  and  O_12
REMARK    7  A    between atoms: O_12  and  C_13
REMARK    8  A    between atoms: C_20  and  N_34
REMARK    9  A    between atoms: C_21  and  C_32
REMARK   10  A    between atoms: C_22  and  C_24
REMARK   11  A    between atoms: C_28  and  O_30
REMARK   12  A    between atoms: O_30  and  C_31
REMARK                            x       y       z     vdW  Elec       q    Type
REMARK                         _______ _______ _______ _____ _____    ______ ____
ROOT
ATOM      1  C   UNL     1      -1.980   2.042   6.167  0.00  0.00    +0.135 A 
ATOM      2  C   UNL     1      -0.720   2.383   6.639  0.00  0.00    +0.047 A 
ATOM      3  C   UNL     1      -0.590   3.034   7.850  0.00  0.00    +0.012 A 
ATOM      4  C   UNL     1      -1.711   3.348   8.597  0.00  0.00    +0.008 A 
ATOM      5  C   UNL     1      -2.972   3.010   8.131  0.00  0.00    +0.138 A 
ATOM      6  C   UNL     1      -3.105   2.360   6.910  0.00  0.00    +0.093 A 
ATOM      7  O   UNL     1      -4.082   3.309   8.848  0.00  0.00    -0.441 OA
ATOM      8  C   UNL     1      -3.981   3.578  10.160  0.00  0.00    +0.199 C 
ATOM      9  C   UNL     1      -2.806   3.938  10.729  0.00  0.00    +0.098 C 
ATOM     10  C   UNL     1      -1.548   4.058   9.915  0.00  0.00    +0.098 C 
ENDROOT
BRANCH  10  11
ATOM     11  C   UNL     1      -1.252   5.514   9.664  0.00  0.00    -0.031 A 
ATOM     12  C   UNL     1      -2.163   6.296   8.977  0.00  0.00    +0.005 A 
ATOM     13  C   UNL     1      -1.894   7.632   8.745  0.00  0.00    +0.004 A 
ATOM     14  C   UNL     1      -0.715   8.190   9.200  0.00  0.00    +0.045 A 
ATOM     15  C   UNL     1       0.200   7.408   9.889  0.00  0.00    +0.120 A 
ATOM     16  C   UNL     1      -0.074   6.069  10.126  0.00  0.00    +0.050 A 
BRANCH  15  17
ATOM     17  O   UNL     1       1.361   7.954  10.337  0.00  0.00    -0.495 OA
ATOM     18  C   UNL     1       1.574   9.340  10.063  0.00  0.00    +0.277 C 
ENDBRANCH  15  17
ENDBRANCH  10  11
BRANCH   8  19
ATOM     19  N   UNL     1      -5.101   3.484  10.948  0.00  0.00    -0.328 N 
ATOM     20  H   UNL     1      -5.950   3.227  10.556  0.00  0.00    +0.145 HD
ATOM     21  H   UNL     1      -5.043   3.675  11.898  0.00  0.00    +0.145 HD
ENDBRANCH   8  19
BRANCH   9  22
ATOM     22  C   UNL     1      -2.761   4.212  12.134  0.00  0.00    +0.101 C 
ATOM     23  N   UNL     1      -2.725   4.429  13.248  0.00  0.00    -0.191 NA
ENDBRANCH   9  22
BRANCH   1  24
ATOM     24  O   UNL     1      -2.109   1.401   4.976  0.00  0.00    -0.423 OA
BRANCH  24  25
ATOM     25  C   UNL     1      -1.835   0.087   4.933  0.00  0.00    +0.350 C 
ATOM     26  O   UNL     1      -1.399  -0.471   5.912  0.00  0.00    -0.247 OA
BRANCH  25  27
ATOM     27  C   UNL     1      -2.070  -0.691   3.664  0.00  0.00    +0.349 C 
BRANCH  27  28
ATOM     28  O   UNL     1      -1.705  -2.057   3.869  0.00  0.00    -0.480 OA
BRANCH  28  35
ATOM     29  C   UNL     1       0.487  -2.352   2.111  0.00  0.00    +0.047 C 
ATOM     30  C   UNL     1      -0.815  -3.087   1.917  0.00  0.00    -0.009 A 
ATOM     31  C   UNL     1      -0.970  -3.950   0.850  0.00  0.00    +0.007 A 
ATOM     32  C   UNL     1      -2.164  -4.623   0.671  0.00  0.00    +0.001 A 
ATOM     33  C   UNL     1      -3.206  -4.436   1.561  0.00  0.00    +0.007 A 
ATOM     34  C   UNL     1      -3.056  -3.574   2.630  0.00  0.00    -0.009 A 
ATOM     35  C   UNL     1      -1.857  -2.901   2.814  0.00  0.00    +0.127 A 
ATOM     36  C   UNL     1      -4.192  -3.370   3.599  0.00  0.00    +0.047 C 
ENDBRANCH  28  35
ENDBRANCH  27  28
ENDBRANCH  25  27
ENDBRANCH  24  25
ENDBRANCH   1  24
TORSDOF 9
