REMARK  Name = ZINC20805201
REMARK  8 active torsions:
REMARK  status: ('A' for Active; 'I' for Inactive)
REMARK    1  A    between atoms: C_5  and  N_7
REMARK    2  A    between atoms: C_8  and  C_10
REMARK    3  A    between atoms: C_10  and  N_11
REMARK    4  A    between atoms: N_14  and  C_17
REMARK    5  A    between atoms: C_17  and  C_18
REMARK    6  A    between atoms: C_18  and  C_19
REMARK    7  A    between atoms: N_21  and  C_22
REMARK    8  A    between atoms: C_23  and  C_31
REMARK                            x       y       z     vdW  Elec       q    Type
REMARK                         _______ _______ _______ _____ _____    ______ ____
ROOT
ATOM      1  N   UNL     1      -4.855  12.050  -6.417  0.00  0.00    +0.387 N 
ATOM      2  C   UNL     1      -3.462  11.807  -6.815  0.00  0.00    -0.063 C 
ATOM      3  C   UNL     1      -3.079  10.366  -6.470  0.00  0.00    +0.066 C 
ATOM      4  N   UNL     1      -3.258  10.146  -5.028  0.00  0.00    -0.305 NA
ATOM      5  C   UNL     1      -4.652  10.389  -4.630  0.00  0.00    +0.066 C 
ATOM      6  C   UNL     1      -5.034  11.830  -4.974  0.00  0.00    -0.063 C 
ATOM      7  H   UNL     1      -5.492  11.330  -6.952  0.00  0.00    -0.081 HD
ENDROOT
BRANCH   1   8
ATOM      8  C   UNL     1      -5.284  13.402  -6.800  0.00  0.00    +0.019 C 
BRANCH   8  10
ATOM      9  N   UNL     1      -5.579  14.694  -8.889  0.00  0.00    -0.286 N 
ATOM     10  C   UNL     1      -5.334  13.505  -8.303  0.00  0.00    +0.201 C 
ATOM     11  O   UNL     1      -5.155  12.518  -8.985  0.00  0.00    -0.278 OA
ATOM     12  H   UNL     1      -5.671  15.601  -8.274  0.00  0.00    +0.155 HD
BRANCH   9  17
ATOM     13  C   UNL     1      -5.118  14.009 -12.472  0.00  0.00    +0.002 A 
ATOM     14  C   UNL     1      -5.984  14.932 -13.029  0.00  0.00    +0.002 A 
ATOM     15  C   UNL     1      -6.716  15.777 -12.216  0.00  0.00    +0.022 A 
ATOM     16  C   UNL     1      -6.584  15.701 -10.842  0.00  0.00    +0.062 A 
ATOM     17  C   UNL     1      -5.715  14.774 -10.280  0.00  0.00    +0.052 A 
ATOM     18  C   UNL     1      -4.977  13.932 -11.101  0.00  0.00    +0.025 A 
ATOM     19 CL   UNL     1      -7.503  16.762  -9.820  0.00  0.00    -0.082 Cl
ENDBRANCH   9  17
ENDBRANCH   8  10
ENDBRANCH   1   8
BRANCH   4  20
ATOM     20  C   UNL     1      -2.829   8.794  -4.644  0.00  0.00    +0.093 C 
BRANCH  20  21
ATOM     21  C   UNL     1      -2.792   8.685  -3.119  0.00  0.00    +0.111 C 
BRANCH  21  22
ATOM     22  C   UNL     1      -2.352   7.298  -2.725  0.00  0.00    +0.219 C 
ATOM     23  O   UNL     1      -2.093   6.479  -3.580  0.00  0.00    -0.275 OA
ATOM     24  N   UNL     1      -2.246   6.969  -1.422  0.00  0.00    -0.279 N 
ATOM     25  H   UNL     1      -2.481   7.713  -0.646  0.00  0.00    +0.155 HD
BRANCH  24  26
ATOM     26  C   UNL     1      -1.841   5.692  -1.060  0.00  0.00    +0.090 A 
ATOM     27  C   UNL     1      -1.674   5.170   0.214  0.00  0.00    +0.084 A 
ATOM     28  C   UNL     1      -1.236   3.790   0.323  0.00  0.00    -0.018 A 
ATOM     29  C   UNL     1      -1.036   3.156  -0.853  0.00  0.00    -0.004 A 
ATOM     30  S   UNL     1      -1.421   4.364  -2.089  0.00  0.00    -0.077 S 
ATOM     31  C   UNL     1      -0.587   1.741  -1.051  0.00  0.00    +0.043 C 
ATOM     32  C   UNL     1      -0.024   1.221   0.280  0.00  0.00    +0.005 C 
ATOM     33  C   UNL     1      -1.007   1.565   1.402  0.00  0.00    +0.005 C 
ATOM     34  C   UNL     1      -1.009   3.074   1.649  0.00  0.00    +0.037 C 
BRANCH  27  35
ATOM     35  C   UNL     1      -1.925   5.964   1.380  0.00  0.00    +0.102 C 
ATOM     36  N   UNL     1      -2.123   6.593   2.305  0.00  0.00    -0.191 NA
ENDBRANCH  27  35
ENDBRANCH  24  26
ENDBRANCH  21  22
ENDBRANCH  20  21
ENDBRANCH   4  20
TORSDOF 8
