REMARK  Name = ZINC39685803
REMARK  12 active torsions:
REMARK  status: ('A' for Active; 'I' for Inactive)
REMARK    1  A    between atoms: C_1  and  C_2
REMARK    2  A    between atoms: C_6  and  C_9
REMARK    3  A    between atoms: C_13  and  C_22
REMARK    4  A    between atoms: N_24  and  C_25
REMARK    5  A    between atoms: C_25  and  C_27
REMARK    6  A    between atoms: C_25  and  C_30
REMARK    7  A    between atoms: C_27  and  C_28
REMARK    8  A    between atoms: C_27  and  C_29
REMARK    9  A    between atoms: N_32  and  C_33
REMARK   10  A    between atoms: C_33  and  C_34
REMARK   11  A    between atoms: C_33  and  C_35
REMARK   12  A    between atoms: C_33  and  C_36
REMARK                            x       y       z     vdW  Elec       q    Type
REMARK                         _______ _______ _______ _____ _____    ______ ____
ROOT
ATOM      1  C   UNL     1       0.160  -2.517   1.283  0.00  0.00    +0.251 C 
ATOM      2  O   UNL     1       1.136  -2.617   2.001  0.00  0.00    -0.270 OA
ATOM      3  N   UNL     1      -1.077  -2.580   1.814  0.00  0.00    -0.296 N 
ATOM      4  C   UNL     1      -2.375  -2.486   1.106  0.00  0.00    +0.121 C 
ATOM      5  C   UNL     1      -3.278  -3.526   1.808  0.00  0.00    +0.100 C 
ATOM      6  C   UNL     1      -2.664  -3.698   3.208  0.00  0.00    -0.004 C 
ATOM      7  C   UNL     1      -1.445  -2.764   3.238  0.00  0.00    +0.115 C 
ATOM      8  C   UNL     1      -2.219  -5.142   3.415  0.00  0.00    -0.010 C 
ATOM      9  C   UNL     1      -1.664  -5.301   4.834  0.00  0.00    -0.082 C 
ATOM     10  N   UNL     1      -2.700  -4.942   5.809  0.00  0.00    +0.379 N 
ATOM     11  C   UNL     1      -3.056  -3.526   5.663  0.00  0.00    -0.082 C 
ATOM     12  C   UNL     1      -3.670  -3.291   4.280  0.00  0.00    -0.010 C 
ATOM     13  H   UNL     1      -3.519  -5.511   5.654  0.00  0.00    -0.086 HD
ATOM     14  H   UNL     1      -2.353  -5.106   6.743  0.00  0.00    -0.086 HD
ENDROOT
BRANCH   1  20
ATOM     15  C   UNL     1       0.669   0.516  -2.651  0.00  0.00    +0.047 C 
ATOM     16  C   UNL     1       0.575  -0.871  -2.071  0.00  0.00    -0.014 A 
ATOM     17  C   UNL     1       0.648  -1.974  -2.902  0.00  0.00    +0.007 A 
ATOM     18  C   UNL     1       0.562  -3.252  -2.379  0.00  0.00    +0.021 A 
ATOM     19  C   UNL     1       0.404  -3.436  -1.020  0.00  0.00    +0.056 A 
ATOM     20  C   UNL     1       0.330  -2.328  -0.172  0.00  0.00    +0.091 A 
ATOM     21  C   UNL     1       0.422  -1.039  -0.707  0.00  0.00    +0.140 A 
ATOM     22  F   UNL     1       0.357   0.038   0.105  0.00  0.00    -0.204 F 
ATOM     23 CL   UNL     1       0.296  -5.041  -0.367  0.00  0.00    -0.083 Cl
ENDBRANCH   1  20
BRANCH   5  24
ATOM     24  C   UNL     1      -3.254  -4.833   1.058  0.00  0.00    +0.219 C 
ATOM     25  O   UNL     1      -2.296  -5.121   0.373  0.00  0.00    -0.275 OA
ATOM     26  N   UNL     1      -4.298  -5.680   1.149  0.00  0.00    -0.303 N 
ATOM     27  H   UNL     1      -5.073  -5.441   1.680  0.00  0.00    +0.149 HD
BRANCH  26  28
ATOM     28  C   UNL     1      -4.262  -6.964   0.444  0.00  0.00    +0.161 C 
BRANCH  28  29
ATOM     29  C   UNL     1      -5.651  -7.322  -0.019  0.00  0.00    +0.234 C 
ATOM     30  O   UNL     1      -6.616  -6.795   0.494  0.00  0.00    -0.274 OA
ATOM     31  N   UNL     1      -5.821  -8.228  -1.002  0.00  0.00    -0.309 N 
ATOM     32  H   UNL     1      -5.056  -8.702  -1.363  0.00  0.00    +0.149 HD
BRANCH  31  33
ATOM     33  C   UNL     1      -7.162  -8.496  -1.528  0.00  0.00    +0.026 C 
ATOM     34  C   UNL     1      -7.751  -7.207  -2.106  0.00  0.00    +0.031 C 
ATOM     35  C   UNL     1      -7.077  -9.556  -2.627  0.00  0.00    +0.031 C 
ATOM     36  C   UNL     1      -8.060  -9.004  -0.398  0.00  0.00    +0.031 C 
ENDBRANCH  31  33
ENDBRANCH  28  29
BRANCH  28  37
ATOM     37  C   UNL     1      -3.744  -8.050   1.389  0.00  0.00    +0.012 C 
ATOM     38  C   UNL     1      -2.272  -7.785   1.712  0.00  0.00    +0.009 C 
ATOM     39  C   UNL     1      -4.561  -8.034   2.682  0.00  0.00    +0.009 C 
ENDBRANCH  28  37
ENDBRANCH  26  28
ENDBRANCH   5  24
TORSDOF 6
