REMARK  Name = ZINC05799429
REMARK  9 active torsions:
REMARK  status: ('A' for Active; 'I' for Inactive)
REMARK    1  A    between atoms: C_3  and  N_22
REMARK    2  A    between atoms: C_6  and  N_7
REMARK    3  A    between atoms: N_7  and  C_8
REMARK    4  A    between atoms: C_8  and  C_9
REMARK    5  A    between atoms: C_9  and  C_10
REMARK    6  A    between atoms: C_10  and  N_43
REMARK    7  A    between atoms: C_11  and  C_12
REMARK    8  A    between atoms: C_11  and  N_43
REMARK    9  A    between atoms: N_14  and  C_15
REMARK                            x       y       z     vdW  Elec       q    Type
REMARK                         _______ _______ _______ _____ _____    ______ ____
ROOT
ATOM      1  N   UNL     1       3.346  -6.494  -0.066  0.00  0.00    +0.385 N 
ATOM      2  H   UNL     1       2.795  -6.743  -0.896  0.00  0.00    -0.085 HD
ATOM      3  H   UNL     1       2.821  -6.744   0.780  0.00  0.00    -0.085 HD
ENDROOT
BRANCH   1   4
ATOM      4  C   UNL     1       3.600  -5.041  -0.069  0.00  0.00    -0.080 C 
BRANCH   4   5
ATOM      5  C   UNL     1       2.264  -4.297  -0.048  0.00  0.00    -0.000 C 
BRANCH   5   6
ATOM      6  C   UNL     1       2.519  -2.789  -0.052  0.00  0.00    +0.099 C 
BRANCH   6   7
ATOM      7  N   UNL     1       1.238  -2.077  -0.032  0.00  0.00    -0.344 N 
ATOM      8  H   UNL     1       0.406  -2.575  -0.019  0.00  0.00    +0.146 HD
BRANCH   7  14
ATOM      9  C   UNL     1       0.003  -0.003  -0.012  0.00  0.00    +0.025 A 
ATOM     10  C   UNL     1      -0.016   1.377  -0.010  0.00  0.00    +0.034 A 
ATOM     11  C   UNL     1       1.171   2.087  -0.028  0.00  0.00    +0.126 A 
ATOM     12  C   UNL     1       2.381   1.416  -0.047  0.00  0.00    +0.034 A 
ATOM     13  C   UNL     1       2.407   0.035  -0.049  0.00  0.00    +0.025 A 
ATOM     14  C   UNL     1       1.216  -0.680  -0.031  0.00  0.00    +0.027 A 
BRANCH  11  15
ATOM     15  N   UNL     1       1.147   3.566  -0.027  0.00  0.00    +0.056 N 
ATOM     16  O   UNL     1       0.083   4.158  -0.010  0.00  0.00    -0.126 OA
ATOM     17  O   UNL     1       2.192   4.192  -0.042  0.00  0.00    -0.126 OA
ENDBRANCH  11  15
ENDBRANCH   7  14
ENDBRANCH   6   7
ENDBRANCH   5   6
ENDBRANCH   4   5
ENDBRANCH   1   4
BRANCH   1  18
ATOM     18  C   UNL     1       4.620  -7.237  -0.086  0.00  0.00    +0.015 C 
BRANCH  18  19
ATOM     19  C   UNL     1       4.329  -8.716  -0.082  0.00  0.00    +0.200 C 
ATOM     20  O   UNL     1       3.181  -9.108  -0.064  0.00  0.00    -0.278 OA
ATOM     21  N   UNL     1       5.344  -9.602  -0.098  0.00  0.00    -0.287 N 
ATOM     22  H   UNL     1       6.259  -9.290  -0.180  0.00  0.00    +0.155 HD
BRANCH  21  23
ATOM     23  C   UNL     1       5.077 -10.973   0.003  0.00  0.00    +0.033 A 
ATOM     24  C   UNL     1       5.959 -11.804   0.682  0.00  0.00    +0.024 A 
ATOM     25  C   UNL     1       5.691 -13.155   0.785  0.00  0.00    +0.017 A 
ATOM     26  C   UNL     1       4.552 -13.682   0.203  0.00  0.00    +0.018 A 
ATOM     27  C   UNL     1       3.675 -12.857  -0.479  0.00  0.00    +0.017 A 
ATOM     28  C   UNL     1       3.935 -11.504  -0.580  0.00  0.00    +0.024 A 
ATOM     29 BR   UNL     1       4.192 -15.533   0.340  0.00  0.00    -0.050 Br
ENDBRANCH  21  23
ENDBRANCH  18  19
ENDBRANCH   1  18
TORSDOF 9
