REMARK  Name = ZINC46105323
REMARK  11 active torsions:
REMARK  status: ('A' for Active; 'I' for Inactive)
REMARK    1  A    between atoms: C_1  and  C_2
REMARK    2  A    between atoms: C_2  and  N_3
REMARK    3  A    between atoms: N_3  and  C_4
REMARK    4  A    between atoms: N_3  and  C_6
REMARK    5  A    between atoms: C_4  and  C_5
REMARK    6  A    between atoms: C_6  and  C_7
REMARK    7  A    between atoms: C_7  and  O_8
REMARK    8  A    between atoms: O_8  and  C_9
REMARK    9  A    between atoms: C_14  and  C_15
REMARK   10  A    between atoms: C_15  and  N_16
REMARK   11  A    between atoms: N_19  and  N_20
REMARK                            x       y       z     vdW  Elec       q    Type
REMARK                         _______ _______ _______ _____ _____    ______ ____
ROOT
ATOM      1  C   UNL     1      -1.061  -1.651   4.113  0.00  0.00    +0.125 A 
ATOM      2  C   UNL     1       0.101  -2.364   4.369  0.00  0.00    +0.046 A 
ATOM      3  C   UNL     1       0.564  -2.486   5.665  0.00  0.00    +0.004 A 
ATOM      4  C   UNL     1      -0.130  -1.898   6.707  0.00  0.00    +0.001 A 
ATOM      5  C   UNL     1      -1.289  -1.188   6.454  0.00  0.00    +0.009 A 
ATOM      6  C   UNL     1      -1.753  -1.058   5.159  0.00  0.00    +0.011 A 
ENDROOT
BRANCH   1   7
ATOM      7  O   UNL     1      -1.518  -1.528   2.839  0.00  0.00    -0.493 OA
BRANCH   7   8
ATOM      8  C   UNL     1      -0.755  -2.165   1.813  0.00  0.00    +0.210 C 
BRANCH   8   9
ATOM      9  C   UNL     1      -1.419  -1.919   0.457  0.00  0.00    -0.037 C 
BRANCH   9  10
ATOM     10  N   UNL     1      -1.374  -0.485   0.142  0.00  0.00    +0.382 N 
ATOM     11  H   UNL     1      -1.793   0.038   0.896  0.00  0.00    -0.082 HD
BRANCH  10  13
ATOM     12  C   UNL     1       0.080   1.452  -0.218  0.00  0.00    -0.017 C 
ATOM     13  C   UNL     1       0.023  -0.065  -0.028  0.00  0.00    -0.082 C 
ENDBRANCH  10  13
BRANCH  10  14
ATOM     14  C   UNL     1      -2.116  -0.233  -1.101  0.00  0.00    -0.082 C 
ATOM     15  C   UNL     1      -3.600  -0.533  -0.879  0.00  0.00    -0.017 C 
ENDBRANCH  10  14
ENDBRANCH   9  10
ENDBRANCH   8   9
ENDBRANCH   7   8
ENDBRANCH   1   7
BRANCH   6  16
ATOM     16  C   UNL     1      -3.013  -0.278   4.884  0.00  0.00    +0.144 C 
BRANCH  16  17
ATOM     17  N   UNL     1      -4.134  -1.205   4.717  0.00  0.00    -0.294 N 
ATOM     18  C   UNL     1      -5.369  -0.729   4.461  0.00  0.00    +0.316 C 
ATOM     19  O   UNL     1      -5.552   0.469   4.369  0.00  0.00    -0.251 OA
ATOM     20  N   UNL     1      -6.401  -1.582   4.306  0.00  0.00    -0.217 N 
ATOM     21  H   UNL     1      -3.988  -2.161   4.790  0.00  0.00    +0.151 HD
ATOM     22  H   UNL     1      -7.290  -1.240   4.122  0.00  0.00    +0.174 HD
BRANCH  20  23
ATOM     23  N   UNL     1      -6.190  -2.963   4.412  0.00  0.00    -0.217 N 
ATOM     24  C   UNL     1      -7.222  -3.816   4.258  0.00  0.00    +0.313 C 
ATOM     25  O   UNL     1      -7.039  -5.015   4.350  0.00  0.00    -0.252 OA
ATOM     26  N   UNL     1      -8.457  -3.341   4.002  0.00  0.00    -0.312 N 
ATOM     27  H   UNL     1      -5.302  -3.305   4.596  0.00  0.00    +0.174 HD
ATOM     28  H   UNL     1      -8.603  -2.385   3.929  0.00  0.00    +0.147 HD
ATOM     29  H   UNL     1      -9.200  -3.955   3.891  0.00  0.00    +0.147 HD
ENDBRANCH  20  23
ENDBRANCH  16  17
ENDBRANCH   6  16
TORSDOF 9
