REMARK  Name = ZINC44713986
REMARK  12 active torsions:
REMARK  status: ('A' for Active; 'I' for Inactive)
REMARK    1  A    between atoms: C_1  and  C_2
REMARK    2  A    between atoms: C_2  and  C_3
REMARK    3  A    between atoms: C_3  and  C_4
REMARK    4  A    between atoms: C_4  and  C_5
REMARK    5  A    between atoms: C_5  and  C_6
REMARK    6  A    between atoms: C_6  and  C_7
REMARK    7  A    between atoms: C_11  and  C_20
REMARK    8  A    between atoms: N_22  and  C_23
REMARK    9  A    between atoms: C_23  and  C_25
REMARK   10  A    between atoms: C_23  and  C_26
REMARK   11  A    between atoms: C_27  and  C_33
REMARK   12  A    between atoms: C_31  and  C_32
REMARK                            x       y       z     vdW  Elec       q    Type
REMARK                         _______ _______ _______ _____ _____    ______ ____
ROOT
ATOM      1  C   UNL     1       2.290  -4.554  -3.894  0.00  0.00    +0.216 C 
ATOM      2  O   UNL     1       2.695  -3.779  -4.736  0.00  0.00    -0.276 OA
ATOM      3  N   UNL     1       2.381  -5.882  -4.102  0.00  0.00    -0.300 N 
ATOM      4  C   UNL     1       1.940  -6.974  -3.203  0.00  0.00    +0.121 C 
ATOM      5  C   UNL     1       1.337  -8.038  -4.147  0.00  0.00    +0.100 C 
ATOM      6  C   UNL     1       2.001  -7.776  -5.509  0.00  0.00    -0.004 C 
ATOM      7  C   UNL     1       2.939  -6.581  -5.284  0.00  0.00    +0.115 C 
ATOM      8  C   UNL     1       0.946  -7.422  -6.552  0.00  0.00    -0.010 C 
ATOM      9  C   UNL     1       1.625  -7.222  -7.910  0.00  0.00    -0.082 C 
ATOM     10  N   UNL     1       2.328  -8.452  -8.294  0.00  0.00    +0.379 N 
ATOM     11  C   UNL     1       3.402  -8.735  -7.334  0.00  0.00    -0.082 C 
ATOM     12  C   UNL     1       2.799  -8.999  -5.952  0.00  0.00    -0.010 C 
ATOM     13  H   UNL     1       1.676  -9.222  -8.303  0.00  0.00    -0.086 HD
ATOM     14  H   UNL     1       2.723  -8.339  -9.215  0.00  0.00    -0.086 HD
ENDROOT
BRANCH   5  15
ATOM     15  C   UNL     1       1.668  -9.424  -3.656  0.00  0.00    +0.219 C 
ATOM     16  O   UNL     1       2.701  -9.622  -3.052  0.00  0.00    -0.275 OA
ATOM     17  N   UNL     1       0.818 -10.443  -3.889  0.00  0.00    -0.308 N 
ATOM     18  H   UNL     1      -0.008 -10.284  -4.373  0.00  0.00    +0.149 HD
BRANCH  17  19
ATOM     19  C   UNL     1       1.140 -11.790  -3.413  0.00  0.00    +0.104 C 
ATOM     20  C   UNL     1       0.688 -11.938  -1.959  0.00  0.00    +0.033 C 
BRANCH  19  21
ATOM     21  C   UNL     1       0.429 -12.809  -4.266  0.00  0.00    +0.015 A 
ATOM     22  C   UNL     1       0.970 -13.943  -4.769  0.00  0.00    +0.038 A 
ATOM     23  N   UNL     1       0.011 -14.578  -5.474  0.00  0.00    -0.281 N 
ATOM     24  H   UNL     1       0.113 -15.419  -5.947  0.00  0.00    +0.189 HD
ATOM     25  N   UNL     1      -1.157 -13.809  -5.403  0.00  0.00    -0.179 NA
ATOM     26  C   UNL     1      -0.907 -12.752  -4.674  0.00  0.00    +0.065 A 
ATOM     27  C   UNL     1      -1.889 -11.659  -4.336  0.00  0.00    +0.068 C 
ATOM     28  C   UNL     1       2.389 -14.412  -4.575  0.00  0.00    +0.065 C 
ENDBRANCH  19  21
ENDBRANCH  17  19
ENDBRANCH   5  15
BRANCH   1  29
ATOM     29  C   UNL     1       1.686  -4.030  -2.617  0.00  0.00    +0.096 C 
BRANCH  29  30
ATOM     30  C   UNL     1       1.703  -2.500  -2.634  0.00  0.00    +0.009 C 
BRANCH  30  31
ATOM     31  C   UNL     1       1.090  -1.969  -1.337  0.00  0.00    +0.000 C 
BRANCH  31  32
ATOM     32  C   UNL     1       1.107  -0.439  -1.354  0.00  0.00    -0.000 C 
BRANCH  32  34
ATOM     33  C   UNL     1       0.510   1.622  -0.075  0.00  0.00    +0.004 C 
ATOM     34  C   UNL     1       0.493   0.092  -0.058  0.00  0.00    -0.003 C 
ENDBRANCH  32  34
ENDBRANCH  31  32
ENDBRANCH  30  31
ENDBRANCH  29  30
ENDBRANCH   1  29
TORSDOF 8
