REMARK  Name = ZINC40322741
REMARK  11 active torsions:
REMARK  status: ('A' for Active; 'I' for Inactive)
REMARK    1  A    between atoms: C_1  and  C_2
REMARK    2  A    between atoms: C_5  and  S_8
REMARK    3  A    between atoms: S_8  and  C_11
REMARK    4  A    between atoms: C_14  and  C_16
REMARK    5  A    between atoms: N_18  and  C_19
REMARK    6  A    between atoms: C_19  and  C_20
REMARK    7  A    between atoms: C_20  and  C_22
REMARK    8  A    between atoms: C_20  and  N_31
REMARK    9  A    between atoms: C_25  and  C_28
REMARK   10  A    between atoms: C_28  and  C_29
REMARK   11  A    between atoms: C_28  and  C_30
REMARK                            x       y       z     vdW  Elec       q    Type
REMARK                         _______ _______ _______ _____ _____    ______ ____
ROOT
ATOM      1  C   UNL     1       7.510  -5.235  -2.471  0.00  0.00    +0.279 C 
ATOM      2  O   UNL     1       7.028  -5.843  -1.533  0.00  0.00    -0.267 OA
ATOM      3  N   UNL     1       6.937  -5.311  -3.688  0.00  0.00    -0.310 N 
ATOM      4  H   UNL     1       7.321  -4.826  -4.436  0.00  0.00    +0.149 HD
ENDROOT
BRANCH   1   8
ATOM      5  C   UNL     1      10.407  -3.087  -2.685  0.00  0.00    +0.246 A 
ATOM      6  C   UNL     1      10.471  -3.405  -1.373  0.00  0.00    +0.070 A 
ATOM      7  C   UNL     1       9.391  -4.258  -1.101  0.00  0.00    +0.056 A 
ATOM      8  C   UNL     1       8.714  -4.421  -2.276  0.00  0.00    +0.192 A 
ATOM      9  O   UNL     1       9.344  -3.697  -3.225  0.00  0.00    -0.433 OA
BRANCH   5  10
ATOM     10  S   UNL     1      11.532  -2.037  -3.544  0.00  0.00    +0.058 S 
ATOM     11  O   UNL     1      12.124  -1.192  -2.567  0.00  0.00    -0.161 OA
ATOM     12  O   UNL     1      10.832  -1.526  -4.670  0.00  0.00    -0.161 OA
BRANCH  10  17
ATOM     13  C   UNL     1      15.948  -5.535  -5.703  0.00  0.00    +0.044 C 
ATOM     14  C   UNL     1      14.845  -4.662  -5.163  0.00  0.00    -0.050 A 
ATOM     15  C   UNL     1      13.718  -4.422  -5.926  0.00  0.00    +0.005 A 
ATOM     16  C   UNL     1      12.706  -3.621  -5.432  0.00  0.00    +0.028 A 
ATOM     17  C   UNL     1      12.821  -3.060  -4.174  0.00  0.00    +0.097 A 
ATOM     18  C   UNL     1      13.948  -3.300  -3.410  0.00  0.00    +0.028 A 
ATOM     19  C   UNL     1      14.959  -4.105  -3.903  0.00  0.00    +0.005 A 
ENDBRANCH  10  17
ENDBRANCH   5  10
ENDBRANCH   1   8
BRANCH   3  20
ATOM     20  C   UNL     1       5.734  -6.124  -3.883  0.00  0.00    +0.094 C 
BRANCH  20  21
ATOM     21  C   UNL     1       5.225  -5.947  -5.315  0.00  0.00    -0.020 C 
BRANCH  21  22
ATOM     22  N   UNL     1       3.967  -6.687  -5.482  0.00  0.00    +0.385 N 
ATOM     23  C   UNL     1       3.509  -6.563  -6.872  0.00  0.00    -0.078 C 
ATOM     24  C   UNL     1       2.243  -7.398  -7.072  0.00  0.00    -0.019 C 
ATOM     25  C   UNL     1       1.150  -6.893  -6.125  0.00  0.00    -0.004 C 
ATOM     26  C   UNL     1       1.666  -6.957  -4.685  0.00  0.00    -0.019 C 
ATOM     27  C   UNL     1       2.954  -6.138  -4.573  0.00  0.00    -0.078 C 
ATOM     28  H   UNL     1       4.120  -7.661  -5.267  0.00  0.00    -0.081 HD
ENDBRANCH  21  22
BRANCH  21  29
ATOM     29  C   UNL     1       6.252  -6.477  -6.282  0.00  0.00    -0.059 A 
ATOM     30  C   UNL     1       6.338  -7.836  -6.523  0.00  0.00    +0.002 A 
ATOM     31  C   UNL     1       7.280  -8.322  -7.410  0.00  0.00    +0.004 A 
ATOM     32  C   UNL     1       8.136  -7.450  -8.057  0.00  0.00    -0.045 A 
ATOM     33  C   UNL     1       8.049  -6.091  -7.817  0.00  0.00    +0.004 A 
ATOM     34  C   UNL     1       7.104  -5.605  -6.933  0.00  0.00    +0.002 A 
BRANCH  32  35
ATOM     35  C   UNL     1       9.163  -7.980  -9.024  0.00  0.00    +0.013 C 
ATOM     36  C   UNL     1       8.921  -7.375 -10.408  0.00  0.00    +0.012 C 
ATOM     37  C   UNL     1      10.564  -7.600  -8.539  0.00  0.00    +0.012 C 
ENDBRANCH  32  35
ENDBRANCH  21  29
ENDBRANCH  20  21
ENDBRANCH   3  20
TORSDOF 8
