REMARK  Name = ZINC20138004
REMARK  10 active torsions:
REMARK  status: ('A' for Active; 'I' for Inactive)
REMARK    1  A    between atoms: C_1  and  O_2
REMARK    2  A    between atoms: O_2  and  C_3
REMARK    3  A    between atoms: C_7  and  C_9
REMARK    4  A    between atoms: C_9  and  C_10
REMARK    5  A    between atoms: C_10  and  C_30
REMARK    6  A    between atoms: N_14  and  C_16
REMARK    7  A    between atoms: C_16  and  C_17
REMARK    8  A    between atoms: N_19  and  C_26
REMARK    9  A    between atoms: C_26  and  C_27
REMARK   10  A    between atoms: C_30  and  O_31
REMARK                            x       y       z     vdW  Elec       q    Type
REMARK                         _______ _______ _______ _____ _____    ______ ____
ROOT
ATOM      1  C   UNL     1      -0.084   5.868  -1.408  0.00  0.00    -0.017 C 
ATOM      2  C   UNL     1      -1.337   5.351  -2.121  0.00  0.00    +0.006 C 
ATOM      3  C   UNL     1      -1.379   5.923  -3.541  0.00  0.00    -0.018 C 
ATOM      4  C   UNL     1      -1.360   7.451  -3.471  0.00  0.00    -0.078 C 
ATOM      5  N   UNL     1      -0.142   7.896  -2.782  0.00  0.00    +0.383 N 
ATOM      6  C   UNL     1      -0.103   7.399  -1.401  0.00  0.00    -0.069 C 
ATOM      7  H   UNL     1       0.720   7.470  -3.316  0.00  0.00    -0.081 HD
ENDROOT
BRANCH   1   8
ATOM      8  C   UNL     1      -0.065   5.351   0.032  0.00  0.00    +0.042 C 
BRANCH   8  13
ATOM      9  C   UNL     1      -1.223   1.754   0.017  0.00  0.00    +0.120 A 
ATOM     10  C   UNL     1      -0.013   1.076   0.008  0.00  0.00    +0.045 A 
ATOM     11  C   UNL     1       1.174   1.783   0.000  0.00  0.00    +0.004 A 
ATOM     12  C   UNL     1       1.156   3.166   0.008  0.00  0.00    +0.004 A 
ATOM     13  C   UNL     1      -0.049   3.844   0.023  0.00  0.00    -0.043 A 
ATOM     14  C   UNL     1      -1.239   3.141   0.031  0.00  0.00    +0.049 A 
BRANCH   9  16
ATOM     15  C   UNL     1      -2.300  -0.366   0.011  0.00  0.00    +0.277 C 
ATOM     16  O   UNL     1      -2.392   1.060   0.019  0.00  0.00    -0.495 OA
ENDBRANCH   9  16
ENDBRANCH   8  13
ENDBRANCH   1   8
BRANCH   5  17
ATOM     17  C   UNL     1      -0.021   9.359  -2.818  0.00  0.00    -0.041 C 
BRANCH  17  18
ATOM     18  C   UNL     1      -0.310   9.853  -4.212  0.00  0.00    -0.039 A 
ATOM     19  C   UNL     1       0.596  10.205  -5.138  0.00  0.00    +0.089 A 
ATOM     20  N   UNL     1      -0.038  10.598  -6.285  0.00  0.00    -0.338 N 
ATOM     21  C   UNL     1      -1.403  10.516  -6.118  0.00  0.00    +0.050 A 
ATOM     22  C   UNL     1      -1.633  10.045  -4.812  0.00  0.00    +0.001 A 
ATOM     23  C   UNL     1      -2.940   9.862  -4.358  0.00  0.00    +0.010 A 
ATOM     24  C   UNL     1      -3.991  10.141  -5.186  0.00  0.00    +0.001 A 
ATOM     25  C   UNL     1      -3.769  10.605  -6.475  0.00  0.00    +0.002 A 
ATOM     26  C   UNL     1      -2.487  10.794  -6.943  0.00  0.00    +0.026 A 
BRANCH  20  27
ATOM     27  C   UNL     1       0.634  11.046  -7.508  0.00  0.00    +0.217 C 
BRANCH  27  28
ATOM     28  C   UNL     1       0.733  12.549  -7.505  0.00  0.00    +0.230 C 
ATOM     29  O   UNL     1       0.285  13.185  -6.573  0.00  0.00    -0.274 OA
ATOM     30  N   UNL     1       1.318  13.188  -8.537  0.00  0.00    -0.328 N 
ATOM     31  H   UNL     1       1.390  14.286  -8.535  0.00  0.00    +0.145 HD
ATOM     32  H   UNL     1       1.724  12.612  -9.382  0.00  0.00    +0.145 HD
ENDBRANCH  27  28
ENDBRANCH  20  27
ENDBRANCH  17  18
ENDBRANCH   5  17
BRANCH   1  33
ATOM     33  C   UNL     1       1.163   5.376  -2.145  0.00  0.00    +0.161 C 
BRANCH  33  34
ATOM     34  O   UNL     1       1.178   3.947  -2.153  0.00  0.00    -0.395 OA
ATOM     35  H   UNL     1       2.005   3.409  -2.641  0.00  0.00    +0.209 HD
ENDBRANCH  33  34
ENDBRANCH   1  33
TORSDOF 9
