REMARK  Name = ZINC14969865
REMARK  9 active torsions:
REMARK  status: ('A' for Active; 'I' for Inactive)
REMARK    1  A    between atoms: C_1  and  C_2
REMARK    2  A    between atoms: C_2  and  N_58
REMARK    3  A    between atoms: C_3  and  C_4
REMARK    4  A    between atoms: C_3  and  N_58
REMARK    5  A    between atoms: C_4  and  O_5
REMARK    6  A    between atoms: C_6  and  C_7
REMARK    7  A    between atoms: C_6  and  N_58
REMARK    8  A    between atoms: C_10  and  C_15
REMARK    9  A    between atoms: N_17  and  C_18
REMARK                            x       y       z     vdW  Elec       q    Type
REMARK                         _______ _______ _______ _____ _____    ______ ____
ROOT
ATOM      1  C   UNL     1      -3.229  10.115  -1.095  0.00  0.00    +0.003 A 
ATOM      2  C   UNL     1      -4.361   9.877  -1.806  0.00  0.00    +0.020 A 
ATOM      3  C   UNL     1      -4.740   8.567  -2.099  0.00  0.00    +0.020 A 
ATOM      4  C   UNL     1      -3.948   7.516  -1.642  0.00  0.00    +0.101 A 
ATOM      5  C   UNL     1      -2.775   7.816  -0.902  0.00  0.00    +0.261 A 
ATOM      6  O   UNL     1      -2.062   6.915  -0.495  0.00  0.00    -0.267 OA
ATOM      7  N   UNL     1      -2.451   9.099  -0.652  0.00  0.00    -0.327 N 
ATOM      8  H   UNL     1      -1.648   9.299  -0.146  0.00  0.00    +0.169 HD
ENDROOT
BRANCH   4   9
ATOM      9  C   UNL     1      -4.317   6.121  -1.925  0.00  0.00    +0.250 C 
ATOM     10  O   UNL     1      -5.297   5.878  -2.604  0.00  0.00    -0.270 OA
ATOM     11  N   UNL     1      -3.571   5.113  -1.433  0.00  0.00    -0.306 N 
ATOM     12  H   UNL     1      -2.749   5.306  -0.955  0.00  0.00    +0.150 HD
BRANCH  11  13
ATOM     13  C   UNL     1      -3.999   3.725  -1.621  0.00  0.00    +0.036 C 
ATOM     14  C   UNL     1      -4.094   3.418  -3.117  0.00  0.00    +0.029 C 
ATOM     15  C   UNL     1      -4.542   1.968  -3.314  0.00  0.00    -0.008 C 
ATOM     16  C   UNL     1      -3.525   1.028  -2.664  0.00  0.00    +0.007 C 
ATOM     17  C   UNL     1      -3.430   1.334  -1.168  0.00  0.00    -0.008 C 
ATOM     18  C   UNL     1      -2.982   2.784  -0.972  0.00  0.00    +0.029 C 
ATOM     19  C   UNL     1      -4.800   1.131  -0.518  0.00  0.00    +0.007 C 
ATOM     20  C   UNL     1      -5.817   2.072  -1.168  0.00  0.00    -0.008 C 
ATOM     21  C   UNL     1      -5.912   1.765  -2.664  0.00  0.00    +0.007 C 
ATOM     22  C   UNL     1      -5.370   3.521  -0.972  0.00  0.00    +0.029 C 
ENDBRANCH  11  13
ENDBRANCH   4   9
BRANCH   1  23
ATOM     23  C   UNL     1      -2.832  11.537  -0.793  0.00  0.00    -0.024 C 
BRANCH  23  24
ATOM     24  N   UNL     1      -3.128  11.819   0.628  0.00  0.00    +0.385 N 
ATOM     25  H   UNL     1      -4.021  11.377   0.877  0.00  0.00    -0.081 HD
BRANCH  24  27
ATOM     26  C   UNL     1      -0.730  11.965   1.211  0.00  0.00    -0.017 C 
ATOM     27  C   UNL     1      -2.061  11.263   1.486  0.00  0.00    -0.082 C 
ENDBRANCH  24  27
BRANCH  24  28
ATOM     28  C   UNL     1      -3.239  13.277   0.841  0.00  0.00    -0.050 C 
BRANCH  28  29
ATOM     29  C   UNL     1      -3.920  13.527   2.188  0.00  0.00    +0.137 C 
BRANCH  29  30
ATOM     30  O   UNL     1      -3.055  13.105   3.244  0.00  0.00    -0.397 OA
ATOM     31  H   UNL     1      -3.452  13.163   4.124  0.00  0.00    +0.209 HD
ENDBRANCH  29  30
ENDBRANCH  28  29
ENDBRANCH  24  28
ENDBRANCH  23  24
ENDBRANCH   1  23
TORSDOF 8
