REMARK  Name = ZINC04937031
REMARK  10 active torsions:
REMARK  status: ('A' for Active; 'I' for Inactive)
REMARK    1  A    between atoms: C_1  and  C_2
REMARK    2  A    between atoms: C_4  and  C_29
REMARK    3  A    between atoms: C_7  and  C_27
REMARK    4  A    between atoms: N_11  and  C_12
REMARK    5  A    between atoms: C_12  and  C_13
REMARK    6  A    between atoms: C_13  and  C_14
REMARK    7  A    between atoms: C_14  and  N_15
REMARK    8  A    between atoms: N_18  and  C_19
REMARK    9  A    between atoms: C_22  and  O_25
REMARK   10  A    between atoms: O_25  and  C_26
REMARK                            x       y       z     vdW  Elec       q    Type
REMARK                         _______ _______ _______ _____ _____    ______ ____
ROOT
ATOM      1  C   UNL     1      11.423   6.682   0.098  0.00  0.00    +0.044 C 
ATOM      2  C   UNL     1      11.267   5.186   0.190  0.00  0.00    -0.048 A 
ATOM      3  C   UNL     1      12.401   4.383   0.288  0.00  0.00    +0.007 A 
ATOM      4  C   UNL     1      12.292   3.029   0.372  0.00  0.00    -0.041 A 
ATOM      5  C   UNL     1      11.020   2.432   0.359  0.00  0.00    +0.003 A 
ATOM      6  C   UNL     1      10.872   1.035   0.444  0.00  0.00    +0.032 A 
ATOM      7  C   UNL     1       9.587   0.512   0.431  0.00  0.00    +0.090 A 
ATOM      8  C   UNL     1       8.481   1.389   0.324  0.00  0.00    +0.114 A 
ATOM      9  C   UNL     1       9.865   3.247   0.259  0.00  0.00    +0.048 A 
ATOM     10  C   UNL     1      10.019   4.641   0.174  0.00  0.00    +0.029 A 
ATOM     11  N   UNL     1       7.201   0.867   0.306  0.00  0.00    -0.329 N 
ATOM     12  C   UNL     1      13.529   2.174   0.478  0.00  0.00    +0.044 C 
ATOM     13  H   UNL     1       7.067  -0.092   0.363  0.00  0.00    +0.147 HD
ATOM     14  N   UNL     1       8.583   2.738   0.239  0.00  0.00    -0.342 N 
ATOM     15  H   UNL     1       7.757   3.344   0.166  0.00  0.00    +0.167 HD
ENDROOT
BRANCH   7  16
ATOM     16  C   UNL     1       9.381  -0.902   0.521  0.00  0.00    +0.103 C 
ATOM     17  N   UNL     1       9.218  -2.024   0.593  0.00  0.00    -0.191 NA
ENDBRANCH   7  16
BRANCH  11  18
ATOM     18  C   UNL     1       6.046   1.762   0.201  0.00  0.00    +0.104 C 
BRANCH  18  19
ATOM     19  C   UNL     1       4.758   0.935   0.202  0.00  0.00    +0.037 C 
BRANCH  19  20
ATOM     20  C   UNL     1       3.552   1.870   0.092  0.00  0.00    +0.107 C 
BRANCH  20  21
ATOM     21  N   UNL     1       2.319   1.079   0.094  0.00  0.00    -0.299 N 
ATOM     22  C   UNL     1       1.123   1.694   0.006  0.00  0.00    +0.304 C 
ATOM     23  O   UNL     1       1.067   2.906  -0.076  0.00  0.00    -0.253 OA
ATOM     24  N   UNL     1      -0.011   0.966   0.007  0.00  0.00    -0.269 N 
ATOM     25  H   UNL     1       2.363   0.112   0.159  0.00  0.00    +0.150 HD
ATOM     26  H   UNL     1       0.035  -0.003   0.005  0.00  0.00    +0.156 HD
BRANCH  24  27
ATOM     27  C   UNL     1      -1.256   1.609   0.007  0.00  0.00    +0.035 A 
ATOM     28  C   UNL     1      -2.326   1.051   0.695  0.00  0.00    +0.027 A 
ATOM     29  C   UNL     1      -3.551   1.688   0.699  0.00  0.00    +0.047 A 
ATOM     30  C   UNL     1      -3.717   2.878   0.006  0.00  0.00    +0.120 A 
ATOM     31  C   UNL     1      -2.650   3.433  -0.685  0.00  0.00    +0.047 A 
ATOM     32  C   UNL     1      -1.423   2.800  -0.685  0.00  0.00    +0.027 A 
BRANCH  30  33
ATOM     33  O   UNL     1      -4.925   3.502   0.006  0.00  0.00    -0.495 OA
ATOM     34  C   UNL     1      -5.979   2.875   0.739  0.00  0.00    +0.277 C 
ENDBRANCH  30  33
ENDBRANCH  24  27
ENDBRANCH  20  21
ENDBRANCH  19  20
ENDBRANCH  18  19
ENDBRANCH  11  18
TORSDOF 7
