REMARK  Name = ZINC20540265
REMARK  17 active torsions:
REMARK  status: ('A' for Active; 'I' for Inactive)
REMARK    1  A    between atoms: C_1  and  C_2
REMARK    2  A    between atoms: C_2  and  C_3
REMARK    3  A    between atoms: C_2  and  C_4
REMARK    4  A    between atoms: C_2  and  O_28
REMARK    5  A    between atoms: C_4  and  N_5
REMARK    6  A    between atoms: N_5  and  C_6
REMARK    7  A    between atoms: C_6  and  C_7
REMARK    8  A    between atoms: C_10  and  O_26
REMARK    9  A    between atoms: C_11  and  O_13
REMARK   10  A    between atoms: O_13  and  C_14
REMARK   11  A    between atoms: C_14  and  C_15
REMARK   12  A    between atoms: C_15  and  C_17
REMARK   13  A    between atoms: C_15  and  O_25
REMARK   14  A    between atoms: C_17  and  N_18
REMARK   15  A    between atoms: N_21  and  C_24
REMARK   16  A    between atoms: O_26  and  C_27
REMARK   17  A    between atoms: O_28  and  C_29
REMARK                            x       y       z     vdW  Elec       q    Type
REMARK                         _______ _______ _______ _____ _____    ______ ____
ROOT
ATOM      1  C   UNL     1      -2.184   0.937  -1.064  0.00  0.00    -0.061 A 
ATOM      2  C   UNL     1      -2.465  -0.236  -1.741  0.00  0.00    +0.005 A 
ATOM      3  C   UNL     1      -3.743  -0.760  -1.720  0.00  0.00    +0.049 A 
ATOM      4  C   UNL     1      -4.750  -0.105  -1.030  0.00  0.00    +0.162 A 
ATOM      5  C   UNL     1      -4.469   1.079  -0.353  0.00  0.00    +0.162 A 
ATOM      6  C   UNL     1      -3.184   1.596  -0.373  0.00  0.00    +0.051 A 
ENDROOT
BRANCH   4   7
ATOM      7  O   UNL     1      -6.010  -0.616  -1.014  0.00  0.00    -0.491 OA
ATOM      8  C   UNL     1      -6.225  -1.834  -1.730  0.00  0.00    +0.277 C 
ENDBRANCH   4   7
BRANCH   1   9
ATOM      9  C   UNL     1      -0.787   1.501  -1.084  0.00  0.00    -0.047 C 
BRANCH   9  10
ATOM     10  N   UNL     1      -0.023   0.959   0.048  0.00  0.00    +0.384 N 
ATOM     11  H   UNL     1       0.008  -0.137  -0.039  0.00  0.00    -0.085 HD
ATOM     12  H   UNL     1      -0.533   1.238   0.983  0.00  0.00    -0.085 HD
BRANCH  10  13
ATOM     13  C   UNL     1       1.347   1.488   0.061  0.00  0.00    -0.047 C 
BRANCH  13  15
ATOM     14  C   UNL     1       3.494   1.548   1.337  0.00  0.00    +0.039 C 
ATOM     15  C   UNL     1       2.109   0.903   1.251  0.00  0.00    +0.049 C 
ATOM     16  C   UNL     1       1.335   1.185   2.541  0.00  0.00    +0.039 C 
BRANCH  15  17
ATOM     17  O   UNL     1       2.250  -0.508   1.079  0.00  0.00    -0.379 OA
ATOM     18  C   UNL     1       2.952  -1.156   2.142  0.00  0.00    +0.194 C 
ENDBRANCH  15  17
ENDBRANCH  13  15
ENDBRANCH  10  13
ENDBRANCH   9  10
ENDBRANCH   1   9
BRANCH   5  19
ATOM     19  O   UNL     1      -5.454   1.725   0.326  0.00  0.00    -0.486 OA
BRANCH  19  20
ATOM     20  C   UNL     1      -5.092   2.934   0.998  0.00  0.00    +0.261 C 
BRANCH  20  21
ATOM     21  C   UNL     1      -6.321   3.514   1.701  0.00  0.00    +0.166 C 
BRANCH  21  22
ATOM     22  O   UNL     1      -7.291   3.899   0.725  0.00  0.00    -0.387 OA
ATOM     23  H   UNL     1      -8.247   4.339   1.043  0.00  0.00    +0.210 HD
ENDBRANCH  21  22
BRANCH  21  24
ATOM     24  C   UNL     1      -5.909   4.738   2.522  0.00  0.00    +0.119 C 
BRANCH  24  25
ATOM     25  N   UNL     1      -7.087   5.287   3.207  0.00  0.00    -0.303 NA
ATOM     26  C   UNL     1      -6.858   6.681   3.611  0.00  0.00    +0.066 C 
ATOM     27  C   UNL     1      -8.133   7.240   4.248  0.00  0.00    -0.064 C 
ATOM     28  N   UNL     1      -8.502   6.413   5.405  0.00  0.00    +0.379 N 
ATOM     29  C   UNL     1      -8.731   5.018   5.000  0.00  0.00    -0.064 C 
ATOM     30  C   UNL     1      -7.457   4.459   4.363  0.00  0.00    +0.066 C 
ATOM     31  C   UNL     1      -9.680   6.962   6.090  0.00  0.00    -0.096 C 
ATOM     32  H   UNL     1      -7.663   6.427   6.115  0.00  0.00    -0.082 HD
ENDBRANCH  24  25
ENDBRANCH  21  24
ENDBRANCH  20  21
ENDBRANCH  19  20
ENDBRANCH   5  19
TORSDOF 12
