REMARK  Name = ZINC06164130
REMARK  10 active torsions:
REMARK  status: ('A' for Active; 'I' for Inactive)
REMARK    1  A    between atoms: C_1  and  C_2
REMARK    2  A    between atoms: C_2  and  N_3
REMARK    3  A    between atoms: N_3  and  C_4
REMARK    4  A    between atoms: N_3  and  S_6
REMARK    5  A    between atoms: C_4  and  C_5
REMARK    6  A    between atoms: S_6  and  C_9
REMARK    7  A    between atoms: C_12  and  O_27
REMARK    8  A    between atoms: C_13  and  N_15
REMARK    9  A    between atoms: N_18  and  C_19
REMARK   10  A    between atoms: O_27  and  C_28
REMARK                            x       y       z     vdW  Elec       q    Type
REMARK                         _______ _______ _______ _____ _____    ______ ____
ROOT
ATOM      1  C   UNL     1      -1.325   3.447  -0.545  0.00  0.00    +0.107 A 
ATOM      2  C   UNL     1      -1.386   2.068  -0.625  0.00  0.00    +0.032 A 
ATOM      3  C   UNL     1      -0.230   1.315  -0.534  0.00  0.00    +0.049 A 
ATOM      4  C   UNL     1       0.995   1.942  -0.375  0.00  0.00    +0.141 A 
ATOM      5  C   UNL     1       1.057   3.332  -0.301  0.00  0.00    +0.079 A 
ATOM      6  C   UNL     1      -0.107   4.080  -0.387  0.00  0.00    +0.055 A 
ENDROOT
BRANCH   5   7
ATOM      7  N   UNL     1       2.294   3.972  -0.140  0.00  0.00    -0.266 N 
ATOM      8  C   UNL     1       2.345   5.227   0.348  0.00  0.00    +0.308 C 
ATOM      9  O   UNL     1       1.329   5.768   0.742  0.00  0.00    -0.252 OA
ATOM     10  N   UNL     1       3.521   5.883   0.401  0.00  0.00    -0.269 N 
ATOM     11  H   UNL     1       3.113   3.512  -0.381  0.00  0.00    +0.156 HD
ATOM     12  H   UNL     1       4.317   5.483   0.016  0.00  0.00    +0.156 HD
BRANCH  10  13
ATOM     13  C   UNL     1       3.595   7.141   1.010  0.00  0.00    +0.036 A 
ATOM     14  C   UNL     1       4.477   8.097   0.526  0.00  0.00    +0.025 A 
ATOM     15  C   UNL     1       4.545   9.340   1.126  0.00  0.00    +0.023 A 
ATOM     16  C   UNL     1       3.742   9.629   2.215  0.00  0.00    +0.059 A 
ATOM     17  C   UNL     1       2.864   8.675   2.703  0.00  0.00    +0.061 A 
ATOM     18  C   UNL     1       2.789   7.432   2.103  0.00  0.00    +0.044 A 
ATOM     19 CL   UNL     1       1.857   9.041   4.068  0.00  0.00    -0.082 Cl
ATOM     20 CL   UNL     1       3.834  11.189   2.969  0.00  0.00    -0.082 Cl
ENDBRANCH  10  13
ENDBRANCH   5   7
BRANCH   1  21
ATOM     21  S   UNL     1      -2.804   4.400  -0.655  0.00  0.00    +0.061 S 
ATOM     22  O   UNL     1      -3.867   3.547  -0.254  0.00  0.00    -0.153 OA
ATOM     23  O   UNL     1      -2.537   5.639  -0.013  0.00  0.00    -0.153 OA
BRANCH  21  24
ATOM     24  N   UNL     1      -3.049   4.740  -2.257  0.00  0.00    -0.177 NA
BRANCH  24  26
ATOM     25  C   UNL     1      -5.287   4.304  -3.140  0.00  0.00    +0.022 C 
ATOM     26  C   UNL     1      -3.835   3.825  -3.088  0.00  0.00    +0.106 C 
ENDBRANCH  24  26
BRANCH  24  27
ATOM     27  C   UNL     1      -2.480   5.957  -2.843  0.00  0.00    +0.106 C 
ATOM     28  C   UNL     1      -1.135   5.628  -3.495  0.00  0.00    +0.022 C 
ENDBRANCH  24  27
ENDBRANCH  21  24
ENDBRANCH   1  21
BRANCH   4  29
ATOM     29  O   UNL     1       2.133   1.203  -0.292  0.00  0.00    -0.493 OA
ATOM     30  C   UNL     1       1.993  -0.216  -0.376  0.00  0.00    +0.277 C 
ENDBRANCH   4  29
TORSDOF 7
