REMARK  Name = ZINC35427204
REMARK  5 active torsions:
REMARK  status: ('A' for Active; 'I' for Inactive)
REMARK    1  A    between atoms: C_1  and  N_2
REMARK    2  A    between atoms: C_16  and  C_31
REMARK    3  A    between atoms: N_22  and  C_23
REMARK    4  A    between atoms: C_28  and  O_29
REMARK    5  A    between atoms: O_29  and  C_30
REMARK                            x       y       z     vdW  Elec       q    Type
REMARK                         _______ _______ _______ _____ _____    ______ ____
ROOT
ATOM      1  C   UNL     1       0.937   0.983  -1.512  0.00  0.00    -0.096 C 
ATOM      2  N   UNL     1       0.673  -0.429  -1.204  0.00  0.00    +0.381 N 
ATOM      3  C   UNL     1      -0.697  -0.770  -1.608  0.00  0.00    -0.074 C 
ATOM      4  C   UNL     1      -0.894  -2.288  -1.595  0.00  0.00    +0.018 C 
ATOM      5  C   UNL     1      -0.456  -2.809  -0.228  0.00  0.00    -0.034 A 
ATOM      6  C   UNL     1      -0.822  -4.077   0.263  0.00  0.00    +0.004 A 
ATOM      7  C   UNL     1      -0.352  -4.414   1.495  0.00  0.00    +0.090 A 
ATOM      8  S   UNL     1       0.574  -3.003   2.019  0.00  0.00    -0.077 S 
ATOM      9  C   UNL     1       0.320  -2.021   0.564  0.00  0.00    -0.021 A 
ATOM     10  C   UNL     1       0.827  -0.653   0.247  0.00  0.00    -0.036 C 
ATOM     11  N   UNL     1      -0.591  -5.635   2.112  0.00  0.00    -0.312 N 
ATOM     12  C   UNL     1      -0.965  -5.942   3.376  0.00  0.00    +0.092 A 
ATOM     13  C   UNL     1      -1.130  -7.282   3.450  0.00  0.00    +0.020 A 
ATOM     14  C   UNL     1      -0.825  -7.819   2.180  0.00  0.00    +0.025 A 
ATOM     15  C   UNL     1      -0.474  -6.797   1.386  0.00  0.00    +0.049 A 
ATOM     16  C   UNL     1       0.015  -6.817  -0.032  0.00  0.00    +0.155 C 
ATOM     17  N   UNL     1      -0.977  -6.234  -0.966  0.00  0.00    -0.268 N 
ATOM     18  C   UNL     1      -1.704  -5.038  -0.502  0.00  0.00    +0.148 C 
ATOM     19  C   UNL     1      -1.204  -6.771  -2.181  0.00  0.00    +0.308 C 
ATOM     20  O   UNL     1      -0.587  -7.758  -2.534  0.00  0.00    -0.252 OA
ATOM     21  N   UNL     1      -2.114  -6.214  -3.005  0.00  0.00    -0.266 N 
ATOM     22  H   UNL     1      -2.547  -5.382  -2.758  0.00  0.00    +0.156 HD
ATOM     23  H   UNL     1       1.327  -1.011  -1.705  0.00  0.00    -0.082 HD
ENDROOT
BRANCH  16  24
ATOM     24  C   UNL     1       1.295  -6.025  -0.120  0.00  0.00    -0.021 A 
ATOM     25  C   UNL     1       2.218  -6.088   0.907  0.00  0.00    +0.007 A 
ATOM     26  C   UNL     1       3.392  -5.362   0.827  0.00  0.00    +0.020 A 
ATOM     27  C   UNL     1       3.642  -4.573  -0.282  0.00  0.00    +0.041 A 
ATOM     28  C   UNL     1       2.718  -4.511  -1.310  0.00  0.00    +0.020 A 
ATOM     29  C   UNL     1       1.547  -5.242  -1.230  0.00  0.00    +0.007 A 
ATOM     30 CL   UNL     1       5.115  -3.660  -0.384  0.00  0.00    -0.084 Cl
ENDBRANCH  16  24
BRANCH  21  31
ATOM     31  C   UNL     1      -2.434  -6.837  -4.219  0.00  0.00    +0.077 A 
ATOM     32  C   UNL     1      -2.150  -8.181  -4.407  0.00  0.00    +0.027 A 
ATOM     33  C   UNL     1      -2.466  -8.794  -5.605  0.00  0.00    +0.002 A 
ATOM     34  C   UNL     1      -3.066  -8.069  -6.618  0.00  0.00    +0.004 A 
ATOM     35  C   UNL     1      -3.352  -6.728  -6.439  0.00  0.00    +0.047 A 
ATOM     36  C   UNL     1      -3.043  -6.109  -5.238  0.00  0.00    +0.141 A 
BRANCH  36  37
ATOM     37  O   UNL     1      -3.329  -4.792  -5.058  0.00  0.00    -0.493 OA
ATOM     38  C   UNL     1      -3.954  -4.108  -6.146  0.00  0.00    +0.277 C 
ENDBRANCH  36  37
ENDBRANCH  21  31
TORSDOF 3
