REMARK  Name = ZINC40378695
REMARK  5 active torsions:
REMARK  status: ('A' for Active; 'I' for Inactive)
REMARK    1  A    between atoms: C_3  and  N_12
REMARK    2  A    between atoms: C_6  and  S_7
REMARK    3  A    between atoms: S_7  and  N_10
REMARK    4  A    between atoms: C_13  and  C_15
REMARK    5  A    between atoms: C_15  and  C_16
REMARK                            x       y       z     vdW  Elec       q    Type
REMARK                         _______ _______ _______ _____ _____    ______ ____
ROOT
ATOM      1  C   UNL     1       0.065   1.242  -0.620  0.00  0.00    +0.030 A 
ATOM      2  C   UNL     1       1.250   1.952  -0.618  0.00  0.00    +0.026 A 
ATOM      3  C   UNL     1       2.381   1.409  -0.024  0.00  0.00    +0.048 A 
ATOM      4  C   UNL     1       2.317   0.153   0.567  0.00  0.00    +0.041 A 
ATOM      5  C   UNL     1       1.128  -0.551   0.562  0.00  0.00    +0.045 A 
ATOM      6  C   UNL     1       0.004  -0.007  -0.031  0.00  0.00    +0.106 A 
ATOM      7 BR   UNL     1       3.855  -0.591   1.378  0.00  0.00    -0.048 Br
ENDROOT
BRANCH   3   8
ATOM      8  N   UNL     1       3.584   2.125  -0.021  0.00  0.00    -0.285 N 
ATOM      9  C   UNL     1       3.568   3.470  -0.116  0.00  0.00    +0.218 C 
ATOM     10  O   UNL     1       2.512   4.066  -0.103  0.00  0.00    -0.275 OA
ATOM     11  H   UNL     1       4.429   1.654   0.049  0.00  0.00    +0.155 HD
BRANCH   9  12
ATOM     12  C   UNL     1       4.862   4.232  -0.238  0.00  0.00    +0.103 C 
BRANCH  12  13
ATOM     13  C   UNL     1       4.566   5.730  -0.329  0.00  0.00    +0.020 C 
ATOM     14  C   UNL     1       5.874   6.526  -0.541  0.00  0.00    +0.012 C 
ATOM     15  C   UNL     1       5.598   7.797   0.296  0.00  0.00    +0.027 C 
ATOM     16  C   UNL     1       4.578   7.365   1.324  0.00  0.00    -0.031 C 
ATOM     17  C   UNL     1       4.012   6.237   0.982  0.00  0.00    -0.027 C 
ENDBRANCH  12  13
ENDBRANCH   9  12
ENDBRANCH   3   8
BRANCH   6  18
ATOM     18  S   UNL     1      -1.510  -0.908  -0.035  0.00  0.00    +0.056 S 
ATOM     19  O   UNL     1      -1.447  -1.815   1.057  0.00  0.00    -0.153 OA
ATOM     20  O   UNL     1      -2.552   0.049  -0.172  0.00  0.00    -0.153 OA
BRANCH  18  21
ATOM     21  N   UNL     1      -1.529  -1.827  -1.413  0.00  0.00    -0.204 NA
ATOM     22  H   UNL     1      -2.000  -2.675  -1.424  0.00  0.00    +0.144 HD
ATOM     23  H   UNL     1      -1.069  -1.517  -2.209  0.00  0.00    +0.144 HD
ENDBRANCH  18  21
ENDBRANCH   6  18
TORSDOF 5
