REMARK  Name = ZINC64219374
REMARK  8 active torsions:
REMARK  status: ('A' for Active; 'I' for Inactive)
REMARK    1  A    between atoms: C_3  and  O_23
REMARK    2  A    between atoms: C_6  and  C_7
REMARK    3  A    between atoms: C_7  and  C_8
REMARK    4  A    between atoms: C_7  and  O_22
REMARK    5  A    between atoms: C_8  and  N_9
REMARK    6  A    between atoms: N_12  and  C_13
REMARK    7  A    between atoms: N_16  and  C_19
REMARK    8  A    between atoms: O_23  and  C_24
REMARK                            x       y       z     vdW  Elec       q    Type
REMARK                         _______ _______ _______ _____ _____    ______ ____
ROOT
ATOM      1  N   UNL     1      -2.913  -1.899   1.458  0.00  0.00    -0.297 N 
ATOM      2  C   UNL     1      -3.429  -2.337   2.623  0.00  0.00    +0.300 C 
ATOM      3  O   UNL     1      -2.849  -2.111   3.668  0.00  0.00    -0.253 OA
ATOM      4  N   UNL     1      -4.587  -3.025   2.631  0.00  0.00    -0.297 N 
ATOM      5  H   UNL     1      -3.375  -2.079   0.625  0.00  0.00    +0.150 HD
ATOM      6  H   UNL     1      -5.050  -3.206   1.798  0.00  0.00    +0.151 HD
ENDROOT
BRANCH   4   7
ATOM      7  C   UNL     1      -5.148  -3.501   3.898  0.00  0.00    +0.071 C 
ATOM      8  C   UNL     1      -4.524  -4.853   4.259  0.00  0.00    +0.004 C 
ATOM      9  C   UNL     1      -5.171  -5.381   5.541  0.00  0.00    -0.077 C 
ATOM     10  N   UNL     1      -6.614  -5.548   5.332  0.00  0.00    +0.382 N 
ATOM     11  C   UNL     1      -7.231  -4.245   5.056  0.00  0.00    -0.077 C 
ATOM     12  C   UNL     1      -6.663  -3.672   3.756  0.00  0.00    +0.004 C 
ATOM     13  H   UNL     1      -6.771  -6.165   4.549  0.00  0.00    -0.081 HD
BRANCH  10  14
ATOM     14  C   UNL     1      -7.218  -6.128   6.538  0.00  0.00    -0.069 C 
ATOM     15  C   UNL     1      -7.753  -7.559   6.442  0.00  0.00    -0.017 C 
ATOM     16  C   UNL     1      -8.727  -6.381   6.521  0.00  0.00    -0.017 C 
ENDBRANCH  10  14
ENDBRANCH   4   7
BRANCH   1  17
ATOM     17  C   UNL     1      -1.653  -1.150   1.449  0.00  0.00    +0.141 C 
BRANCH  17  18
ATOM     18  C   UNL     1      -1.293  -0.774   0.011  0.00  0.00    +0.162 C 
BRANCH  18  24
ATOM     19  C   UNL     1      -0.017   1.378   0.010  0.00  0.00    +0.010 A 
ATOM     20  C   UNL     1       1.169   2.087   0.002  0.00  0.00    +0.046 A 
ATOM     21  C   UNL     1       2.380   1.409  -0.013  0.00  0.00    +0.130 A 
ATOM     22  C   UNL     1       2.396   0.022  -0.021  0.00  0.00    +0.046 A 
ATOM     23  C   UNL     1       1.207  -0.681  -0.013  0.00  0.00    +0.010 A 
ATOM     24  C   UNL     1       0.002  -0.004   0.002  0.00  0.00    -0.017 A 
BRANCH  21  25
ATOM     25  O   UNL     1       3.548   2.104  -0.021  0.00  0.00    -0.406 OA
BRANCH  25  26
ATOM     26  C   UNL     1       4.756   1.341  -0.036  0.00  0.00    +0.575 C 
ATOM     27  F   UNL     1       4.787   0.540  -1.183  0.00  0.00    -0.133 F 
ATOM     28  F   UNL     1       5.855   2.207  -0.043  0.00  0.00    -0.133 F 
ATOM     29  F   UNL     1       4.810   0.528   1.101  0.00  0.00    -0.133 F 
ENDBRANCH  25  26
ENDBRANCH  21  25
ENDBRANCH  18  24
BRANCH  18  30
ATOM     30  O   UNL     1      -1.147  -1.962  -0.770  0.00  0.00    -0.386 OA
ATOM     31  H   UNL     1      -0.457  -2.560  -0.450  0.00  0.00    +0.210 HD
ENDBRANCH  18  30
ENDBRANCH  17  18
ENDBRANCH   1  17
TORSDOF 8
