REMARK  Name = ZINC34834878
REMARK  15 active torsions:
REMARK  status: ('A' for Active; 'I' for Inactive)
REMARK    1  A    between atoms: C_1  and  C_2
REMARK    2  A    between atoms: C_3  and  C_20
REMARK    3  A    between atoms: C_4  and  N_13
REMARK    4  A    between atoms: N_5  and  C_7
REMARK    5  A    between atoms: N_16  and  C_19
REMARK    6  A    between atoms: C_20  and  N_21
REMARK    7  A    between atoms: N_21  and  C_22
REMARK    8  A    between atoms: N_21  and  S_27
REMARK    9  A    between atoms: C_22  and  C_23
REMARK   10  A    between atoms: C_23  and  C_24
REMARK   11  A    between atoms: C_24  and  C_25
REMARK   12  A    between atoms: C_24  and  C_26
REMARK   13  A    between atoms: S_27  and  C_30
REMARK   14  A    between atoms: C_33  and  O_36
REMARK   15  A    between atoms: O_36  and  C_37
REMARK                            x       y       z     vdW  Elec       q    Type
REMARK                         _______ _______ _______ _____ _____    ______ ____
ROOT
ATOM      1  C   UNL     1       1.369   1.258  -0.686  0.00  0.00    +0.068 C 
ATOM      2  C   UNL     1       0.983  -0.177  -0.436  0.00  0.00    +0.067 A 
ATOM      3  C   UNL     1       0.219  -0.979  -1.289  0.00  0.00    +0.031 A 
ATOM      4  C   UNL     1       0.092  -2.204  -0.709  0.00  0.00    +0.129 A 
ATOM      5  N   UNL     1       0.761  -2.166   0.475  0.00  0.00    -0.218 N 
ATOM      6  N   UNL     1       1.312  -0.886   0.615  0.00  0.00    -0.170 NA
ENDROOT
BRANCH   4   7
ATOM      7  N   UNL     1      -0.596  -3.296  -1.232  0.00  0.00    -0.318 N 
ATOM      8  C   UNL     1      -2.050  -3.429  -1.054  0.00  0.00    +0.088 C 
ATOM      9  C   UNL     1      -2.683  -3.706  -2.422  0.00  0.00    -0.060 C 
ATOM     10  N   UNL     1      -2.037  -4.875  -3.031  0.00  0.00    +0.380 N 
ATOM     11  C   UNL     1      -0.624  -4.582  -3.302  0.00  0.00    -0.060 C 
ATOM     12  C   UNL     1       0.110  -4.345  -1.982  0.00  0.00    +0.088 C 
ATOM     13  C   UNL     1      -2.716  -5.207  -4.290  0.00  0.00    -0.096 C 
ATOM     14  H   UNL     1      -2.101  -5.660  -2.400  0.00  0.00    -0.082 HD
ENDBRANCH   4   7
BRANCH   5  15
ATOM     15  C   UNL     1       0.882  -3.221   1.390  0.00  0.00    +0.067 A 
ATOM     16  C   UNL     1      -0.221  -4.006   1.696  0.00  0.00    +0.028 A 
ATOM     17  C   UNL     1      -0.099  -5.045   2.598  0.00  0.00    +0.002 A 
ATOM     18  C   UNL     1       1.121  -5.304   3.196  0.00  0.00    +0.000 A 
ATOM     19  C   UNL     1       2.221  -4.524   2.893  0.00  0.00    +0.002 A 
ATOM     20  C   UNL     1       2.107  -3.487   1.988  0.00  0.00    +0.028 A 
ENDBRANCH   5  15
BRANCH   3  21
ATOM     21  C   UNL     1      -0.362  -0.560  -2.615  0.00  0.00    +0.149 C 
BRANCH  21  22
ATOM     22  N   UNL     1      -0.179   0.882  -2.795  0.00  0.00    -0.172 NA
BRANCH  22  23
ATOM     23  S   UNL     1      -1.428   1.922  -2.478  0.00  0.00    +0.061 S 
ATOM     24  O   UNL     1      -1.091   3.160  -3.089  0.00  0.00    -0.153 OA
ATOM     25  O   UNL     1      -2.626   1.222  -2.784  0.00  0.00    -0.153 OA
BRANCH  23  26
ATOM     26  C   UNL     1      -1.441   2.205  -0.739  0.00  0.00    +0.106 A 
ATOM     27  C   UNL     1      -2.071   1.307   0.102  0.00  0.00    +0.032 A 
ATOM     28  C   UNL     1      -2.082   1.527   1.466  0.00  0.00    +0.047 A 
ATOM     29  C   UNL     1      -1.462   2.651   1.991  0.00  0.00    +0.120 A 
ATOM     30  C   UNL     1      -0.830   3.551   1.145  0.00  0.00    +0.047 A 
ATOM     31  C   UNL     1      -0.817   3.324  -0.217  0.00  0.00    +0.032 A 
BRANCH  29  32
ATOM     32  O   UNL     1      -1.472   2.870   3.333  0.00  0.00    -0.495 OA
ATOM     33  C   UNL     1      -0.813   4.048   3.803  0.00  0.00    +0.277 C 
ENDBRANCH  29  32
ENDBRANCH  23  26
ENDBRANCH  22  23
BRANCH  22  34
ATOM     34  C   UNL     1       1.110   1.405  -3.256  0.00  0.00    +0.110 C 
BRANCH  34  35
ATOM     35  C   UNL     1       1.146   1.396  -4.785  0.00  0.00    +0.020 C 
BRANCH  35  36
ATOM     36  C   UNL     1       2.537   1.816  -5.265  0.00  0.00    -0.016 C 
ATOM     37  C   UNL     1       2.625   1.650  -6.784  0.00  0.00    +0.007 C 
ATOM     38  C   UNL     1       2.783   3.280  -4.897  0.00  0.00    +0.007 C 
ENDBRANCH  35  36
ENDBRANCH  34  35
ENDBRANCH  22  34
ENDBRANCH  21  22
ENDBRANCH   3  21
TORSDOF 10
