REMARK  Name = ZINC59247971
REMARK  7 active torsions:
REMARK  status: ('A' for Active; 'I' for Inactive)
REMARK    1  A    between atoms: C_1  and  C_2
REMARK    2  A    between atoms: C_4  and  C_20
REMARK    3  A    between atoms: C_5  and  C_19
REMARK    4  A    between atoms: N_6  and  C_7
REMARK    5  A    between atoms: C_9  and  C_16
REMARK    6  A    between atoms: C_11  and  C_13
REMARK    7  A    between atoms: N_26  and  C_27
REMARK                            x       y       z     vdW  Elec       q    Type
REMARK                         _______ _______ _______ _____ _____    ______ ____
ROOT
ATOM      1  C   UNL     1      -0.018   1.503   0.010  0.00  0.00    +0.064 C 
ATOM      2  C   UNL     1       0.002  -0.004   0.002  0.00  0.00    +0.022 A 
ATOM      3  C   UNL     1       0.008  -0.777  -1.098  0.00  0.00    +0.031 A 
ATOM      4  C   UNL     1       0.030  -2.169  -0.632  0.00  0.00    -0.003 A 
ATOM      5  C   UNL     1       0.035  -2.109   0.747  0.00  0.00    +0.028 A 
ATOM      6  N   UNL     1       0.023  -0.802   1.111  0.00  0.00    -0.317 N 
ATOM      7  C   UNL     1       0.056  -3.289   1.685  0.00  0.00    +0.064 C 
ENDROOT
BRANCH   4   8
ATOM      8  C   UNL     1       0.043  -3.378  -1.463  0.00  0.00    +0.030 C 
ATOM      9  C   UNL     1       0.035  -3.271  -2.818  0.00  0.00    +0.078 C 
ATOM     10  C   UNL     1       0.039  -4.331  -3.839  0.00  0.00    +0.256 C 
ATOM     11  O   UNL     1       0.050  -5.510  -3.531  0.00  0.00    -0.269 OA
ATOM     12  N   UNL     1       0.030  -3.949  -5.104  0.00  0.00    -0.260 N 
ATOM     13  C   UNL     1       0.017  -2.611  -5.433  0.00  0.00    +0.166 C 
ATOM     14  N   UNL     1       0.006  -2.061  -6.627  0.00  0.00    -0.226 NA
ATOM     15  S   UNL     1       0.010  -1.804  -3.839  0.00  0.00    -0.049 S 
ATOM     16  H   UNL     1       0.032  -4.616  -5.808  0.00  0.00    +0.157 HD
BRANCH  14  17
ATOM     17  C   UNL     1      -0.005  -0.699  -6.754  0.00  0.00    +0.068 A 
ATOM     18  C   UNL     1      -0.857   0.072  -5.960  0.00  0.00    +0.028 A 
ATOM     19  C   UNL     1      -0.864   1.445  -6.092  0.00  0.00    +0.003 A 
ATOM     20  C   UNL     1      -0.030   2.059  -7.010  0.00  0.00    +0.020 A 
ATOM     21  C   UNL     1       0.817   1.302  -7.800  0.00  0.00    +0.043 A 
ATOM     22  C   UNL     1       0.839  -0.073  -7.673  0.00  0.00    +0.047 A 
ATOM     23 CL   UNL     1       1.859   2.082  -8.948  0.00  0.00    -0.083 Cl
ENDBRANCH  14  17
ENDBRANCH   4   8
BRANCH   6  24
ATOM     24  C   UNL     1       0.029  -0.337   2.434  0.00  0.00    +0.048 A 
ATOM     25  C   UNL     1       1.132  -0.566   3.243  0.00  0.00    +0.041 A 
ATOM     26  C   UNL     1       1.141  -0.104   4.562  0.00  0.00    +0.066 A 
ATOM     27  C   UNL     1       0.040   0.589   5.064  0.00  0.00    +0.030 A 
ATOM     28  C   UNL     1      -1.067   0.817   4.247  0.00  0.00    +0.066 A 
ATOM     29  C   UNL     1      -1.066   0.356   2.928  0.00  0.00    +0.041 A 
BRANCH  28  30
ATOM     30  C   UNL     1      -2.235   1.548   4.774  0.00  0.00    +0.387 C 
ATOM     31  O   UNL     1      -2.233   1.955   5.927  0.00  0.00    -0.241 OA
ATOM     32  O   UNL     1      -3.206   1.748   4.057  0.00  0.00    -0.241 OA
ENDBRANCH  28  30
BRANCH  26  33
ATOM     33  C   UNL     1       2.315  -0.348   5.422  0.00  0.00    +0.387 C 
ATOM     34  O   UNL     1       3.280  -0.956   4.981  0.00  0.00    -0.241 OA
ATOM     35  O   UNL     1       2.323   0.056   6.576  0.00  0.00    -0.241 OA
ENDBRANCH  26  33
ENDBRANCH   6  24
TORSDOF 5
