REMARK  Name = ZINC01342469
REMARK  12 active torsions:
REMARK  status: ('A' for Active; 'I' for Inactive)
REMARK    1  A    between atoms: C_1  and  C_2
REMARK    2  A    between atoms: C_2  and  N_3
REMARK    3  A    between atoms: C_4  and  C_26
REMARK    4  A    between atoms: C_7  and  S_8
REMARK    5  A    between atoms: S_8  and  C_9
REMARK    6  A    between atoms: C_9  and  C_10
REMARK    7  A    between atoms: N_12  and  C_13
REMARK    8  A    between atoms: C_16  and  N_19
REMARK    9  A    between atoms: C_20  and  C_22
REMARK   10  A    between atoms: C_22  and  C_23
REMARK   11  A    between atoms: C_22  and  C_24
REMARK   12  A    between atoms: C_22  and  C_25
REMARK                            x       y       z     vdW  Elec       q    Type
REMARK                         _______ _______ _______ _____ _____    ______ ____
ROOT
ATOM      1  C   UNL     1       3.708  10.716  -0.309  0.00  0.00    +0.227 C 
ATOM      2  O   UNL     1       4.809  10.497  -0.768  0.00  0.00    -0.275 OA
ATOM      3  N   UNL     1       3.366  11.968   0.055  0.00  0.00    -0.285 N 
ATOM      4  H   UNL     1       2.463  12.157   0.353  0.00  0.00    +0.155 HD
ENDROOT
BRANCH   3   5
ATOM      5  C   UNL     1       4.316  12.996   0.004  0.00  0.00    +0.034 A 
ATOM      6  C   UNL     1       5.651  12.722   0.273  0.00  0.00    +0.025 A 
ATOM      7  C   UNL     1       6.588  13.735   0.218  0.00  0.00    +0.025 A 
ATOM      8  C   UNL     1       6.194  15.029  -0.096  0.00  0.00    +0.034 A 
ATOM      9  C   UNL     1       4.858  15.303  -0.360  0.00  0.00    +0.025 A 
ATOM     10  C   UNL     1       3.922  14.290  -0.309  0.00  0.00    +0.025 A 
BRANCH   8  11
ATOM     11  N   UNL     1       7.144  16.057  -0.147  0.00  0.00    -0.285 N 
ATOM     12  C   UNL     1       8.387  15.804  -0.601  0.00  0.00    +0.223 C 
ATOM     13  O   UNL     1       8.709  14.670  -0.886  0.00  0.00    -0.275 OA
ATOM     14  H   UNL     1       6.906  16.951   0.144  0.00  0.00    +0.155 HD
BRANCH  12  15
ATOM     15  C   UNL     1       9.377  16.929  -0.754  0.00  0.00    +0.039 C 
ATOM     16  C   UNL     1      10.702  16.375  -1.282  0.00  0.00    +0.020 C 
ATOM     17  C   UNL     1       8.827  17.962  -1.740  0.00  0.00    +0.020 C 
ATOM     18  C   UNL     1       9.608  17.594   0.605  0.00  0.00    +0.020 C 
ENDBRANCH  12  15
ENDBRANCH   8  11
ENDBRANCH   3   5
BRANCH   1  19
ATOM     19  C   UNL     1       2.722   9.588  -0.146  0.00  0.00    +0.173 C 
BRANCH  19  20
ATOM     20  S   UNL     1       3.471   8.044  -0.720  0.00  0.00    -0.077 S 
BRANCH  20  25
ATOM     21  N   UNL     1       2.138   5.584  -0.669  0.00  0.00    -0.302 N 
ATOM     22  C   UNL     1       0.893   5.138  -0.285  0.00  0.00    +0.171 A 
ATOM     23  N   UNL     1       0.232   6.182   0.163  0.00  0.00    -0.128 NA
ATOM     24  N   UNL     1       0.965   7.234   0.080  0.00  0.00    -0.122 NA
ATOM     25  C   UNL     1       2.139   6.929  -0.423  0.00  0.00    +0.192 A 
BRANCH  22  26
ATOM     26  C   UNL     1       0.399   3.753  -0.355  0.00  0.00    +0.056 A 
ATOM     27  C   UNL     1      -0.888   3.288  -0.252  0.00  0.00    +0.019 A 
ATOM     28  C   UNL     1      -1.111   1.933  -0.357  0.00  0.00    +0.008 A 
ATOM     29  C   UNL     1      -0.055   1.101  -0.547  0.00  0.00    +0.046 A 
ATOM     30  S   UNL     1       1.317   2.241  -0.598  0.00  0.00    -0.094 S 
ENDBRANCH  22  26
BRANCH  21  32
ATOM     31  C   UNL     1       3.114   4.752  -2.751  0.00  0.00    +0.027 C 
ATOM     32  C   UNL     1       3.232   4.784  -1.226  0.00  0.00    +0.122 C 
ENDBRANCH  21  32
ENDBRANCH  20  25
ENDBRANCH  19  20
ENDBRANCH   1  19
TORSDOF 8
