REMARK  Name = ZINC21673092
REMARK  7 active torsions:
REMARK  status: ('A' for Active; 'I' for Inactive)
REMARK    1  A    between atoms: C_1  and  O_2
REMARK    2  A    between atoms: O_2  and  C_3
REMARK    3  A    between atoms: C_6  and  C_9
REMARK    4  A    between atoms: N_16  and  C_17
REMARK    5  A    between atoms: C_17  and  C_18
REMARK    6  A    between atoms: N_20  and  C_21
REMARK    7  A    between atoms: C_22  and  C_28
REMARK                            x       y       z     vdW  Elec       q    Type
REMARK                         _______ _______ _______ _____ _____    ______ ____
ROOT
ATOM      1  C   UNL     1      -4.755   8.031  -0.392  0.00  0.00    -0.037 C 
ATOM      2  C   UNL     1      -4.540   9.479  -0.884  0.00  0.00    -0.011 C 
ATOM      3  C   UNL     1      -4.041  10.320   0.263  0.00  0.00    -0.001 C 
ATOM      4  C   UNL     1      -2.502  10.392   0.320  0.00  0.00    -0.002 C 
ATOM      5  C   UNL     1      -1.851   9.028   0.031  0.00  0.00    -0.019 C 
ATOM      6  C   UNL     1      -2.598   7.902   0.701  0.00  0.00    -0.077 C 
ATOM      7  N   UNL     1      -3.547   7.337  -0.279  0.00  0.00    +0.390 N 
ATOM      8  H   UNL     1      -3.109   7.486  -1.277  0.00  0.00    -0.080 HD
ENDROOT
BRANCH   1  12
ATOM      9  C   UNL     1      -7.288   5.981  -3.157  0.00  0.00    +0.120 A 
ATOM     10  C   UNL     1      -7.823   6.533  -2.002  0.00  0.00    +0.046 A 
ATOM     11  C   UNL     1      -7.002   7.195  -1.109  0.00  0.00    +0.005 A 
ATOM     12  C   UNL     1      -5.648   7.309  -1.367  0.00  0.00    -0.061 A 
ATOM     13  C   UNL     1      -5.113   6.765  -2.520  0.00  0.00    +0.005 A 
ATOM     14  C   UNL     1      -5.929   6.097  -3.413  0.00  0.00    +0.046 A 
BRANCH   9  16
ATOM     15  C   UNL     1      -7.473   4.787  -5.204  0.00  0.00    +0.277 C 
ATOM     16  O   UNL     1      -8.093   5.329  -4.036  0.00  0.00    -0.495 OA
ENDBRANCH   9  16
ENDBRANCH   1  12
BRANCH   7  17
ATOM     17  C   UNL     1      -3.783   5.910  -0.021  0.00  0.00    +0.020 C 
BRANCH  17  18
ATOM     18  C   UNL     1      -2.484   5.156  -0.149  0.00  0.00    +0.201 C 
ATOM     19  O   UNL     1      -1.464   5.749  -0.427  0.00  0.00    -0.278 OA
ATOM     20  N   UNL     1      -2.458   3.823   0.046  0.00  0.00    -0.285 N 
ATOM     21  H   UNL     1      -3.395   3.273   0.218  0.00  0.00    +0.155 HD
BRANCH  20  22
ATOM     22  C   UNL     1      -1.237   3.137   0.031  0.00  0.00    +0.064 A 
ATOM     23  C   UNL     1      -0.581   2.856   1.222  0.00  0.00    +0.077 A 
ATOM     24  C   UNL     1       0.626   2.185   1.202  0.00  0.00    +0.014 A 
ATOM     25  C   UNL     1       1.176   1.782  -0.001  0.00  0.00    +0.002 A 
ATOM     26  C   UNL     1       0.523   2.055  -1.189  0.00  0.00    +0.022 A 
ATOM     27  C   UNL     1      -0.682   2.732  -1.177  0.00  0.00    +0.063 A 
ATOM     28 CL   UNL     1      -1.501   3.073  -2.669  0.00  0.00    -0.082 Cl
BRANCH  23  29
ATOM     29  C   UNL     1      -1.183   3.289   2.534  0.00  0.00    +0.419 C 
ATOM     30  F   UNL     1      -0.342   2.902   3.583  0.00  0.00    -0.166 F 
ATOM     31  F   UNL     1      -1.329   4.681   2.544  0.00  0.00    -0.166 F 
ATOM     32  F   UNL     1      -2.435   2.687   2.694  0.00  0.00    -0.166 F 
ENDBRANCH  23  29
ENDBRANCH  20  22
ENDBRANCH  17  18
ENDBRANCH   7  17
TORSDOF 6
