REMARK  Name = ZINC52803254
REMARK  8 active torsions:
REMARK  status: ('A' for Active; 'I' for Inactive)
REMARK    1  A    between atoms: C_3  and  S_24
REMARK    2  A    between atoms: C_6  and  C_7
REMARK    3  A    between atoms: C_7  and  C_8
REMARK    4  A    between atoms: C_8  and  N_9
REMARK    5  A    between atoms: C_10  and  C_12
REMARK    6  A    between atoms: C_12  and  N_13
REMARK    7  A    between atoms: C_17  and  C_19
REMARK    8  A    between atoms: S_24  and  N_27
REMARK                            x       y       z     vdW  Elec       q    Type
REMARK                         _______ _______ _______ _____ _____    ______ ____
ROOT
ATOM      1  N   UNL     1      -3.004  -1.778  -1.420  0.00  0.00    -0.317 N 
ATOM      2  C   UNL     1      -3.594  -2.117  -2.584  0.00  0.00    +0.196 C 
ATOM      3  O   UNL     1      -3.084  -1.801  -3.637  0.00  0.00    -0.278 OA
ATOM      4  H   UNL     1      -3.412  -2.031  -0.578  0.00  0.00    +0.149 HD
ENDROOT
BRANCH   1   5
ATOM      5  C   UNL     1      -1.745  -1.028  -1.429  0.00  0.00    +0.109 C 
BRANCH   5   6
ATOM      6  C   UNL     1      -1.293  -0.775   0.011  0.00  0.00    +0.054 C 
BRANCH   6  12
ATOM      7  C   UNL     1      -0.017   1.378   0.010  0.00  0.00    +0.005 A 
ATOM      8  C   UNL     1       1.171   2.086   0.002  0.00  0.00    +0.029 A 
ATOM      9  C   UNL     1       2.377   1.411  -0.013  0.00  0.00    +0.105 A 
ATOM     10  C   UNL     1       2.396   0.029  -0.020  0.00  0.00    +0.029 A 
ATOM     11  C   UNL     1       1.208  -0.679  -0.012  0.00  0.00    +0.005 A 
ATOM     12  C   UNL     1       0.002  -0.004   0.002  0.00  0.00    -0.046 A 
BRANCH   9  13
ATOM     13  S   UNL     1       3.891   2.312  -0.024  0.00  0.00    +0.056 S 
ATOM     14  O   UNL     1       4.872   1.453  -0.588  0.00  0.00    -0.153 OA
ATOM     15  O   UNL     1       3.597   3.593  -0.566  0.00  0.00    -0.153 OA
BRANCH  13  16
ATOM     16  N   UNL     1       4.327   2.556   1.555  0.00  0.00    -0.204 NA
ATOM     17  H   UNL     1       5.265   2.623   1.794  0.00  0.00    +0.144 HD
ATOM     18  H   UNL     1       3.645   2.631   2.241  0.00  0.00    +0.144 HD
ENDBRANCH  13  16
ENDBRANCH   9  13
ENDBRANCH   6  12
ENDBRANCH   5   6
ENDBRANCH   1   5
BRANCH   2  19
ATOM     19  C   UNL     1      -4.889  -2.888  -2.575  0.00  0.00    +0.019 C 
BRANCH  19  20
ATOM     20  N   UNL     1      -5.323  -3.131  -3.957  0.00  0.00    +0.390 N 
ATOM     21  C   UNL     1      -4.361  -4.029  -4.630  0.00  0.00    -0.077 C 
ATOM     22  C   UNL     1      -4.971  -5.446  -4.480  0.00  0.00    -0.020 C 
ATOM     23  C   UNL     1      -6.486  -5.153  -4.638  0.00  0.00    -0.013 C 
ATOM     24  C   UNL     1      -6.648  -3.779  -3.954  0.00  0.00    -0.037 C 
ATOM     25  H   UNL     1      -5.375  -2.256  -4.457  0.00  0.00    -0.080 HD
BRANCH  24  26
ATOM     26  C   UNL     1      -7.632  -2.937  -4.723  0.00  0.00    -0.054 A 
ATOM     27  C   UNL     1      -8.927  -2.777  -4.266  0.00  0.00    +0.009 A 
ATOM     28  C   UNL     1      -9.787  -2.012  -4.981  0.00  0.00    +0.045 A 
ATOM     29  S   UNL     1      -8.767  -1.489  -6.349  0.00  0.00    -0.105 S 
ATOM     30  C   UNL     1      -7.260  -2.319  -5.871  0.00  0.00    +0.047 A 
ENDBRANCH  24  26
ENDBRANCH  19  20
ENDBRANCH   2  19
TORSDOF 8
