REMARK  Name = ZINC50397424
REMARK  3 active torsions:
REMARK  status: ('A' for Active; 'I' for Inactive)
REMARK    1  A    between atoms: C_3  and  N_9
REMARK    2  A    between atoms: C_10  and  C_12
REMARK    3  A    between atoms: C_18  and  C_20
REMARK                            x       y       z     vdW  Elec       q    Type
REMARK                         _______ _______ _______ _____ _____    ______ ____
ROOT
ATOM      1  N   UNL     1       3.476   2.060  -1.284  0.00  0.00    -0.304 N 
ATOM      2  C   UNL     1       4.188   2.169  -2.424  0.00  0.00    +0.218 C 
ATOM      3  O   UNL     1       3.632   2.072  -3.497  0.00  0.00    -0.275 OA
ATOM      4  H   UNL     1       3.921   2.137  -0.426  0.00  0.00    +0.149 HD
ENDROOT
BRANCH   1   7
ATOM      5  C   UNL     1      -0.070   1.842  -0.015  0.00  0.00    +0.021 C 
ATOM      6  C   UNL     1       1.379   2.342  -0.059  0.00  0.00    +0.033 C 
ATOM      7  C   UNL     1       2.032   1.823  -1.343  0.00  0.00    +0.159 C 
ATOM      8  C   UNL     1       1.774   0.351  -1.487  0.00  0.00    +0.233 C 
ATOM      9  O   UNL     1       2.472  -0.282  -2.252  0.00  0.00    -0.274 OA
ATOM     10  N   UNL     1       0.821  -0.299  -0.819  0.00  0.00    -0.314 N 
ATOM     11  C   UNL     1      -0.058   0.323   0.163  0.00  0.00    +0.104 C 
ATOM     12  H   UNL     1       0.704  -1.245  -0.998  0.00  0.00    +0.149 HD
ENDBRANCH   1   7
BRANCH   2  13
ATOM     13  C   UNL     1       5.674   2.413  -2.364  0.00  0.00    +0.093 C 
ATOM     14  C   UNL     1       6.110   3.234  -3.579  0.00  0.00    +0.040 C 
ATOM     15  C   UNL     1       6.018   2.403  -4.825  0.00  0.00    -0.030 C 
ATOM     16  C   UNL     1       5.937   1.111  -4.831  0.00  0.00    -0.030 C 
ATOM     17  C   UNL     1       5.915   0.265  -3.592  0.00  0.00    +0.042 C 
ATOM     18  C   UNL     1       6.417   1.071  -2.388  0.00  0.00    +0.118 C 
BRANCH  18  19
ATOM     19  C   UNL     1       6.142   0.316  -1.113  0.00  0.00    +0.360 C 
ATOM     20  O   UNL     1       6.142  -0.903  -1.114  0.00  0.00    -0.246 OA
ATOM     21  O   UNL     1       5.920   0.925  -0.080  0.00  0.00    -0.246 OA
ENDBRANCH  18  19
ENDBRANCH   2  13
TORSDOF 3
