REMARK  Name = ZINC43262106
REMARK  10 active torsions:
REMARK  status: ('A' for Active; 'I' for Inactive)
REMARK    1  A    between atoms: C_1  and  C_2
REMARK    2  A    between atoms: C_2  and  C_4
REMARK    3  A    between atoms: C_2  and  N_20
REMARK    4  A    between atoms: C_4  and  C_6
REMARK    5  A    between atoms: C_4  and  N_12
REMARK    6  A    between atoms: N_12  and  C_13
REMARK    7  A    between atoms: N_12  and  C_17
REMARK    8  A    between atoms: C_13  and  C_14
REMARK    9  A    between atoms: C_14  and  O_15
REMARK   10  A    between atoms: O_15  and  C_16
REMARK                            x       y       z     vdW  Elec       q    Type
REMARK                         _______ _______ _______ _____ _____    ______ ____
ROOT
ATOM      1  C   UNL     1       0.648  -0.315   1.297  0.00  0.00    -0.014 C 
ENDROOT
BRANCH   1   2
ATOM      2  C   UNL     1       2.103   0.070   1.362  0.00  0.00    -0.021 A 
ATOM      3  C   UNL     1       3.187  -0.611   0.917  0.00  0.00    +0.011 A 
ATOM      4  C   UNL     1       4.443  -0.058   1.086  0.00  0.00    +0.023 A 
ATOM      5  C   UNL     1       4.552   1.151   1.692  0.00  0.00    +0.055 A 
ATOM      6  S   UNL     1       2.846   1.546   2.038  0.00  0.00    -0.088 S 
ATOM      7 BR   UNL     1       6.108   2.159   2.065  0.00  0.00    -0.043 Br
ENDBRANCH   1   2
BRANCH   1   9
ATOM      8  C   UNL     1      -0.010   1.914   0.381  0.00  0.00    +0.022 C 
ATOM      9  C   UNL     1      -0.019   0.406   0.124  0.00  0.00    +0.039 C 
BRANCH   9  10
ATOM     10  N   UNL     1       0.720   0.116  -1.113  0.00  0.00    -0.329 NA
ATOM     11  H   UNL     1       0.263   0.528  -1.912  0.00  0.00    +0.118 HD
ATOM     12  H   UNL     1       1.677   0.427  -1.043  0.00  0.00    +0.118 HD
ENDBRANCH   9  10
ENDBRANCH   1   9
BRANCH   1  13
ATOM     13  N   UNL     1      -0.017   0.070   2.550  0.00  0.00    +0.389 N 
ATOM     14  H   UNL     1      -0.025   1.076   2.631  0.00  0.00    -0.080 HD
BRANCH  13  15
ATOM     15  C   UNL     1      -1.397  -0.433   2.546  0.00  0.00    -0.068 C 
ATOM     16  C   UNL     1      -2.522   0.592   2.382  0.00  0.00    -0.017 C 
ATOM     17  C   UNL     1      -2.284  -0.072   3.740  0.00  0.00    -0.017 C 
ENDBRANCH  13  15
BRANCH  13  18
ATOM     18  C   UNL     1       0.711  -0.507   3.688  0.00  0.00    -0.049 C 
BRANCH  18  19
ATOM     19  C   UNL     1       0.591  -2.032   3.650  0.00  0.00    +0.141 C 
BRANCH  19  20
ATOM     20  O   UNL     1       1.301  -2.538   2.518  0.00  0.00    -0.385 OA
ATOM     21  C   UNL     1       1.164  -3.948   2.329  0.00  0.00    +0.193 C 
ENDBRANCH  19  20
ENDBRANCH  18  19
ENDBRANCH  13  18
ENDBRANCH   1  13
TORSDOF 8
