REMARK  Name = ZINC50361775
REMARK  9 active torsions:
REMARK  status: ('A' for Active; 'I' for Inactive)
REMARK    1  A    between atoms: C_1  and  C_2
REMARK    2  A    between atoms: C_2  and  C_3
REMARK    3  A    between atoms: C_2  and  C_4
REMARK    4  A    between atoms: C_4  and  N_5
REMARK    5  A    between atoms: N_5  and  C_6
REMARK    6  A    between atoms: N_5  and  C_7
REMARK    7  A    between atoms: C_7  and  C_9
REMARK    8  A    between atoms: C_7  and  C_11
REMARK    9  A    between atoms: C_9  and  N_10
REMARK                            x       y       z     vdW  Elec       q    Type
REMARK                         _______ _______ _______ _____ _____    ______ ____
ROOT
ATOM      1  C   UNL     1      -2.772  -2.577   0.368  0.00  0.00    +0.105 C 
ENDROOT
BRANCH   1   2
ATOM      2  C   UNL     1      -3.944  -2.326  -0.545  0.00  0.00    +0.123 A 
ATOM      3  C   UNL     1      -5.153  -1.873  -0.166  0.00  0.00    +0.062 A 
ATOM      4  C   UNL     1      -5.943  -1.785  -1.336  0.00  0.00    +0.070 A 
ATOM      5  C   UNL     1      -5.168  -2.191  -2.360  0.00  0.00    +0.184 A 
ATOM      6  O   UNL     1      -3.958  -2.513  -1.875  0.00  0.00    -0.450 OA
ATOM      7 BR   UNL     1      -5.694  -2.286  -4.174  0.00  0.00    -0.007 Br
ATOM      8 BR   UNL     1      -7.741  -1.210  -1.441  0.00  0.00    -0.046 Br
ENDBRANCH   1   2
BRANCH   1   9
ATOM      9  N   UNL     1      -1.563  -1.975  -0.210  0.00  0.00    -0.297 NA
ATOM     10  C   UNL     1      -1.243  -2.580  -1.510  0.00  0.00    +0.105 C 
BRANCH   9  11
ATOM     11  C   UNL     1      -1.707  -0.517  -0.330  0.00  0.00    +0.087 C 
BRANCH  11  13
ATOM     12  C   UNL     1      -0.476   1.625  -0.704  0.00  0.00    +0.008 C 
ATOM     13  C   UNL     1      -0.323   0.123  -0.455  0.00  0.00    -0.003 C 
ATOM     14  C   UNL     1       0.462  -0.102   0.839  0.00  0.00    +0.008 C 
ENDBRANCH  11  13
ENDBRANCH   9  11
ENDBRANCH   1   9
BRANCH   1  15
ATOM     15  C   UNL     1      -2.563  -4.084   0.529  0.00  0.00    -0.059 C 
BRANCH  15  16
ATOM     16  N   UNL     1      -1.368  -4.329   1.347  0.00  0.00    +0.379 N 
ATOM     17  H   UNL     1      -0.575  -3.865   0.931  0.00  0.00    -0.090 HD
ATOM     18  H   UNL     1      -1.518  -3.969   2.278  0.00  0.00    -0.090 HD
ATOM     19  H   UNL     1      -1.191  -5.321   1.395  0.00  0.00    -0.090 HD
ENDBRANCH  15  16
ENDBRANCH   1  15
TORSDOF 6
