REMARK  Name = ZINC08768010
REMARK  10 active torsions:
REMARK  status: ('A' for Active; 'I' for Inactive)
REMARK    1  A    between atoms: C_1  and  C_2
REMARK    2  A    between atoms: C_2  and  C_3
REMARK    3  A    between atoms: C_6  and  N_9
REMARK    4  A    between atoms: C_10  and  C_12
REMARK    5  A    between atoms: C_12  and  C_14
REMARK    6  A    between atoms: C_12  and  N_19
REMARK    7  A    between atoms: C_14  and  C_16
REMARK    8  A    between atoms: C_14  and  C_17
REMARK    9  A    between atoms: C_17  and  C_18
REMARK   10  A    between atoms: C_20  and  C_22
REMARK                            x       y       z     vdW  Elec       q    Type
REMARK                         _______ _______ _______ _____ _____    ______ ____
ROOT
ATOM      1  C   UNL     1       2.422  -4.249  -0.253  0.00  0.00    +0.162 C 
ENDROOT
BRANCH   1   3
ATOM      2  N   UNL     1       1.250  -2.159   0.361  0.00  0.00    -0.284 N 
ATOM      3  C   UNL     1       2.370  -2.751  -0.098  0.00  0.00    +0.238 C 
ATOM      4  O   UNL     1       3.337  -2.078  -0.386  0.00  0.00    -0.273 OA
ATOM      5  H   UNL     1       0.496  -2.700   0.644  0.00  0.00    +0.155 HD
BRANCH   2   9
ATOM      6  C   UNL     1       1.021   1.996   0.561  0.00  0.00    -0.048 A 
ATOM      7  C   UNL     1       1.741   1.393  -0.453  0.00  0.00    +0.005 A 
ATOM      8  C   UNL     1       1.819   0.016  -0.522  0.00  0.00    +0.023 A 
ATOM      9  C   UNL     1       1.173  -0.763   0.428  0.00  0.00    +0.033 A 
ATOM     10  C   UNL     1       0.450  -0.155   1.446  0.00  0.00    +0.023 A 
ATOM     11  C   UNL     1       0.376   1.223   1.510  0.00  0.00    +0.005 A 
BRANCH   6  13
ATOM     12  C   UNL     1      -0.273   3.982  -0.167  0.00  0.00    +0.009 C 
ATOM     13  C   UNL     1       0.938   3.499   0.634  0.00  0.00    +0.032 C 
ENDBRANCH   6  13
ENDBRANCH   2   9
ENDBRANCH   1   3
BRANCH   1  14
ATOM     14  N   UNL     1       3.819  -4.691  -0.263  0.00  0.00    -0.305 N 
ATOM     15  C   UNL     1       4.130  -5.948   0.110  0.00  0.00    +0.200 C 
ATOM     16  O   UNL     1       3.255  -6.713   0.455  0.00  0.00    -0.278 OA
ATOM     17  H   UNL     1       4.519  -4.079  -0.538  0.00  0.00    +0.149 HD
BRANCH  15  18
ATOM     18  C   UNL     1       5.567  -6.403   0.100  0.00  0.00    +0.021 C 
ATOM     19  C   UNL     1       5.980  -6.767  -1.327  0.00  0.00    +0.028 C 
ATOM     20  C   UNL     1       7.324  -7.449  -1.315  0.00  0.00    -0.047 A 
ATOM     21  C   UNL     1       8.031  -7.538  -2.505  0.00  0.00    +0.004 A 
ATOM     22  C   UNL     1       9.264  -8.158  -2.539  0.00  0.00    +0.000 A 
ATOM     23  C   UNL     1       9.797  -8.693  -1.381  0.00  0.00    +0.000 A 
ATOM     24  C   UNL     1       9.095  -8.603  -0.196  0.00  0.00    +0.002 A 
ATOM     25  C   UNL     1       7.857  -7.979  -0.159  0.00  0.00    -0.061 A 
ATOM     26  C   UNL     1       7.133  -7.897   1.159  0.00  0.00    -0.045 C 
ATOM     27  N   UNL     1       5.710  -7.599   0.950  0.00  0.00    +0.389 N 
ATOM     28  H   UNL     1       5.258  -8.399   0.491  0.00  0.00    -0.084 HD
ATOM     29  H   UNL     1       5.261  -7.427   1.858  0.00  0.00    -0.084 HD
ENDBRANCH  15  18
ENDBRANCH   1  14
BRANCH   1  30
ATOM     30  C   UNL     1       1.751  -4.649  -1.568  0.00  0.00    +0.015 C 
ATOM     31  C   UNL     1       0.271  -4.262  -1.524  0.00  0.00    +0.010 C 
BRANCH  30  32
ATOM     32  C   UNL     1       2.433  -3.925  -2.730  0.00  0.00    +0.002 C 
ATOM     33  C   UNL     1       1.846  -4.418  -4.054  0.00  0.00    +0.004 C 
ENDBRANCH  30  32
ENDBRANCH   1  30
TORSDOF 7
