REMARK  Name = ZINC04017545
REMARK  6 active torsions:
REMARK  status: ('A' for Active; 'I' for Inactive)
REMARK    1  A    between atoms: C_4  and  O_29
REMARK    2  A    between atoms: C_5  and  C_7
REMARK    3  A    between atoms: N_8  and  N_9
REMARK    4  A    between atoms: C_10  and  S_12
REMARK    5  A    between atoms: S_12  and  C_13
REMARK    6  A    between atoms: N_18  and  C_21
REMARK                            x       y       z     vdW  Elec       q    Type
REMARK                         _______ _______ _______ _____ _____    ______ ____
ROOT
ATOM      1  N   UNL     1       2.412  -4.186  -0.045  0.00  0.00    -0.217 N 
ATOM      2  C   UNL     1       3.616  -4.852  -0.060  0.00  0.00    +0.146 C 
ATOM      3  N   UNL     1       4.734  -4.178  -0.067  0.00  0.00    -0.380 N 
ATOM      4  H   UNL     1       1.581  -4.686  -0.039  0.00  0.00    +0.176 HD
ATOM      5  H   UNL     1       5.583  -4.648  -0.078  0.00  0.00    +0.158 HD
ATOM      6  H   UNL     1       4.716  -3.209  -0.061  0.00  0.00    +0.158 HD
ENDROOT
BRANCH   1   8
ATOM      7  C   UNL     1       1.250  -2.157  -0.022  0.00  0.00    +0.141 C 
ATOM      8  N   UNL     1       2.385  -2.785  -0.036  0.00  0.00    -0.188 NA
BRANCH   7  13
ATOM      9  C   UNL     1      -0.017   1.375   0.010  0.00  0.00    +0.001 A 
ATOM     10  C   UNL     1       1.169   2.089   0.002  0.00  0.00    +0.004 A 
ATOM     11  C   UNL     1       2.383   1.428  -0.013  0.00  0.00    +0.046 A 
ATOM     12  C   UNL     1       2.420   0.043  -0.021  0.00  0.00    +0.125 A 
ATOM     13  C   UNL     1       1.222  -0.684  -0.013  0.00  0.00    +0.036 A 
ATOM     14  C   UNL     1       0.002  -0.004   0.002  0.00  0.00    +0.013 A 
BRANCH  12  15
ATOM     15  O   UNL     1       3.612  -0.607  -0.036  0.00  0.00    -0.506 OA
ATOM     16  H   UNL     1       3.966  -0.800   0.843  0.00  0.00    +0.292 HD
ENDBRANCH  12  15
ENDBRANCH   7  13
ENDBRANCH   1   8
BRANCH   2  17
ATOM     17  S   UNL     1       3.649  -6.614  -0.070  0.00  0.00    -0.078 S 
BRANCH  17  18
ATOM     18  C   UNL     1       5.417  -7.019  -0.090  0.00  0.00    +0.149 C 
ATOM     19  C   UNL     1       5.624  -8.546  -0.029  0.00  0.00    +0.120 C 
ATOM     20  C   UNL     1       6.340  -8.860  -1.324  0.00  0.00    +0.228 C 
ATOM     21  O   UNL     1       6.696  -9.962  -1.681  0.00  0.00    -0.275 OA
ATOM     22  N   UNL     1       6.519  -7.726  -2.014  0.00  0.00    -0.208 N 
ATOM     23  C   UNL     1       6.039  -6.626  -1.412  0.00  0.00    +0.240 C 
ATOM     24  O   UNL     1       6.093  -5.499  -1.855  0.00  0.00    -0.274 OA
BRANCH  22  25
ATOM     25  C   UNL     1       7.156  -7.689  -3.262  0.00  0.00    +0.064 A 
ATOM     26  C   UNL     1       6.414  -7.830  -4.427  0.00  0.00    +0.045 A 
ATOM     27  C   UNL     1       7.045  -7.794  -5.656  0.00  0.00    +0.043 A 
ATOM     28  C   UNL     1       8.416  -7.617  -5.726  0.00  0.00    +0.021 A 
ATOM     29  C   UNL     1       9.158  -7.476  -4.568  0.00  0.00    +0.023 A 
ATOM     30  C   UNL     1       8.531  -7.507  -3.336  0.00  0.00    +0.063 A 
ATOM     31 CL   UNL     1       9.463  -7.323  -1.883  0.00  0.00    -0.082 Cl
ATOM     32 CL   UNL     1       6.118  -7.970  -7.113  0.00  0.00    -0.083 Cl
ENDBRANCH  22  25
ENDBRANCH  17  18
ENDBRANCH   2  17
TORSDOF 6
