REMARK  Name = ZINC59170512
REMARK  7 active torsions:
REMARK  status: ('A' for Active; 'I' for Inactive)
REMARK    1  A    between atoms: C_1  and  O_2
REMARK    2  A    between atoms: O_2  and  C_3
REMARK    3  A    between atoms: C_7  and  N_9
REMARK    4  A    between atoms: C_10  and  C_12
REMARK    5  A    between atoms: N_22  and  C_23
REMARK    6  A    between atoms: C_26  and  S_29
REMARK    7  A    between atoms: S_29  and  N_32
REMARK                            x       y       z     vdW  Elec       q    Type
REMARK                         _______ _______ _______ _____ _____    ______ ____
ROOT
ATOM      1  C   UNL     1      -3.774  -6.132   0.285  0.00  0.00    +0.098 A 
ATOM      2  C   UNL     1      -4.994  -6.794   0.283  0.00  0.00    +0.030 A 
ATOM      3  C   UNL     1      -4.966  -8.258   0.341  0.00  0.00    +0.020 A 
ATOM      4  C   UNL     1      -6.118  -9.007   0.075  0.00  0.00    +0.031 A 
ATOM      5  C   UNL     1      -6.063 -10.383   0.133  0.00  0.00    +0.042 A 
ATOM      6  C   UNL     1      -4.874 -11.025   0.452  0.00  0.00    +0.023 A 
ATOM      7  C   UNL     1      -3.731 -10.299   0.717  0.00  0.00    +0.048 A 
ATOM      8  C   UNL     1      -3.763  -8.913   0.666  0.00  0.00    +0.138 A 
ATOM      9  O   UNL     1      -2.650  -8.187   0.931  0.00  0.00    -0.439 OA
ATOM     10  C   UNL     1      -2.556  -6.965   0.340  0.00  0.00    +0.212 A 
ATOM     11  N   UNL     1      -1.418  -6.538  -0.162  0.00  0.00    -0.325 N 
ATOM     12 CL   UNL     1      -7.489 -11.318  -0.194  0.00  0.00    -0.084 Cl
ATOM     13  H   UNL     1      -1.393  -5.713  -0.672  0.00  0.00    +0.169 HD
ENDROOT
BRANCH  11  14
ATOM     14  C   UNL     1      -0.271  -7.256   0.033  0.00  0.00    +0.042 A 
ATOM     15  C   UNL     1       0.027  -7.771   1.297  0.00  0.00    +0.027 A 
ATOM     16  C   UNL     1       1.185  -8.495   1.487  0.00  0.00    +0.030 A 
ATOM     17  C   UNL     1       2.051  -8.711   0.430  0.00  0.00    +0.105 A 
ATOM     18  C   UNL     1       1.763  -8.204  -0.825  0.00  0.00    +0.030 A 
ATOM     19  C   UNL     1       0.605  -7.483  -1.031  0.00  0.00    +0.027 A 
BRANCH  17  20
ATOM     20  S   UNL     1       3.529  -9.637   0.682  0.00  0.00    +0.056 S 
ATOM     21  O   UNL     1       4.439  -9.235  -0.334  0.00  0.00    -0.153 OA
ATOM     22  O   UNL     1       3.840  -9.537   2.065  0.00  0.00    -0.153 OA
BRANCH  20  23
ATOM     23  N   UNL     1       3.167 -11.226   0.391  0.00  0.00    -0.204 NA
ATOM     24  H   UNL     1       3.850 -11.825   0.050  0.00  0.00    +0.144 HD
ATOM     25  H   UNL     1       2.272 -11.559   0.562  0.00  0.00    +0.144 HD
ENDBRANCH  20  23
ENDBRANCH  17  20
ENDBRANCH  11  14
BRANCH   1  27
ATOM     26  N   UNL     1      -2.508  -4.044   0.371  0.00  0.00    -0.281 N 
ATOM     27  C   UNL     1      -3.697  -4.662   0.229  0.00  0.00    +0.253 C 
ATOM     28  O   UNL     1      -4.706  -4.007   0.055  0.00  0.00    -0.270 OA
ATOM     29  H   UNL     1      -1.696  -4.568   0.456  0.00  0.00    +0.155 HD
BRANCH  26  34
ATOM     30  C   UNL     1      -1.453  -0.623   1.222  0.00  0.00    +0.122 A 
ATOM     31  C   UNL     1      -2.325   0.120   0.438  0.00  0.00    +0.046 A 
ATOM     32  C   UNL     1      -3.252  -0.518  -0.364  0.00  0.00    +0.005 A 
ATOM     33  C   UNL     1      -3.314  -1.898  -0.388  0.00  0.00    +0.023 A 
ATOM     34  C   UNL     1      -2.444  -2.647   0.395  0.00  0.00    +0.037 A 
ATOM     35  C   UNL     1      -1.508  -2.007   1.196  0.00  0.00    +0.069 A 
BRANCH  30  37
ATOM     36  C   UNL     1      -0.542   1.435   1.986  0.00  0.00    +0.277 C 
ATOM     37  O   UNL     1      -0.542   0.007   2.009  0.00  0.00    -0.495 OA
ENDBRANCH  30  37
ENDBRANCH  26  34
ENDBRANCH   1  27
TORSDOF 6
