REMARK  Name = ZINC38090552
REMARK  5 active torsions:
REMARK  status: ('A' for Active; 'I' for Inactive)
REMARK    1  A    between atoms: C_1  and  C_2
REMARK    2  A    between atoms: C_5  and  C_7
REMARK    3  A    between atoms: C_7  and  N_8
REMARK    4  A    between atoms: N_8  and  C_9
REMARK    5  A    between atoms: C_17  and  O_19
REMARK                            x       y       z     vdW  Elec       q    Type
REMARK                         _______ _______ _______ _____ _____    ______ ____
ROOT
ATOM      1  C   UNL     1      -1.307  -4.204   3.814  0.00  0.00    +0.001 C 
ATOM      2  C   UNL     1      -0.781  -5.597   3.393  0.00  0.00    +0.218 C 
ATOM      3  O   UNL     1      -1.987  -6.307   3.067  0.00  0.00    -0.493 OA
ATOM      4  C   UNL     1      -3.021  -5.793   3.787  0.00  0.00    +0.126 A 
ATOM      5  C   UNL     1      -2.716  -4.526   4.273  0.00  0.00    -0.016 A 
ATOM      6  C   UNL     1      -3.629  -3.816   5.021  0.00  0.00    +0.009 A 
ATOM      7  C   UNL     1      -4.867  -4.364   5.305  0.00  0.00    +0.046 A 
ATOM      8  C   UNL     1      -5.184  -5.629   4.833  0.00  0.00    +0.120 A 
ATOM      9  C   UNL     1      -4.266  -6.343   4.077  0.00  0.00    +0.091 A 
ENDROOT
BRANCH   1  10
ATOM     10  N   UNL     1      -1.325  -3.282   2.671  0.00  0.00    +0.390 N 
ATOM     11  H   UNL     1      -1.812  -2.436   2.929  0.00  0.00    -0.084 HD
ATOM     12  H   UNL     1      -1.798  -3.719   1.894  0.00  0.00    -0.084 HD
BRANCH  10  13
ATOM     13  C   UNL     1       0.054  -2.955   2.284  0.00  0.00    -0.018 C 
BRANCH  13  18
ATOM     14  C   UNL     1      -0.018   1.503   0.010  0.00  0.00    +0.066 C 
ATOM     15  C   UNL     1       0.002  -0.004   0.002  0.00  0.00    +0.046 A 
ATOM     16  C   UNL     1       0.006  -0.708  -1.159  0.00  0.00    +0.069 A 
ATOM     17  S   UNL     1       0.033  -2.379  -0.531  0.00  0.00    -0.082 S 
ATOM     18  C   UNL     1       0.035  -2.009   1.111  0.00  0.00    +0.062 A 
ATOM     19  N   UNL     1       0.022  -0.699   1.122  0.00  0.00    -0.251 NA
ENDBRANCH  13  18
ENDBRANCH  10  13
ENDBRANCH   1  10
BRANCH   8  20
ATOM     20  O   UNL     1      -6.398  -6.172   5.113  0.00  0.00    -0.507 OA
ATOM     21  H   UNL     1      -7.079  -5.971   4.457  0.00  0.00    +0.292 HD
ENDBRANCH   8  20
TORSDOF 4
