REMARK  Name = ZINC14017336
REMARK  12 active torsions:
REMARK  status: ('A' for Active; 'I' for Inactive)
REMARK    1  A    between atoms: C_1  and  C_2
REMARK    2  A    between atoms: C_4  and  O_12
REMARK    3  A    between atoms: C_5  and  C_9
REMARK    4  A    between atoms: C_9  and  C_10
REMARK    5  A    between atoms: C_9  and  C_11
REMARK    6  A    between atoms: O_12  and  C_13
REMARK    7  A    between atoms: C_13  and  C_14
REMARK    8  A    between atoms: C_14  and  O_16
REMARK    9  A    between atoms: O_16  and  C_17
REMARK   10  A    between atoms: C_17  and  C_18
REMARK   11  A    between atoms: C_18  and  C_20
REMARK   12  A    between atoms: C_20  and  C_30
REMARK                            x       y       z     vdW  Elec       q    Type
REMARK                         _______ _______ _______ _____ _____    ______ ____
ROOT
ATOM      1  C   UNL     1      -1.042   1.789  -3.568  0.00  0.00    +0.312 C 
ENDROOT
BRANCH   1   2
ATOM      2  C   UNL     1      -0.391   1.340  -4.851  0.00  0.00    +0.214 C 
ATOM      3  O   UNL     1       0.610   0.652  -4.816  0.00  0.00    -0.288 OA
BRANCH   2   4
ATOM      4  C   UNL     1      -0.942   1.717  -6.088  0.00  0.00    +0.133 C 
ATOM      5  C   UNL     1      -0.335   1.298  -7.285  0.00  0.00    +0.114 C 
ATOM      6  N   UNL     1       0.786   0.536  -7.374  0.00  0.00    -0.300 N 
ATOM      7  C   UNL     1       1.069   0.332  -8.720  0.00  0.00    +0.054 A 
ATOM      8  C   UNL     1       2.074  -0.359  -9.383  0.00  0.00    +0.025 A 
ATOM      9  C   UNL     1       2.100  -0.378 -10.762  0.00  0.00    +0.002 A 
ATOM     10  C   UNL     1       1.127   0.289 -11.489  0.00  0.00    +0.002 A 
ATOM     11  C   UNL     1       0.124   0.979 -10.840  0.00  0.00    +0.025 A 
ATOM     12  C   UNL     1       0.088   1.005  -9.452  0.00  0.00    +0.054 A 
ATOM     13  N   UNL     1      -0.772   1.597  -8.536  0.00  0.00    -0.300 N 
ATOM     14  H   UNL     1       1.299   0.191  -6.627  0.00  0.00    +0.153 HD
ATOM     15  H   UNL     1      -1.552   2.133  -8.752  0.00  0.00    +0.153 HD
BRANCH   4  16
ATOM     16  C   UNL     1      -2.122   2.527  -6.129  0.00  0.00    +0.106 C 
ATOM     17  N   UNL     1      -3.058   3.170  -6.161  0.00  0.00    -0.191 NA
ENDBRANCH   4  16
ENDBRANCH   2   4
ENDBRANCH   1   2
BRANCH   1  18
ATOM     18  O   UNL     1      -0.290   1.274  -2.438  0.00  0.00    -0.454 OA
BRANCH  18  19
ATOM     19  C   UNL     1      -0.742   1.585  -1.213  0.00  0.00    +0.346 C 
ATOM     20  O   UNL     1      -1.732   2.266  -1.089  0.00  0.00    -0.247 OA
BRANCH  19  21
ATOM     21  C   UNL     1      -0.013   1.086   0.008  0.00  0.00    +0.349 C 
BRANCH  21  22
ATOM     22  O   UNL     1      -0.682   1.547   1.184  0.00  0.00    -0.481 OA
BRANCH  22  26
ATOM     23  C   UNL     1       2.776  -0.825   3.682  0.00  0.00    +0.045 C 
ATOM     24  C   UNL     1       1.534   0.028   3.637  0.00  0.00    -0.029 A 
ATOM     25  C   UNL     1       0.994   0.397   2.421  0.00  0.00    +0.050 A 
ATOM     26  C   UNL     1      -0.149   1.182   2.380  0.00  0.00    +0.125 A 
ATOM     27  C   UNL     1      -0.744   1.599   3.562  0.00  0.00    -0.002 A 
ATOM     28  C   UNL     1      -0.203   1.225   4.776  0.00  0.00    +0.027 A 
ATOM     29  C   UNL     1       0.937   0.441   4.815  0.00  0.00    +0.044 A 
ATOM     30 CL   UNL     1       1.618  -0.024   6.342  0.00  0.00    -0.083 Cl
BRANCH  27  31
ATOM     31  C   UNL     1      -1.982   2.458   3.520  0.00  0.00    +0.016 C 
ATOM     32  C   UNL     1      -3.128   1.734   4.231  0.00  0.00    +0.012 C 
ATOM     33  C   UNL     1      -1.704   3.788   4.223  0.00  0.00    +0.012 C 
ENDBRANCH  27  31
ENDBRANCH  22  26
ENDBRANCH  21  22
ENDBRANCH  19  21
ENDBRANCH  18  19
ENDBRANCH   1  18
TORSDOF 9
