REMARK  Name = ZINC48553243
REMARK  4 active torsions:
REMARK  status: ('A' for Active; 'I' for Inactive)
REMARK    1  A    between atoms: C_1  and  C_2
REMARK    2  A    between atoms: N_4  and  N_5
REMARK    3  A    between atoms: C_16  and  C_17
REMARK    4  A    between atoms: N_19  and  C_20
REMARK                            x       y       z     vdW  Elec       q    Type
REMARK                         _______ _______ _______ _____ _____    ______ ____
ROOT
ATOM      1  C   UNL     1       1.387  -0.858   2.380  0.00  0.00    +0.050 C 
ATOM      2  C   UNL     1       0.752  -1.367   1.112  0.00  0.00    +0.022 A 
ATOM      3  C   UNL     1      -0.528  -2.101   1.147  0.00  0.00    +0.071 A 
ATOM      4  N   UNL     1      -1.282  -2.132   2.220  0.00  0.00    -0.302 N 
ATOM      5  C   UNL     1      -0.912  -2.802  -0.106  0.00  0.00    +0.045 A 
ATOM      6  C   UNL     1      -1.945  -3.729  -0.128  0.00  0.00    +0.033 A 
ATOM      7  C   UNL     1      -2.268  -4.363  -1.313  0.00  0.00    +0.043 A 
ATOM      8  C   UNL     1      -1.564  -4.072  -2.470  0.00  0.00    +0.043 A 
ATOM      9  C   UNL     1      -0.535  -3.149  -2.456  0.00  0.00    +0.085 A 
ATOM     10  C   UNL     1      -0.200  -2.502  -1.274  0.00  0.00    +0.156 A 
ATOM     11  O   UNL     1       0.796  -1.588  -1.250  0.00  0.00    -0.448 OA
ATOM     12  C   UNL     1       1.337  -1.158  -0.092  0.00  0.00    +0.195 A 
ATOM     13 CL   UNL     1       0.337  -2.799  -3.915  0.00  0.00    -0.080 Cl
ATOM     14 CL   UNL     1      -3.558  -5.524  -1.352  0.00  0.00    -0.083 Cl
ATOM     15  H   UNL     1      -0.904  -1.908   3.085  0.00  0.00    +0.185 HD
ENDROOT
BRANCH   4  16
ATOM     16  N   UNL     1      -2.633  -2.490   2.117  0.00  0.00    -0.213 N 
ATOM     17  C   UNL     1      -3.376  -2.644   3.231  0.00  0.00    +0.315 C 
ATOM     18  O   UNL     1      -4.548  -2.954   3.142  0.00  0.00    -0.251 OA
ATOM     19  N   UNL     1      -2.819  -2.455   4.444  0.00  0.00    -0.312 N 
ATOM     20  H   UNL     1      -3.033  -2.626   1.244  0.00  0.00    +0.177 HD
ATOM     21  H   UNL     1      -1.884  -2.208   4.515  0.00  0.00    +0.147 HD
ATOM     22  H   UNL     1      -3.354  -2.567   5.245  0.00  0.00    +0.147 HD
ENDBRANCH   4  16
BRANCH  12  23
ATOM     23  C   UNL     1       2.618  -0.439  -0.137  0.00  0.00    +0.280 C 
ATOM     24  O   UNL     1       2.633   0.764  -0.318  0.00  0.00    -0.267 OA
ATOM     25  N   UNL     1       3.775  -1.111   0.021  0.00  0.00    -0.303 N 
ATOM     26  H   UNL     1       3.762  -2.071   0.166  0.00  0.00    +0.150 HD
BRANCH  25  27
ATOM     27  C   UNL     1       5.051  -0.394  -0.024  0.00  0.00    +0.036 C 
ATOM     28  C   UNL     1       5.083   0.661   1.083  0.00  0.00    +0.029 C 
ATOM     29  C   UNL     1       6.416   1.411   1.036  0.00  0.00    -0.008 C 
ATOM     30  C   UNL     1       7.564   0.421   1.242  0.00  0.00    +0.007 C 
ATOM     31  C   UNL     1       7.533  -0.634   0.135  0.00  0.00    -0.008 C 
ATOM     32  C   UNL     1       6.200  -1.383   0.182  0.00  0.00    +0.029 C 
ATOM     33  C   UNL     1       7.686   0.049  -1.226  0.00  0.00    +0.007 C 
ATOM     34  C   UNL     1       6.537   1.038  -1.432  0.00  0.00    -0.008 C 
ATOM     35  C   UNL     1       6.569   2.094  -0.325  0.00  0.00    +0.007 C 
ATOM     36  C   UNL     1       5.204   0.289  -1.384  0.00  0.00    +0.029 C 
ENDBRANCH  25  27
ENDBRANCH  12  23
TORSDOF 3
