REMARK  Name = ZINC22150209
REMARK  3 active torsions:
REMARK  status: ('A' for Active; 'I' for Inactive)
REMARK    1  A    between atoms: C_4  and  S_11
REMARK    2  A    between atoms: C_6  and  C_7
REMARK    3  A    between atoms: S_11  and  N_14
REMARK                            x       y       z     vdW  Elec       q    Type
REMARK                         _______ _______ _______ _____ _____    ______ ____
ROOT
ATOM      1  C   UNL     1      -2.363   2.644   3.698  0.00  0.00    +0.056 A 
ATOM      2  C   UNL     1      -2.147   1.309   3.422  0.00  0.00    +0.126 A 
ATOM      3  C   UNL     1      -1.435   0.938   2.292  0.00  0.00    +0.069 A 
ATOM      4  C   UNL     1      -0.927   1.900   1.439  0.00  0.00    +0.144 A 
ATOM      5  C   UNL     1      -1.135   3.241   1.703  0.00  0.00    +0.164 A 
ATOM      6  C   UNL     1      -1.858   3.623   2.839  0.00  0.00    +0.103 A 
ATOM      7  F   UNL     1      -0.643   4.181   0.866  0.00  0.00    -0.203 F 
ATOM      8  F   UNL     1      -2.635   0.361   4.252  0.00  0.00    -0.205 F 
ENDROOT
BRANCH   6   9
ATOM      9  C   UNL     1      -2.085   5.052   3.127  0.00  0.00    +0.389 C 
ATOM     10  O   UNL     1      -1.645   5.901   2.378  0.00  0.00    -0.240 OA
ATOM     11  O   UNL     1      -2.782   5.416   4.222  0.00  0.00    -0.240 OA
ENDBRANCH   6   9
BRANCH   4  12
ATOM     12  S   UNL     1      -0.017   1.417   0.010  0.00  0.00    +0.059 S 
ATOM     13  O   UNL     1       0.002  -0.004   0.002  0.00  0.00    -0.153 OA
ATOM     14  O   UNL     1       1.172   2.195   0.003  0.00  0.00    -0.153 OA
BRANCH  12  15
ATOM     15  N   UNL     1      -0.897   1.885  -1.312  0.00  0.00    -0.203 NA
ATOM     16  H   UNL     1      -0.361   1.601  -2.229  0.00  0.00    +0.144 HD
ATOM     17  H   UNL     1      -1.036   2.977  -1.292  0.00  0.00    +0.144 HD
ENDBRANCH  12  15
ENDBRANCH   4  12
TORSDOF 3
