REMARK  Name = ZINC40307120
REMARK  8 active torsions:
REMARK  status: ('A' for Active; 'I' for Inactive)
REMARK    1  A    between atoms: C_1  and  C_2
REMARK    2  A    between atoms: C_2  and  C_4
REMARK    3  A    between atoms: C_2  and  N_12
REMARK    4  A    between atoms: C_8  and  O_10
REMARK    5  A    between atoms: O_10  and  C_11
REMARK    6  A    between atoms: C_13  and  C_15
REMARK    7  A    between atoms: C_18  and  N_22
REMARK    8  A    between atoms: C_20  and  N_21
REMARK                            x       y       z     vdW  Elec       q    Type
REMARK                         _______ _______ _______ _____ _____    ______ ____
ROOT
ATOM      1  N   UNL     1      -1.390  -0.466   0.019  0.00  0.00    -0.305 N 
ATOM      2  C   UNL     1      -2.058  -0.624  -1.141  0.00  0.00    +0.246 C 
ATOM      3  O   UNL     1      -1.522  -0.337  -2.195  0.00  0.00    -0.270 OA
ATOM      4  H   UNL     1      -1.817  -0.694   0.860  0.00  0.00    +0.150 HD
ENDROOT
BRANCH   2   5
ATOM      5  C   UNL     1      -3.435  -1.143  -1.132  0.00  0.00    +0.057 A 
ATOM      6  C   UNL     1      -4.009  -1.589   0.062  0.00  0.00    +0.016 A 
ATOM      7  C   UNL     1      -5.286  -2.070   0.070  0.00  0.00    +0.023 A 
ATOM      8  C   UNL     1      -6.028  -2.121  -1.109  0.00  0.00    +0.026 A 
ATOM      9  C   UNL     1      -5.474  -1.682  -2.304  0.00  0.00    +0.046 A 
ATOM     10  C   UNL     1      -4.180  -1.186  -2.324  0.00  0.00    +0.039 A 
BRANCH  10  11
ATOM     11  N   UNL     1      -3.620  -0.740  -3.514  0.00  0.00    -0.357 N 
ATOM     12  H   UNL     1      -2.688  -0.472  -3.542  0.00  0.00    +0.142 HD
ATOM     13  H   UNL     1      -4.162  -0.697  -4.318  0.00  0.00    +0.142 HD
ENDBRANCH  10  11
BRANCH   8  14
ATOM     14  N   UNL     1      -7.329  -2.615  -1.089  0.00  0.00    -0.358 N 
ATOM     15  H   UNL     1      -7.718  -2.922  -0.255  0.00  0.00    +0.142 HD
ATOM     16  H   UNL     1      -7.846  -2.651  -1.908  0.00  0.00    +0.142 HD
ENDBRANCH   8  14
ENDBRANCH   2   5
BRANCH   1  18
ATOM     17  C   UNL     1      -0.051   1.581  -0.010  0.00  0.00    +0.033 C 
ATOM     18  C   UNL     1      -0.019   0.051   0.011  0.00  0.00    +0.101 C 
BRANCH  18  19
ATOM     19  C   UNL     1       0.703  -0.420   1.247  0.00  0.00    -0.024 A 
ATOM     20  C   UNL     1       0.042  -0.457   2.461  0.00  0.00    +0.006 A 
ATOM     21  C   UNL     1       0.702  -0.888   3.597  0.00  0.00    +0.004 A 
ATOM     22  C   UNL     1       2.023  -1.284   3.521  0.00  0.00    +0.045 A 
ATOM     23  C   UNL     1       2.688  -1.247   2.304  0.00  0.00    +0.120 A 
ATOM     24  C   UNL     1       2.022  -0.820   1.165  0.00  0.00    +0.051 A 
BRANCH  23  25
ATOM     25  O   UNL     1       3.988  -1.636   2.228  0.00  0.00    -0.495 OA
ATOM     26  C   UNL     1       4.609  -2.070   3.440  0.00  0.00    +0.277 C 
ENDBRANCH  23  25
ENDBRANCH  18  19
ENDBRANCH   1  18
TORSDOF 6
