REMARK  Name = ZINC40366827
REMARK  11 active torsions:
REMARK  status: ('A' for Active; 'I' for Inactive)
REMARK    1  A    between atoms: C_1  and  C_2
REMARK    2  A    between atoms: C_2  and  C_3
REMARK    3  A    between atoms: C_3  and  C_4
REMARK    4  A    between atoms: C_3  and  C_6
REMARK    5  A    between atoms: C_3  and  N_8
REMARK    6  A    between atoms: C_4  and  C_5
REMARK    7  A    between atoms: C_6  and  N_7
REMARK    8  A    between atoms: N_8  and  S_9
REMARK    9  A    between atoms: S_9  and  C_12
REMARK   10  A    between atoms: N_14  and  C_21
REMARK   11  A    between atoms: N_17  and  C_20
REMARK                            x       y       z     vdW  Elec       q    Type
REMARK                         _______ _______ _______ _____ _____    ______ ____
ROOT
ATOM      1  S   UNL     1       3.214  -0.927  -0.675  0.00  0.00    +0.065 S 
ATOM      2  O   UNL     1       4.525  -0.380  -0.713  0.00  0.00    -0.153 OA
ATOM      3  O   UNL     1       2.411  -0.902   0.497  0.00  0.00    -0.153 OA
ENDROOT
BRANCH   1   4
ATOM      4  C   UNL     1       3.360  -2.617  -1.151  0.00  0.00    +0.186 A 
ATOM      5  C   UNL     1       2.790  -3.589  -0.407  0.00  0.00    +0.124 A 
ATOM      6  N   UNL     1       2.913  -4.896  -0.791  0.00  0.00    -0.301 N 
ATOM      7  C   UNL     1       3.597  -5.223  -1.902  0.00  0.00    +0.332 A 
ATOM      8  O   UNL     1       3.694  -6.391  -2.225  0.00  0.00    -0.246 OA
ATOM      9  N   UNL     1       4.174  -4.274  -2.663  0.00  0.00    -0.262 N 
ATOM     10  C   UNL     1       4.071  -2.974  -2.322  0.00  0.00    +0.283 A 
ATOM     11  O   UNL     1       4.589  -2.115  -3.012  0.00  0.00    -0.265 OA
ATOM     12  C   UNL     1       4.914  -4.656  -3.869  0.00  0.00    +0.157 C 
ATOM     13  C   UNL     1       2.294  -5.951   0.017  0.00  0.00    +0.153 C 
ENDBRANCH   1   4
BRANCH   1  14
ATOM     14  N   UNL     1       2.346  -0.158  -1.859  0.00  0.00    -0.185 NA
ATOM     15  H   UNL     1       2.772   0.516  -2.411  0.00  0.00    +0.149 HD
BRANCH  14  16
ATOM     16  C   UNL     1       0.937  -0.497  -2.071  0.00  0.00    +0.024 C 
BRANCH  16  18
ATOM     17  C   UNL     1       0.257   1.440  -0.647  0.00  0.00    +0.005 C 
ATOM     18  C   UNL     1       0.120  -0.070  -0.850  0.00  0.00    +0.018 C 
ENDBRANCH  16  18
BRANCH  16  19
ATOM     19  C   UNL     1       0.801  -2.007  -2.273  0.00  0.00    +0.018 C 
ATOM     20  C   UNL     1      -0.647  -2.345  -2.635  0.00  0.00    +0.005 C 
ENDBRANCH  16  19
BRANCH  16  21
ATOM     21  C   UNL     1       0.418   0.233  -3.312  0.00  0.00    -0.062 C 
BRANCH  21  22
ATOM     22  N   UNL     1       1.182  -0.201  -4.489  0.00  0.00    +0.379 N 
ATOM     23  H   UNL     1       2.168  -0.072  -4.317  0.00  0.00    -0.090 HD
ATOM     24  H   UNL     1       0.997  -1.176  -4.670  0.00  0.00    -0.090 HD
ATOM     25  H   UNL     1       0.905   0.348  -5.290  0.00  0.00    -0.090 HD
ENDBRANCH  21  22
ENDBRANCH  16  21
ENDBRANCH  14  16
ENDBRANCH   1  14
TORSDOF 7
