REMARK  Name = ZINC45551647
REMARK  9 active torsions:
REMARK  status: ('A' for Active; 'I' for Inactive)
REMARK    1  A    between atoms: C_1  and  C_2
REMARK    2  A    between atoms: C_2  and  C_3
REMARK    3  A    between atoms: C_2  and  C_14
REMARK    4  A    between atoms: C_2  and  N_17
REMARK    5  A    between atoms: C_3  and  C_4
REMARK    6  A    between atoms: C_4  and  C_5
REMARK    7  A    between atoms: C_5  and  S_6
REMARK    8  A    between atoms: S_6  and  C_7
REMARK    9  A    between atoms: N_17  and  C_18
REMARK                            x       y       z     vdW  Elec       q    Type
REMARK                         _______ _______ _______ _____ _____    ______ ____
ROOT
ATOM      1  C   UNL     1      -0.019   1.526   0.010  0.00  0.00    -0.001 C 
ATOM      2  C   UNL     1       0.002  -0.004   0.002  0.00  0.00    +0.007 C 
ENDROOT
BRANCH   2   3
ATOM      3  C   UNL     1       0.707  -0.490  -1.238  0.00  0.00    +0.199 C 
ATOM      4  O   UNL     1       1.522   0.219  -1.790  0.00  0.00    -0.278 OA
ATOM      5  N   UNL     1       0.433  -1.713  -1.733  0.00  0.00    -0.330 N 
ATOM      6  H   UNL     1      -0.218  -2.281  -1.292  0.00  0.00    +0.145 HD
ATOM      7  H   UNL     1       0.888  -2.026  -2.531  0.00  0.00    +0.145 HD
ENDBRANCH   2   3
BRANCH   2   8
ATOM      8  N   UNL     1      -1.376  -0.512   0.012  0.00  0.00    +0.390 N 
ATOM      9  H   UNL     1      -1.362  -1.521   0.007  0.00  0.00    -0.084 HD
ATOM     10  H   UNL     1      -1.848  -0.187   0.843  0.00  0.00    -0.084 HD
BRANCH   8  11
ATOM     11  C   UNL     1      -2.087  -0.026  -1.178  0.00  0.00    -0.071 C 
ATOM     12  C   UNL     1      -3.284   0.901  -0.956  0.00  0.00    -0.017 C 
ATOM     13  C   UNL     1      -3.507  -0.542  -1.413  0.00  0.00    -0.017 C 
ENDBRANCH   8  11
ENDBRANCH   2   8
BRANCH   2  14
ATOM     14  C   UNL     1       0.742  -0.511   1.242  0.00  0.00    -0.003 C 
BRANCH  14  15
ATOM     15  C   UNL     1       2.178   0.019   1.231  0.00  0.00    +0.010 C 
BRANCH  15  16
ATOM     16  C   UNL     1       2.917  -0.488   2.470  0.00  0.00    +0.074 C 
BRANCH  16  17
ATOM     17  S   UNL     1       4.619   0.140   2.457  0.00  0.00    -0.125 S 
BRANCH  17  18
ATOM     18  C   UNL     1       5.329  -0.523   3.928  0.00  0.00    +0.008 A 
ATOM     19  C   UNL     1       4.569  -1.331   4.765  0.00  0.00    +0.016 A 
ATOM     20  C   UNL     1       5.129  -1.849   5.916  0.00  0.00    +0.016 A 
ATOM     21  C   UNL     1       6.444  -1.564   6.237  0.00  0.00    +0.018 A 
ATOM     22  C   UNL     1       7.204  -0.759   5.405  0.00  0.00    +0.016 A 
ATOM     23  C   UNL     1       6.652  -0.243   4.250  0.00  0.00    +0.016 A 
ATOM     24 BR   UNL     1       7.206  -2.275   7.815  0.00  0.00    -0.050 Br
ENDBRANCH  17  18
ENDBRANCH  16  17
ENDBRANCH  15  16
ENDBRANCH  14  15
ENDBRANCH   2  14
TORSDOF 8
