REMARK  Name = ZINC39677186
REMARK  8 active torsions:
REMARK  status: ('A' for Active; 'I' for Inactive)
REMARK    1  A    between atoms: C_1  and  C_2
REMARK    2  A    between atoms: C_2  and  C_3
REMARK    3  A    between atoms: C_3  and  C_5
REMARK    4  A    between atoms: C_3  and  C_6
REMARK    5  A    between atoms: C_10  and  C_19
REMARK    6  A    between atoms: N_21  and  C_22
REMARK    7  A    between atoms: C_22  and  C_23
REMARK    8  A    between atoms: C_24  and  C_28
REMARK                            x       y       z     vdW  Elec       q    Type
REMARK                         _______ _______ _______ _____ _____    ______ ____
ROOT
ATOM      1  C   UNL     1       0.564  -2.236  -1.562  0.00  0.00    +0.218 C 
ATOM      2  O   UNL     1      -0.111  -2.922  -0.824  0.00  0.00    -0.275 OA
ATOM      3  N   UNL     1       1.323  -2.814  -2.513  0.00  0.00    -0.300 N 
ATOM      4  C   UNL     1       2.288  -2.159  -3.428  0.00  0.00    +0.121 C 
ATOM      5  C   UNL     1       3.473  -3.146  -3.516  0.00  0.00    +0.100 C 
ATOM      6  C   UNL     1       2.872  -4.515  -3.159  0.00  0.00    -0.004 C 
ATOM      7  C   UNL     1       1.385  -4.250  -2.878  0.00  0.00    +0.115 C 
ATOM      8  C   UNL     1       3.545  -5.079  -1.911  0.00  0.00    -0.010 C 
ATOM      9  C   UNL     1       2.970  -6.466  -1.609  0.00  0.00    -0.082 C 
ATOM     10  N   UNL     1       3.199  -7.353  -2.756  0.00  0.00    +0.379 N 
ATOM     11  C   UNL     1       2.471  -6.852  -3.929  0.00  0.00    -0.082 C 
ATOM     12  C   UNL     1       3.025  -5.481  -4.329  0.00  0.00    -0.010 C 
ATOM     13  H   UNL     1       4.186  -7.385  -2.963  0.00  0.00    -0.086 HD
ATOM     14  H   UNL     1       2.874  -8.281  -2.532  0.00  0.00    -0.086 HD
ENDROOT
BRANCH   5  15
ATOM     15  C   UNL     1       4.036  -3.166  -4.914  0.00  0.00    +0.218 C 
ATOM     16  O   UNL     1       3.316  -2.932  -5.861  0.00  0.00    -0.275 OA
ATOM     17  N   UNL     1       5.340  -3.444  -5.111  0.00  0.00    -0.310 N 
ATOM     18  H   UNL     1       5.916  -3.631  -4.353  0.00  0.00    +0.149 HD
BRANCH  17  19
ATOM     19  C   UNL     1       5.888  -3.464  -6.470  0.00  0.00    +0.147 C 
BRANCH  19  20
ATOM     20  C   UNL     1       7.356  -3.798  -6.415  0.00  0.00    +0.010 A 
ATOM     21  C   UNL     1       7.957  -5.012  -6.467  0.00  0.00    -0.039 A 
ATOM     22  C   UNL     1       9.336  -5.080  -6.400  0.00  0.00    +0.011 A 
ATOM     23  C   UNL     1      10.046  -3.931  -6.283  0.00  0.00    +0.046 A 
ATOM     24  S   UNL     1       8.755  -2.698  -6.272  0.00  0.00    -0.100 S 
ATOM     25  C   UNL     1       7.135  -6.268  -6.597  0.00  0.00    +0.044 C 
ENDBRANCH  19  20
ENDBRANCH  17  19
ENDBRANCH   5  15
BRANCH   1  26
ATOM     26  C   UNL     1       0.553  -0.736  -1.414  0.00  0.00    +0.072 C 
ATOM     27  C   UNL     1       1.637  -0.313  -0.420  0.00  0.00    +0.017 C 
BRANCH  26  29
ATOM     28  C   UNL     1      -0.868   1.245  -0.868  0.00  0.00    +0.004 C 
ATOM     29  C   UNL     1      -0.815  -0.284  -0.899  0.00  0.00    +0.009 C 
ENDBRANCH  26  29
ENDBRANCH   1  26
TORSDOF 5
