REMARK  Name = ZINC45470912
REMARK  13 active torsions:
REMARK  status: ('A' for Active; 'I' for Inactive)
REMARK    1  A    between atoms: C_1  and  C_2
REMARK    2  A    between atoms: C_2  and  C_3
REMARK    3  A    between atoms: C_2  and  C_4
REMARK    4  A    between atoms: C_4  and  C_5
REMARK    5  A    between atoms: C_8  and  C_11
REMARK    6  A    between atoms: C_11  and  C_13
REMARK    7  A    between atoms: C_11  and  N_16
REMARK    8  A    between atoms: C_13  and  C_14
REMARK    9  A    between atoms: C_13  and  C_15
REMARK   10  A    between atoms: N_16  and  C_17
REMARK   11  A    between atoms: C_17  and  C_18
REMARK   12  A    between atoms: N_23  and  C_24
REMARK   13  A    between atoms: C_24  and  C_25
REMARK                            x       y       z     vdW  Elec       q    Type
REMARK                         _______ _______ _______ _____ _____    ______ ____
ROOT
ATOM      1  N   UNL     1      -2.152  -6.702   0.554  0.00  0.00    +0.389 N 
ATOM      2  H   UNL     1      -2.039  -7.693   0.709  0.00  0.00    -0.084 HD
ATOM      3  H   UNL     1      -1.889  -6.200   1.389  0.00  0.00    -0.084 HD
ENDROOT
BRANCH   1   4
ATOM      4  C   UNL     1      -1.296  -6.279  -0.562  0.00  0.00    -0.038 C 
BRANCH   4   8
ATOM      5  C   UNL     1      -1.497  -2.033  -0.978  0.00  0.00    -0.047 A 
ATOM      6  C   UNL     1      -1.475  -2.837  -2.102  0.00  0.00    +0.004 A 
ATOM      7  C   UNL     1      -1.410  -4.211  -1.967  0.00  0.00    +0.002 A 
ATOM      8  C   UNL     1      -1.366  -4.781  -0.709  0.00  0.00    -0.061 A 
ATOM      9  C   UNL     1      -1.387  -3.977   0.415  0.00  0.00    +0.002 A 
ATOM     10  C   UNL     1      -1.448  -2.602   0.281  0.00  0.00    +0.004 A 
BRANCH   5  11
ATOM     11  C   UNL     1      -1.569  -0.534  -1.125  0.00  0.00    +0.038 C 
BRANCH  11  13
ATOM     12  C   UNL     1      -0.224   1.542  -1.475  0.00  0.00    +0.007 C 
ATOM     13  C   UNL     1      -0.152   0.038  -1.201  0.00  0.00    -0.013 C 
ATOM     14  C   UNL     1       0.569  -0.204   0.127  0.00  0.00    +0.007 C 
ENDBRANCH  11  13
ENDBRANCH   5  11
ENDBRANCH   4   8
BRANCH   4  15
ATOM     15  C   UNL     1       0.149  -6.697  -0.283  0.00  0.00    -0.027 C 
ATOM     16  C   UNL     1       0.232  -8.223  -0.203  0.00  0.00    +0.006 C 
ATOM     17  C   UNL     1       1.052  -6.196  -1.412  0.00  0.00    +0.006 C 
ENDBRANCH   4  15
ENDBRANCH   1   4
BRANCH   1  18
ATOM     18  C   UNL     1      -3.556  -6.415   0.231  0.00  0.00    +0.016 C 
BRANCH  18  19
ATOM     19  C   UNL     1      -4.444  -6.955   1.323  0.00  0.00    +0.203 C 
ATOM     20  O   UNL     1      -3.955  -7.523   2.276  0.00  0.00    -0.277 OA
ATOM     21  N   UNL     1      -5.780  -6.806   1.240  0.00  0.00    -0.242 N 
ATOM     22  C   UNL     1      -6.574  -7.289   2.216  0.00  0.00    +0.306 C 
ATOM     23  O   UNL     1      -6.085  -7.859   3.171  0.00  0.00    -0.252 OA
ATOM     24  N   UNL     1      -7.911  -7.140   2.133  0.00  0.00    -0.296 N 
ATOM     25  H   UNL     1      -6.171  -6.351   0.477  0.00  0.00    +0.159 HD
ATOM     26  H   UNL     1      -8.302  -6.686   1.370  0.00  0.00    +0.151 HD
BRANCH  24  27
ATOM     27  C   UNL     1      -8.774  -7.665   3.194  0.00  0.00    +0.132 C 
BRANCH  27  28
ATOM     28  C   UNL     1     -10.214  -7.370   2.862  0.00  0.00    -0.016 C 
ATOM     29  C   UNL     1     -11.089  -8.345   2.818  0.00  0.00    +0.005 C 
ENDBRANCH  27  28
ENDBRANCH  24  27
ENDBRANCH  18  19
ENDBRANCH   1  18
TORSDOF 9
