REMARK  Name = ZINC50510157
REMARK  11 active torsions:
REMARK  status: ('A' for Active; 'I' for Inactive)
REMARK    1  A    between atoms: C_1  and  C_2
REMARK    2  A    between atoms: C_2  and  C_4
REMARK    3  A    between atoms: C_2  and  N_13
REMARK    4  A    between atoms: C_7  and  O_11
REMARK    5  A    between atoms: O_11  and  C_12
REMARK    6  A    between atoms: N_13  and  C_14
REMARK    7  A    between atoms: C_14  and  C_16
REMARK    8  A    between atoms: C_14  and  C_17
REMARK    9  A    between atoms: N_19  and  C_20
REMARK   10  A    between atoms: C_23  and  S_26
REMARK   11  A    between atoms: S_26  and  N_29
REMARK                            x       y       z     vdW  Elec       q    Type
REMARK                         _______ _______ _______ _____ _____    ______ ____
ROOT
ATOM      1  C   UNL     1       0.439  -1.823   3.218  0.00  0.00    +0.234 C 
ATOM      2  O   UNL     1       1.511  -2.324   2.952  0.00  0.00    -0.274 OA
ATOM      3  N   UNL     1      -0.213  -2.184   4.341  0.00  0.00    -0.284 N 
ATOM      4  H   UNL     1      -1.105  -1.843   4.515  0.00  0.00    +0.155 HD
ENDROOT
BRANCH   3   5
ATOM      5  C   UNL     1       0.396  -3.050   5.256  0.00  0.00    +0.034 A 
ATOM      6  C   UNL     1      -0.370  -3.974   5.955  0.00  0.00    +0.025 A 
ATOM      7  C   UNL     1       0.234  -4.828   6.857  0.00  0.00    +0.030 A 
ATOM      8  C   UNL     1       1.599  -4.763   7.065  0.00  0.00    +0.105 A 
ATOM      9  C   UNL     1       2.364  -3.844   6.371  0.00  0.00    +0.030 A 
ATOM     10  C   UNL     1       1.768  -2.991   5.463  0.00  0.00    +0.025 A 
BRANCH   8  11
ATOM     11  S   UNL     1       2.366  -5.854   8.217  0.00  0.00    +0.056 S 
ATOM     12  O   UNL     1       3.571  -5.225   8.632  0.00  0.00    -0.153 OA
ATOM     13  O   UNL     1       1.357  -6.247   9.137  0.00  0.00    -0.153 OA
BRANCH  11  14
ATOM     14  N   UNL     1       2.805  -7.216   7.385  0.00  0.00    -0.204 NA
ATOM     15  H   UNL     1       3.578  -7.729   7.667  0.00  0.00    +0.144 HD
ATOM     16  H   UNL     1       2.288  -7.501   6.615  0.00  0.00    +0.144 HD
ENDBRANCH  11  14
ENDBRANCH   8  11
ENDBRANCH   3   5
BRANCH   1  17
ATOM     17  C   UNL     1      -0.164  -0.797   2.293  0.00  0.00    +0.138 C 
ATOM     18  C   UNL     1      -0.357   0.519   3.048  0.00  0.00    +0.034 C 
BRANCH  17  19
ATOM     19  N   UNL     1       0.734  -0.580   1.151  0.00  0.00    -0.299 NA
ATOM     20  H   UNL     1       1.188  -1.440   0.879  0.00  0.00    +0.123 HD
BRANCH  19  22
ATOM     21  C   UNL     1       1.010   0.679  -0.931  0.00  0.00    +0.029 C 
ATOM     22  C   UNL     1       0.012   0.015   0.019  0.00  0.00    +0.082 C 
BRANCH  22  23
ATOM     23  C   UNL     1      -0.743  -1.061  -0.718  0.00  0.00    -0.028 A 
ATOM     24  C   UNL     1      -0.163  -2.301  -0.911  0.00  0.00    +0.009 A 
ATOM     25  C   UNL     1      -0.851  -3.291  -1.587  0.00  0.00    +0.049 A 
ATOM     26  C   UNL     1      -2.126  -3.040  -2.071  0.00  0.00    +0.155 A 
ATOM     27  C   UNL     1      -2.708  -1.794  -1.875  0.00  0.00    +0.165 A 
ATOM     28  C   UNL     1      -2.016  -0.809  -1.194  0.00  0.00    +0.047 A 
ATOM     29  F   UNL     1      -3.950  -1.546  -2.345  0.00  0.00    -0.202 F 
BRANCH  26  30
ATOM     30  O   UNL     1      -2.805  -4.012  -2.736  0.00  0.00    -0.492 OA
ATOM     31  C   UNL     1      -2.145  -5.269  -2.901  0.00  0.00    +0.277 C 
ENDBRANCH  26  30
ENDBRANCH  22  23
ENDBRANCH  19  22
ENDBRANCH  17  19
ENDBRANCH   1  17
TORSDOF 8
