REMARK  Name = ZINC42582852
REMARK  7 active torsions:
REMARK  status: ('A' for Active; 'I' for Inactive)
REMARK    1  A    between atoms: C_1  and  C_2
REMARK    2  A    between atoms: C_2  and  C_3
REMARK    3  A    between atoms: C_9  and  N_11
REMARK    4  A    between atoms: N_14  and  C_15
REMARK    5  A    between atoms: C_15  and  C_16
REMARK    6  A    between atoms: C_15  and  C_17
REMARK    7  A    between atoms: C_15  and  C_18
REMARK                            x       y       z     vdW  Elec       q    Type
REMARK                         _______ _______ _______ _____ _____    ______ ____
ROOT
ATOM      1  N   UNL     1      -0.750  -2.444   1.369  0.00  0.00    -0.296 N 
ATOM      2  C   UNL     1      -1.121  -3.664   0.932  0.00  0.00    +0.301 C 
ATOM      3  O   UNL     1      -0.289  -4.427   0.480  0.00  0.00    -0.253 OA
ATOM      4  N   UNL     1      -2.414  -4.039   0.996  0.00  0.00    -0.284 N 
ATOM      5  H   UNL     1      -1.414  -1.836   1.729  0.00  0.00    +0.151 HD
ATOM      6  H   UNL     1      -3.078  -3.430   1.357  0.00  0.00    +0.151 HD
ENDROOT
BRANCH   1  12
ATOM      7  C   UNL     1       0.742  -0.511   1.242  0.00  0.00    +0.009 C 
ATOM      8  C   UNL     1       2.210  -0.086   1.169  0.00  0.00    +0.005 C 
ATOM      9  C   UNL     1       2.950  -0.593   2.408  0.00  0.00    +0.000 C 
ATOM     10  C   UNL     1       2.863  -2.119   2.465  0.00  0.00    +0.002 C 
ATOM     11  C   UNL     1       1.395  -2.544   2.538  0.00  0.00    +0.022 C 
ATOM     12  C   UNL     1       0.655  -2.037   1.299  0.00  0.00    +0.078 C 
BRANCH   7  14
ATOM     13  C   UNL     1      -0.019   1.526   0.010  0.00  0.00    +0.004 C 
ATOM     14  C   UNL     1       0.002  -0.004   0.002  0.00  0.00    +0.002 C 
ENDBRANCH   7  14
ENDBRANCH   1  12
BRANCH   4  15
ATOM     15  C   UNL     1      -2.817  -5.365   0.522  0.00  0.00    +0.131 C 
ATOM     16  C   UNL     1      -2.465  -5.505  -0.960  0.00  0.00    +0.043 C 
ATOM     17  C   UNL     1      -2.081  -6.439   1.325  0.00  0.00    +0.043 C 
BRANCH  15  18
ATOM     18  C   UNL     1      -4.304  -5.533   0.703  0.00  0.00    +0.378 C 
ATOM     19  O   UNL     1      -4.965  -4.629   1.184  0.00  0.00    -0.244 OA
ATOM     20  O   UNL     1      -4.845  -6.573   0.369  0.00  0.00    -0.244 OA
ENDBRANCH  15  18
ENDBRANCH   4  15
TORSDOF 4
