REMARK  Name = ZINC42337322
REMARK  11 active torsions:
REMARK  status: ('A' for Active; 'I' for Inactive)
REMARK    1  A    between atoms: C_1  and  C_2
REMARK    2  A    between atoms: C_2  and  C_3
REMARK    3  A    between atoms: C_3  and  C_4
REMARK    4  A    between atoms: C_4  and  C_5
REMARK    5  A    between atoms: C_5  and  N_6
REMARK    6  A    between atoms: C_7  and  C_9
REMARK    7  A    between atoms: C_9  and  C_11
REMARK    8  A    between atoms: C_9  and  N_12
REMARK    9  A    between atoms: N_12  and  C_13
REMARK   10  A    between atoms: C_13  and  C_15
REMARK   11  A    between atoms: C_13  and  C_16
REMARK                            x       y       z     vdW  Elec       q    Type
REMARK                         _______ _______ _______ _____ _____    ______ ____
ROOT
ATOM      1  N   UNL     1       2.766  -6.627  -4.769  0.00  0.00    +0.391 N 
ATOM      2  H   UNL     1       2.327  -6.226  -5.584  0.00  0.00    -0.084 HD
ATOM      3  H   UNL     1       3.735  -6.347  -4.736  0.00  0.00    -0.084 HD
ENDROOT
BRANCH   1   4
ATOM      4  C   UNL     1       2.078  -6.153  -3.560  0.00  0.00    +0.014 C 
ATOM      5  C   UNL     1       2.818  -6.660  -2.321  0.00  0.00    -0.004 C 
BRANCH   4   7
ATOM      6  N   UNL     1       1.475  -3.986  -2.532  0.00  0.00    -0.317 N 
ATOM      7  C   UNL     1       2.058  -4.646  -3.552  0.00  0.00    +0.199 C 
ATOM      8  O   UNL     1       2.566  -4.028  -4.463  0.00  0.00    -0.278 OA
ATOM      9  H   UNL     1       1.069  -4.480  -1.803  0.00  0.00    +0.149 HD
BRANCH   6  10
ATOM     10  C   UNL     1       1.455  -2.521  -2.524  0.00  0.00    +0.104 C 
BRANCH  10  11
ATOM     11  C   UNL     1       0.739  -2.027  -1.265  0.00  0.00    +0.019 C 
BRANCH  11  12
ATOM     12  C   UNL     1       0.718  -0.497  -1.257  0.00  0.00    +0.001 C 
BRANCH  12  14
ATOM     13  C   UNL     1      -0.019   1.526   0.010  0.00  0.00    +0.004 C 
ATOM     14  C   UNL     1       0.002  -0.004   0.002  0.00  0.00    -0.003 C 
ENDBRANCH  12  14
ENDBRANCH  11  12
ENDBRANCH  10  11
ENDBRANCH   6  10
ENDBRANCH   4   7
ENDBRANCH   1   4
BRANCH   1  15
ATOM     15  C   UNL     1       2.682  -8.092  -4.838  0.00  0.00    -0.043 C 
ATOM     16  C   UNL     1       1.221  -8.511  -5.013  0.00  0.00    -0.009 C 
BRANCH  15  17
ATOM     17  C   UNL     1       3.490  -8.587  -6.009  0.00  0.00    -0.062 A 
ATOM     18  C   UNL     1       3.475  -7.890  -7.203  0.00  0.00    +0.003 A 
ATOM     19  C   UNL     1       4.216  -8.344  -8.278  0.00  0.00    +0.015 A 
ATOM     20  C   UNL     1       4.974  -9.495  -8.159  0.00  0.00    +0.018 A 
ATOM     21  C   UNL     1       4.989 -10.191  -6.964  0.00  0.00    +0.015 A 
ATOM     22  C   UNL     1       4.251  -9.734  -5.888  0.00  0.00    +0.003 A 
ATOM     23 BR   UNL     1       5.988 -10.116  -9.629  0.00  0.00    -0.050 Br
ENDBRANCH  15  17
ENDBRANCH   1  15
TORSDOF 8
