REMARK  Name = ZINC10296072
REMARK  17 active torsions:
REMARK  status: ('A' for Active; 'I' for Inactive)
REMARK    1  A    between atoms: C_1  and  C_2
REMARK    2  A    between atoms: C_2  and  C_3
REMARK    3  A    between atoms: C_3  and  O_4
REMARK    4  A    between atoms: O_4  and  C_5
REMARK    5  A    between atoms: C_5  and  C_7
REMARK    6  A    between atoms: C_10  and  O_13
REMARK    7  A    between atoms: O_13  and  C_14
REMARK    8  A    between atoms: C_14  and  C_15
REMARK    9  A    between atoms: N_17  and  N_18
REMARK   10  A    between atoms: N_18  and  C_19
REMARK   11  A    between atoms: C_19  and  N_21
REMARK   12  A    between atoms: C_22  and  C_24
REMARK   13  A    between atoms: C_27  and  O_30
REMARK   14  A    between atoms: O_30  and  C_31
REMARK   15  A    between atoms: C_31  and  C_33
REMARK   16  A    between atoms: C_31  and  C_34
REMARK   17  A    between atoms: C_34  and  C_35
REMARK                            x       y       z     vdW  Elec       q    Type
REMARK                         _______ _______ _______ _____ _____    ______ ____
ROOT
ATOM      1  N   UNL     1       3.463   1.900   0.389  0.00  0.00    -0.245 N 
ATOM      2  H   UNL     1       4.310   1.427   0.376  0.00  0.00    +0.172 HD
ENDROOT
BRANCH   1   5
ATOM      3  C   UNL     1       4.585   3.954   0.823  0.00  0.00    +0.267 C 
ATOM      4  O   UNL     1       5.644   3.363   0.808  0.00  0.00    -0.271 OA
ATOM      5  N   UNL     1       3.435   3.282   0.619  0.00  0.00    -0.232 N 
ATOM      6  H   UNL     1       2.588   3.755   0.631  0.00  0.00    +0.173 HD
BRANCH   3   7
ATOM      7  C   UNL     1       4.555   5.440   1.071  0.00  0.00    +0.326 C 
BRANCH   7   8
ATOM      8  O   UNL     1       5.889   5.919   1.257  0.00  0.00    -0.483 OA
BRANCH   8  12
ATOM      9  C   UNL     1       6.347   9.959   1.973  0.00  0.00    +0.059 A 
ATOM     10  C   UNL     1       7.468   9.124   1.921  0.00  0.00    +0.018 A 
ATOM     11  C   UNL     1       7.310   7.778   1.683  0.00  0.00    +0.046 A 
ATOM     12  C   UNL     1       6.040   7.247   1.492  0.00  0.00    +0.121 A 
ATOM     13  C   UNL     1       4.923   8.074   1.537  0.00  0.00    +0.046 A 
ATOM     14  C   UNL     1       5.071   9.421   1.781  0.00  0.00    +0.018 A 
BRANCH   9  15
ATOM     15  C   UNL     1       6.511  11.402   2.229  0.00  0.00    +0.339 C 
ATOM     16  O   UNL     1       7.620  11.867   2.396  0.00  0.00    -0.245 OA
BRANCH  15  17
ATOM     17  O   UNL     1       5.429  12.204   2.278  0.00  0.00    -0.461 OA
BRANCH  17  18
ATOM     18  C   UNL     1       5.665  13.614   2.534  0.00  0.00    +0.232 C 
BRANCH  18  20
ATOM     19  C   UNL     1       4.578  15.845   2.824  0.00  0.00    +0.007 C 
ATOM     20  C   UNL     1       4.330  14.359   2.554  0.00  0.00    +0.038 C 
ENDBRANCH  18  20
ENDBRANCH  17  18
ENDBRANCH  15  17
ENDBRANCH   9  15
ENDBRANCH   8  12
ENDBRANCH   7   8
ENDBRANCH   3   7
ENDBRANCH   1   5
BRANCH   1  21
ATOM     21  C   UNL     1       2.313   1.228   0.184  0.00  0.00    +0.153 C 
ATOM     22  S   UNL     1       2.347  -0.461  -0.097  0.00  0.00    -0.017 S 
BRANCH  21  23
ATOM     23  N   UNL     1       1.136   1.885   0.202  0.00  0.00    -0.263 N 
ATOM     24  C   UNL     1      -0.014   1.212  -0.002  0.00  0.00    +0.250 C 
ATOM     25  O   UNL     1       0.010   0.013  -0.202  0.00  0.00    -0.270 OA
ATOM     26  H   UNL     1       1.117   2.841   0.361  0.00  0.00    +0.157 HD
BRANCH  24  27
ATOM     27  C   UNL     1      -1.302   1.932   0.011  0.00  0.00    +0.037 A 
ATOM     28  C   UNL     1      -1.332   3.310   0.246  0.00  0.00    +0.016 A 
ATOM     29  C   UNL     1      -2.535   3.979   0.252  0.00  0.00    +0.046 A 
ATOM     30  C   UNL     1      -3.720   3.284   0.035  0.00  0.00    +0.121 A 
ATOM     31  C   UNL     1      -3.695   1.913  -0.194  0.00  0.00    +0.046 A 
ATOM     32  C   UNL     1      -2.495   1.238  -0.207  0.00  0.00    +0.016 A 
BRANCH  30  33
ATOM     33  O   UNL     1      -4.904   3.947   0.047  0.00  0.00    -0.489 OA
BRANCH  33  34
ATOM     34  C   UNL     1      -6.090   3.157  -0.063  0.00  0.00    +0.170 C 
ATOM     35  C   UNL     1      -6.389   2.888  -1.539  0.00  0.00    +0.052 C 
BRANCH  34  36
ATOM     36  C   UNL     1      -7.264   3.910   0.566  0.00  0.00    +0.041 C 
ATOM     37  C   UNL     1      -7.022   4.069   2.068  0.00  0.00    +0.007 C 
ENDBRANCH  34  36
ENDBRANCH  33  34
ENDBRANCH  30  33
ENDBRANCH  24  27
ENDBRANCH  21  23
ENDBRANCH   1  21
TORSDOF 14
