REMARK  Name = ZINC14541404
REMARK  11 active torsions:
REMARK  status: ('A' for Active; 'I' for Inactive)
REMARK    1  A    between atoms: C_1  and  C_2
REMARK    2  A    between atoms: C_2  and  C_3
REMARK    3  A    between atoms: C_2  and  C_4
REMARK    4  A    between atoms: C_2  and  C_27
REMARK    5  A    between atoms: C_4  and  N_56
REMARK    6  A    between atoms: C_5  and  N_56
REMARK    7  A    between atoms: C_11  and  C_15
REMARK    8  A    between atoms: N_13  and  C_14
REMARK    9  A    between atoms: N_17  and  C_18
REMARK   10  A    between atoms: C_18  and  C_19
REMARK   11  A    between atoms: C_27  and  O_28
REMARK                            x       y       z     vdW  Elec       q    Type
REMARK                         _______ _______ _______ _____ _____    ______ ____
ROOT
ATOM      1  C   UNL     1       4.481   5.397  -0.423  0.00  0.00    -0.067 C 
ATOM      2  C   UNL     1       4.019   6.585   0.425  0.00  0.00    -0.009 C 
ATOM      3  C   UNL     1       2.594   6.984   0.021  0.00  0.00    +0.054 C 
ATOM      4  C   UNL     1       1.738   5.743   0.017  0.00  0.00    +0.043 A 
ATOM      5  C   UNL     1       2.235   4.482   0.005  0.00  0.00    +0.004 A 
ATOM      6  C   UNL     1       1.120   3.627   0.011  0.00  0.00    +0.150 A 
ATOM      7  N   UNL     1       0.049   4.403   0.019  0.00  0.00    -0.166 NA
ATOM      8  N   UNL     1       0.399   5.643   0.028  0.00  0.00    -0.270 N 
ATOM      9  C   UNL     1      -0.528   6.777   0.041  0.00  0.00    +0.172 C 
ATOM     10  C   UNL     1       3.700   4.141  -0.014  0.00  0.00    +0.023 C 
ENDROOT
BRANCH   6  11
ATOM     11  C   UNL     1       1.140   2.151   0.003  0.00  0.00    +0.265 C 
ATOM     12  O   UNL     1       2.201   1.557  -0.011  0.00  0.00    -0.268 OA
ATOM     13  N   UNL     1      -0.018   1.461   0.010  0.00  0.00    -0.306 N 
ATOM     14  H   UNL     1      -0.864   1.934   0.017  0.00  0.00    +0.149 HD
BRANCH  13  15
ATOM     15  C   UNL     1       0.002  -0.004   0.002  0.00  0.00    +0.142 C 
BRANCH  15  16
ATOM     16  C   UNL     1      -1.412  -0.526   0.013  0.00  0.00    +0.005 A 
ATOM     17  C   UNL     1      -1.975  -0.972   1.194  0.00  0.00    +0.008 A 
ATOM     18  C   UNL     1      -3.274  -1.445   1.205  0.00  0.00    +0.000 A 
ATOM     19  C   UNL     1      -4.007  -1.483   0.033  0.00  0.00    +0.003 A 
ATOM     20  C   UNL     1      -3.444  -1.043  -1.150  0.00  0.00    +0.038 A 
ATOM     21  C   UNL     1      -2.145  -0.564  -1.161  0.00  0.00    +0.128 A 
ATOM     22  F   UNL     1      -1.593  -0.134  -2.317  0.00  0.00    -0.205 F 
ENDBRANCH  15  16
ENDBRANCH  13  15
ENDBRANCH   6  11
BRANCH   1  23
ATOM     23  N   UNL     1       5.921   5.164  -0.201  0.00  0.00    +0.382 N 
ATOM     24  H   UNL     1       6.152   5.375   0.777  0.00  0.00    -0.085 HD
ATOM     25  H   UNL     1       6.140   4.181  -0.401  0.00  0.00    -0.085 HD
BRANCH  23  26
ATOM     26  C   UNL     1       6.722   6.030  -1.087  0.00  0.00    -0.074 C 
BRANCH  26  28
ATOM     27  C   UNL     1       8.541   6.078   0.625  0.00  0.00    +0.011 C 
ATOM     28  C   UNL     1       8.208   5.767  -0.835  0.00  0.00    -0.027 C 
ATOM     29  C   UNL     1       8.523   4.299  -1.129  0.00  0.00    +0.011 C 
BRANCH  28  30
ATOM     30  C   UNL     1       9.046   6.662  -1.750  0.00  0.00    +0.160 C 
BRANCH  30  31
ATOM     31  O   UNL     1      10.434   6.417  -1.515  0.00  0.00    -0.395 OA
ATOM     32  H   UNL     1      11.027   6.951  -2.063  0.00  0.00    +0.209 HD
ENDBRANCH  30  31
ENDBRANCH  28  30
ENDBRANCH  26  28
ENDBRANCH  23  26
ENDBRANCH   1  23
TORSDOF 8
