REMARK  Name = ZINC35191044
REMARK  16 active torsions:
REMARK  status: ('A' for Active; 'I' for Inactive)
REMARK    1  A    between atoms: C_1  and  C_2
REMARK    2  A    between atoms: C_2  and  C_3
REMARK    3  A    between atoms: C_2  and  C_4
REMARK    4  A    between atoms: C_2  and  C_5
REMARK    5  A    between atoms: C_5  and  C_6
REMARK    6  A    between atoms: C_6  and  C_7
REMARK    7  A    between atoms: C_6  and  C_8
REMARK    8  A    between atoms: C_6  and  N_9
REMARK    9  A    between atoms: N_9  and  C_10
REMARK   10  A    between atoms: C_11  and  C_19
REMARK   11  A    between atoms: C_22  and  O_27
REMARK   12  A    between atoms: C_23  and  O_25
REMARK   13  A    between atoms: O_25  and  C_26
REMARK   14  A    between atoms: O_27  and  C_28
REMARK   15  A    between atoms: C_28  and  C_30
REMARK   16  A    between atoms: C_33  and  C_35
REMARK                            x       y       z     vdW  Elec       q    Type
REMARK                         _______ _______ _______ _____ _____    ______ ____
ROOT
ATOM      1  C   UNL     1       4.936   0.472  -3.401  0.00  0.00    +0.129 A 
ATOM      2  C   UNL     1       5.830   0.411  -4.449  0.00  0.00    +0.087 A 
ATOM      3  N   UNL     1       7.005   0.910  -4.024  0.00  0.00    -0.338 N 
ATOM      4  C   UNL     1       6.890   1.281  -2.759  0.00  0.00    +0.117 A 
ATOM      5  N   UNL     1       5.603   1.024  -2.343  0.00  0.00    -0.289 N 
ATOM      6  C   UNL     1       5.217   1.324  -1.064  0.00  0.00    +0.094 A 
ATOM      7  C   UNL     1       6.088   1.877  -0.196  0.00  0.00    +0.018 A 
ATOM      8  C   UNL     1       7.408   2.154  -0.593  0.00  0.00    +0.005 A 
ATOM      9  C   UNL     1       7.811   1.855  -1.857  0.00  0.00    +0.045 A 
ATOM     10  H   UNL     1       7.810   0.985  -4.560  0.00  0.00    +0.167 HD
ENDROOT
BRANCH   2  11
ATOM     11  C   UNL     1       5.546  -0.114  -5.805  0.00  0.00    +0.005 A 
ATOM     12  C   UNL     1       4.846  -1.311  -5.959  0.00  0.00    +0.014 A 
ATOM     13  C   UNL     1       4.583  -1.799  -7.223  0.00  0.00    +0.051 A 
ATOM     14  C   UNL     1       5.013  -1.102  -8.342  0.00  0.00    +0.173 A 
ATOM     15  C   UNL     1       5.713   0.093  -8.194  0.00  0.00    +0.163 A 
ATOM     16  C   UNL     1       5.974   0.590  -6.930  0.00  0.00    +0.059 A 
BRANCH  15  17
ATOM     17  O   UNL     1       6.134   0.774  -9.293  0.00  0.00    -0.491 OA
ATOM     18  C   UNL     1       6.846   1.993  -9.068  0.00  0.00    +0.277 C 
ENDBRANCH  15  17
BRANCH  14  19
ATOM     19  O   UNL     1       4.752  -1.587  -9.585  0.00  0.00    -0.422 OA
BRANCH  19  20
ATOM     20  C   UNL     1       5.684  -2.356 -10.170  0.00  0.00    +0.316 C 
ATOM     21  O   UNL     1       6.679  -2.675  -9.556  0.00  0.00    -0.250 OA
BRANCH  20  22
ATOM     22  C   UNL     1       5.492  -2.822 -11.591  0.00  0.00    +0.106 C 
ATOM     23  C   UNL     1       5.241  -4.314 -11.816  0.00  0.00    +0.024 C 
ATOM     24  C   UNL     1       6.588  -3.698 -12.200  0.00  0.00    +0.034 C 
BRANCH  24  25
ATOM     25  C   UNL     1       6.881  -3.525 -13.668  0.00  0.00    -0.043 A 
ATOM     26  C   UNL     1       5.886  -3.743 -14.602  0.00  0.00    +0.004 A 
ATOM     27  C   UNL     1       6.154  -3.585 -15.949  0.00  0.00    +0.000 A 
ATOM     28  C   UNL     1       7.418  -3.207 -16.362  0.00  0.00    +0.000 A 
ATOM     29  C   UNL     1       8.413  -2.988 -15.428  0.00  0.00    +0.000 A 
ATOM     30  C   UNL     1       8.144  -3.142 -14.081  0.00  0.00    +0.004 A 
ENDBRANCH  24  25
ENDBRANCH  20  22
ENDBRANCH  19  20
ENDBRANCH  14  19
ENDBRANCH   2  11
BRANCH   1  31
ATOM     31  N   UNL     1       3.604   0.056  -3.418  0.00  0.00    -0.323 N 
ATOM     32  H   UNL     1       3.227  -0.330  -4.224  0.00  0.00    +0.148 HD
BRANCH  31  33
ATOM     33  C   UNL     1       2.775   0.201  -2.219  0.00  0.00    +0.028 C 
ATOM     34  C   UNL     1       2.725   1.675  -1.809  0.00  0.00    +0.031 C 
ATOM     35  C   UNL     1       3.377  -0.624  -1.080  0.00  0.00    +0.031 C 
BRANCH  33  36
ATOM     36  C   UNL     1       1.359  -0.295  -2.514  0.00  0.00    +0.031 C 
BRANCH  36  38
ATOM     37  C   UNL     1       1.446  -0.860  -4.947  0.00  0.00    +0.010 C 
ATOM     38  C   UNL     1       0.943   0.154  -3.917  0.00  0.00    -0.036 C 
ATOM     39  C   UNL     1       1.550   1.527  -4.214  0.00  0.00    +0.010 C 
ATOM     40  C   UNL     1      -0.582   0.244  -3.993  0.00  0.00    +0.010 C 
ENDBRANCH  36  38
ENDBRANCH  33  36
ENDBRANCH  31  33
ENDBRANCH   1  31
TORSDOF 10
