REMARK  Name = ZINC41585682
REMARK  8 active torsions:
REMARK  status: ('A' for Active; 'I' for Inactive)
REMARK    1  A    between atoms: C_1  and  C_2
REMARK    2  A    between atoms: C_4  and  O_35
REMARK    3  A    between atoms: C_5  and  C_20
REMARK    4  A    between atoms: C_11  and  C_12
REMARK    5  A    between atoms: C_20  and  N_21
REMARK    6  A    between atoms: N_24  and  C_27
REMARK    7  A    between atoms: C_30  and  O_33
REMARK    8  A    between atoms: O_33  and  C_34
REMARK                            x       y       z     vdW  Elec       q    Type
REMARK                         _______ _______ _______ _____ _____    ______ ____
ROOT
ATOM      1  C   UNL     1       0.206   2.619   1.076  0.00  0.00    +0.045 C 
ATOM      2  C   UNL     1       0.719   1.257   0.684  0.00  0.00    -0.033 A 
ATOM      3  C   UNL     1       1.272   1.063  -0.551  0.00  0.00    +0.050 A 
ATOM      4  C   UNL     1       1.747  -0.194  -0.915  0.00  0.00    +0.122 A 
ATOM      5  C   UNL     1       1.665  -1.260  -0.034  0.00  0.00    +0.020 A 
ATOM      6  C   UNL     1       1.105  -1.081   1.224  0.00  0.00    +0.145 A 
ATOM      7  C   UNL     1       0.635   0.193   1.582  0.00  0.00    +0.071 A 
ATOM      8  C   UNL     1       0.114   0.073   2.956  0.00  0.00    +0.232 C 
ATOM      9  O   UNL     1      -0.391   0.945   3.642  0.00  0.00    -0.283 OA
ATOM     10  C   UNL     1       0.338  -1.337   3.313  0.00  0.00    +0.176 C 
ATOM     11  C   UNL     1       0.016  -1.926   4.492  0.00  0.00    +0.059 C 
ATOM     12  O   UNL     1       0.912  -1.942   2.247  0.00  0.00    -0.451 OA
ENDROOT
BRANCH  11  13
ATOM     13  C   UNL     1       0.222  -3.369   4.672  0.00  0.00    -0.003 A 
ATOM     14  C   UNL     1       0.502  -4.184   3.568  0.00  0.00    +0.009 A 
ATOM     15  C   UNL     1       0.693  -5.537   3.745  0.00  0.00    +0.001 A 
ATOM     16  C   UNL     1       0.609  -6.093   5.011  0.00  0.00    +0.001 A 
ATOM     17  C   UNL     1       0.332  -5.296   6.108  0.00  0.00    +0.020 A 
ATOM     18  C   UNL     1       0.143  -3.938   5.949  0.00  0.00    +0.048 A 
ATOM     19 CL   UNL     1      -0.196  -2.939   7.328  0.00  0.00    -0.083 Cl
ENDBRANCH  11  13
BRANCH   4  20
ATOM     20  O   UNL     1       2.294  -0.376  -2.144  0.00  0.00    -0.506 OA
ATOM     21  H   UNL     1       3.248  -0.223  -2.176  0.00  0.00    +0.292 HD
ENDBRANCH   4  20
BRANCH   5  22
ATOM     22  C   UNL     1       2.182  -2.616  -0.442  0.00  0.00    -0.035 C 
BRANCH  22  23
ATOM     23  N   UNL     1       3.598  -2.733  -0.067  0.00  0.00    +0.385 N 
ATOM     24  C   UNL     1       4.387  -1.758  -0.831  0.00  0.00    -0.059 C 
ATOM     25  C   UNL     1       5.844  -1.800  -0.359  0.00  0.00    +0.086 C 
ATOM     26  N   UNL     1       6.327  -3.185  -0.460  0.00  0.00    -0.333 N 
ATOM     27  C   UNL     1       5.509  -4.251   0.140  0.00  0.00    +0.086 C 
ATOM     28  C   UNL     1       4.068  -4.093  -0.356  0.00  0.00    -0.059 C 
ATOM     29  H   UNL     1       3.700  -2.545   0.919  0.00  0.00    -0.081 HD
BRANCH  26  30
ATOM     30  C   UNL     1       7.532  -3.482  -1.108  0.00  0.00    +0.030 A 
ATOM     31  C   UNL     1       8.224  -2.482  -1.778  0.00  0.00    +0.027 A 
ATOM     32  C   UNL     1       9.412  -2.776  -2.418  0.00  0.00    +0.047 A 
ATOM     33  C   UNL     1       9.915  -4.068  -2.390  0.00  0.00    +0.120 A 
ATOM     34  C   UNL     1       9.223  -5.067  -1.721  0.00  0.00    +0.047 A 
ATOM     35  C   UNL     1       8.038  -4.775  -1.077  0.00  0.00    +0.027 A 
BRANCH  33  36
ATOM     36  O   UNL     1      11.085  -4.356  -3.020  0.00  0.00    -0.495 OA
ATOM     37  C   UNL     1      11.543  -5.708  -2.951  0.00  0.00    +0.277 C 
ENDBRANCH  33  36
ENDBRANCH  26  30
ENDBRANCH  22  23
ENDBRANCH   5  22
TORSDOF 6
