REMARK  Name = ZINC39531049
REMARK  8 active torsions:
REMARK  status: ('A' for Active; 'I' for Inactive)
REMARK    1  A    between atoms: C_4  and  C_7
REMARK    2  A    between atoms: C_7  and  C_8
REMARK    3  A    between atoms: C_11  and  C_14
REMARK    4  A    between atoms: C_14  and  C_16
REMARK    5  A    between atoms: C_14  and  N_19
REMARK    6  A    between atoms: C_16  and  N_17
REMARK    7  A    between atoms: C_23  and  C_26
REMARK    8  A    between atoms: C_31  and  O_32
REMARK                            x       y       z     vdW  Elec       q    Type
REMARK                         _______ _______ _______ _____ _____    ______ ____
ROOT
ATOM      1  C   UNL     1       5.450  -1.675   5.388  0.00  0.00    +0.101 C 
ENDROOT
BRANCH   1   2
ATOM      2  N   UNL     1       4.312  -2.321   6.056  0.00  0.00    -0.297 NA
ATOM      3  C   UNL     1       4.248  -1.940   7.474  0.00  0.00    +0.066 C 
ATOM      4  C   UNL     1       3.018  -2.584   8.117  0.00  0.00    -0.066 C 
ATOM      5  N   UNL     1       3.107  -4.045   7.989  0.00  0.00    +0.385 N 
ATOM      6  C   UNL     1       3.146  -4.412   6.567  0.00  0.00    -0.023 C 
ATOM      7  C   UNL     1       4.377  -3.782   5.911  0.00  0.00    +0.074 C 
ATOM      8  H   UNL     1       3.947  -4.372   8.443  0.00  0.00    -0.085 HD
ATOM      9  H   UNL     1       2.303  -4.470   8.424  0.00  0.00    -0.085 HD
BRANCH   6  10
ATOM     10  C   UNL     1       3.219  -5.911   6.437  0.00  0.00    -0.019 A 
ATOM     11  C   UNL     1       3.644  -6.678   7.505  0.00  0.00    +0.005 A 
ATOM     12  C   UNL     1       3.712  -8.054   7.386  0.00  0.00    +0.000 A 
ATOM     13  C   UNL     1       3.355  -8.666   6.199  0.00  0.00    +0.004 A 
ATOM     14  C   UNL     1       2.929  -7.904   5.128  0.00  0.00    +0.045 A 
ATOM     15  C   UNL     1       2.855  -6.524   5.247  0.00  0.00    +0.118 A 
BRANCH  15  16
ATOM     16  O   UNL     1       2.430  -5.772   4.197  0.00  0.00    -0.507 OA
ATOM     17  H   UNL     1       3.140  -5.489   3.604  0.00  0.00    +0.292 HD
ENDBRANCH  15  16
ENDBRANCH   6  10
ENDBRANCH   1   2
BRANCH   1  21
ATOM     18  C   UNL     1       4.392  -0.739   1.356  0.00  0.00    -0.043 A 
ATOM     19  C   UNL     1       5.055   0.194   2.131  0.00  0.00    +0.004 A 
ATOM     20  C   UNL     1       5.397  -0.108   3.436  0.00  0.00    +0.005 A 
ATOM     21  C   UNL     1       5.076  -1.344   3.966  0.00  0.00    -0.029 A 
ATOM     22  C   UNL     1       4.412  -2.277   3.191  0.00  0.00    +0.005 A 
ATOM     23  C   UNL     1       4.066  -1.973   1.888  0.00  0.00    +0.004 A 
BRANCH  18  24
ATOM     24  C   UNL     1       4.019  -0.408  -0.066  0.00  0.00    +0.070 C 
BRANCH  24  28
ATOM     25  C   UNL     1       0.140   1.380  -0.144  0.00  0.00    +0.000 A 
ATOM     26  C   UNL     1       1.265   2.173  -0.009  0.00  0.00    +0.000 A 
ATOM     27  C   UNL     1       2.520   1.594   0.016  0.00  0.00    +0.004 A 
ATOM     28  C   UNL     1       2.650   0.223  -0.093  0.00  0.00    -0.043 A 
ATOM     29  C   UNL     1       1.526  -0.570  -0.226  0.00  0.00    +0.004 A 
ATOM     30  C   UNL     1       0.271   0.009  -0.253  0.00  0.00    +0.000 A 
ENDBRANCH  24  28
ENDBRANCH  18  24
ENDBRANCH   1  21
BRANCH   1  31
ATOM     31  C   UNL     1       6.650  -2.624   5.392  0.00  0.00    +0.115 C 
BRANCH  31  32
ATOM     32  N   UNL     1       6.976  -2.995   6.776  0.00  0.00    -0.259 NA
ATOM     33  I   UNL     1       8.581  -4.269   6.836  0.00  0.00    +0.018 I 
ATOM     34  H   UNL     1       7.144  -2.175   7.340  0.00  0.00    +0.134 HD
ENDBRANCH  31  32
ENDBRANCH   1  31
TORSDOF 8
