REMARK  Name = ZINC47956480
REMARK  7 active torsions:
REMARK  status: ('A' for Active; 'I' for Inactive)
REMARK    1  A    between atoms: C_1  and  C_2
REMARK    2  A    between atoms: C_6  and  C_8
REMARK    3  A    between atoms: C_8  and  N_9
REMARK    4  A    between atoms: N_12  and  C_13
REMARK    5  A    between atoms: C_13  and  C_14
REMARK    6  A    between atoms: C_14  and  C_16
REMARK    7  A    between atoms: C_14  and  N_21
REMARK                            x       y       z     vdW  Elec       q    Type
REMARK                         _______ _______ _______ _____ _____    ______ ____
ROOT
ATOM      1  N   UNL     1       1.471  -2.711   3.124  0.00  0.00    -0.295 N 
ATOM      2  C   UNL     1       1.725  -3.460   4.216  0.00  0.00    +0.300 C 
ATOM      3  O   UNL     1       0.817  -3.775   4.961  0.00  0.00    -0.253 OA
ATOM      4  N   UNL     1       2.984  -3.861   4.481  0.00  0.00    -0.301 N 
ATOM      5  H   UNL     1       2.195  -2.459   2.530  0.00  0.00    +0.151 HD
ATOM      6  H   UNL     1       3.708  -3.609   3.886  0.00  0.00    +0.150 HD
ENDROOT
BRANCH   1   7
ATOM      7  C   UNL     1       0.102  -2.276   2.837  0.00  0.00    +0.141 C 
BRANCH   7  13
ATOM      8  C   UNL     1       0.446   2.156   0.536  0.00  0.00    +0.044 C 
ATOM      9  C   UNL     1       0.255   0.662   0.470  0.00  0.00    -0.050 A 
ATOM     10  C   UNL     1       0.069   0.043  -0.751  0.00  0.00    +0.003 A 
ATOM     11  C   UNL     1      -0.106  -1.327  -0.812  0.00  0.00    +0.001 A 
ATOM     12  C   UNL     1      -0.095  -2.077   0.349  0.00  0.00    +0.005 A 
ATOM     13  C   UNL     1       0.091  -1.458   1.571  0.00  0.00    -0.030 A 
ATOM     14  C   UNL     1       0.271  -0.088   1.631  0.00  0.00    +0.008 A 
ENDBRANCH   7  13
ENDBRANCH   1   7
BRANCH   4  15
ATOM     15  C   UNL     1       3.260  -4.675   5.667  0.00  0.00    +0.095 C 
BRANCH  15  16
ATOM     16  C   UNL     1       4.769  -4.882   5.804  0.00  0.00    -0.013 C 
BRANCH  16  17
ATOM     17  N   UNL     1       5.038  -5.806   6.913  0.00  0.00    +0.386 N 
ATOM     18  C   UNL     1       6.498  -5.935   7.112  0.00  0.00    -0.078 C 
ATOM     19  C   UNL     1       6.714  -7.416   7.510  0.00  0.00    -0.020 C 
ATOM     20  C   UNL     1       5.665  -8.136   6.622  0.00  0.00    -0.020 C 
ATOM     21  C   UNL     1       4.489  -7.137   6.595  0.00  0.00    -0.078 C 
ATOM     22  H   UNL     1       4.612  -5.457   7.759  0.00  0.00    -0.081 HD
ENDBRANCH  16  17
BRANCH  16  23
ATOM     23  C   UNL     1       5.435  -3.558   6.080  0.00  0.00    -0.022 A 
ATOM     24  C   UNL     1       6.083  -2.733   5.223  0.00  0.00    +0.009 A 
ATOM     25  C   UNL     1       6.621  -1.554   5.704  0.00  0.00    +0.008 A 
ATOM     26  C   UNL     1       6.484  -1.258   7.020  0.00  0.00    +0.045 A 
ATOM     27  S   UNL     1       5.566  -2.666   7.621  0.00  0.00    -0.103 S 
ENDBRANCH  16  23
ENDBRANCH  15  16
ENDBRANCH   4  15
TORSDOF 6
