REMARK  Name = ZINC11815109
REMARK  9 active torsions:
REMARK  status: ('A' for Active; 'I' for Inactive)
REMARK    1  A    between atoms: C_1  and  C_2
REMARK    2  A    between atoms: C_2  and  O_3
REMARK    3  A    between atoms: O_3  and  C_4
REMARK    4  A    between atoms: C_9  and  C_10
REMARK    5  A    between atoms: C_10  and  N_59
REMARK    6  A    between atoms: C_16  and  C_18
REMARK    7  A    between atoms: C_18  and  C_19
REMARK    8  A    between atoms: N_21  and  C_22
REMARK    9  A    between atoms: C_22  and  C_23
REMARK                            x       y       z     vdW  Elec       q    Type
REMARK                         _______ _______ _______ _____ _____    ______ ____
ROOT
ATOM      1  C   UNL     1     -10.705   1.615  -2.299  0.00  0.00    -0.058 C 
ATOM      2  C   UNL     1     -11.126   1.468  -3.763  0.00  0.00    +0.085 C 
ATOM      3  N   UNL     1     -10.442   2.463  -4.582  0.00  0.00    -0.318 N 
ATOM      4  C   UNL     1      -9.343   3.108  -4.176  0.00  0.00    +0.200 C 
ATOM      5  O   UNL     1      -8.819   3.898  -4.934  0.00  0.00    -0.278 OA
ATOM      6  C   UNL     1      -8.730   2.896  -2.821  0.00  0.00    +0.028 C 
ATOM      7  H   UNL     1     -10.800   2.666  -5.461  0.00  0.00    +0.149 HD
ATOM      8  N   UNL     1      -9.230   1.632  -2.247  0.00  0.00    +0.391 N 
ATOM      9  H   UNL     1      -8.865   0.846  -2.798  0.00  0.00    -0.080 HD
ENDROOT
BRANCH   8  10
ATOM     10  C   UNL     1      -8.768   1.494  -0.847  0.00  0.00    -0.038 C 
BRANCH  10  16
ATOM     11  C   UNL     1      -8.061  -0.911  -0.785  0.00  0.00    +0.122 A 
ATOM     12  C   UNL     1      -8.249  -2.224  -0.377  0.00  0.00    +0.046 A 
ATOM     13  C   UNL     1      -9.338  -2.553   0.406  0.00  0.00    +0.004 A 
ATOM     14  C   UNL     1     -10.242  -1.577   0.782  0.00  0.00    +0.000 A 
ATOM     15  C   UNL     1     -10.055  -0.267   0.381  0.00  0.00    +0.005 A 
ATOM     16  C   UNL     1      -8.969   0.067  -0.406  0.00  0.00    -0.022 A 
BRANCH  11  17
ATOM     17  O   UNL     1      -6.990  -0.584  -1.555  0.00  0.00    -0.492 OA
BRANCH  17  19
ATOM     18  C   UNL     1      -4.962  -1.086  -2.768  0.00  0.00    +0.048 C 
ATOM     19  C   UNL     1      -6.097  -1.642  -1.907  0.00  0.00    +0.225 C 
ENDBRANCH  17  19
ENDBRANCH  11  17
ENDBRANCH  10  16
ENDBRANCH   8  10
BRANCH   6  20
ATOM     20  C   UNL     1      -7.209   2.812  -2.959  0.00  0.00    +0.089 C 
BRANCH  20  21
ATOM     21  C   UNL     1      -6.671   4.145  -3.414  0.00  0.00    +0.212 C 
ATOM     22  O   UNL     1      -7.409   5.105  -3.480  0.00  0.00    -0.276 OA
ATOM     23  N   UNL     1      -5.372   4.269  -3.748  0.00  0.00    -0.310 N 
ATOM     24  H   UNL     1      -4.782   3.501  -3.696  0.00  0.00    +0.149 HD
BRANCH  23  25
ATOM     25  C   UNL     1      -4.849   5.564  -4.191  0.00  0.00    +0.157 C 
BRANCH  25  26
ATOM     26  C   UNL     1      -3.381   5.434  -4.501  0.00  0.00    +0.034 A 
ATOM     27  C   UNL     1      -2.384   5.718  -3.647  0.00  0.00    +0.032 A 
ATOM     28  C   UNL     1      -1.128   5.449  -4.350  0.00  0.00    +0.003 A 
ATOM     29  C   UNL     1       0.221   5.557  -4.001  0.00  0.00    +0.048 A 
ATOM     30  C   UNL     1       1.191   5.222  -4.921  0.00  0.00    +0.124 A 
ATOM     31  C   UNL     1       0.833   4.784  -6.191  0.00  0.00    +0.040 A 
ATOM     32  C   UNL     1      -0.492   4.678  -6.550  0.00  0.00    +0.029 A 
ATOM     33  C   UNL     1      -1.488   5.011  -5.637  0.00  0.00    +0.047 A 
ATOM     34  N   UNL     1      -2.865   5.010  -5.695  0.00  0.00    -0.357 N 
ATOM     35  H   UNL     1      -3.389   4.748  -6.467  0.00  0.00    +0.166 HD
ATOM     36  F   UNL     1       2.496   5.319  -4.586  0.00  0.00    -0.205 F 
ENDBRANCH  25  26
ENDBRANCH  23  25
ENDBRANCH  20  21
ENDBRANCH   6  20
TORSDOF 8
