REMARK  Name = ZINC62789188
REMARK  4 active torsions:
REMARK  status: ('A' for Active; 'I' for Inactive)
REMARK    1  A    between atoms: C_3  and  N_19
REMARK    2  A    between atoms: C_6  and  O_7
REMARK    3  A    between atoms: O_7  and  C_8
REMARK    4  A    between atoms: C_13  and  C_14
REMARK                            x       y       z     vdW  Elec       q    Type
REMARK                         _______ _______ _______ _____ _____    ______ ____
ROOT
ATOM      1  C   UNL     1      -1.099  -2.062  -0.212  0.00  0.00    +0.140 A 
ATOM      2  C   UNL     1       0.127  -2.709  -0.213  0.00  0.00    +0.067 A 
ATOM      3  C   UNL     1       0.180  -4.090  -0.207  0.00  0.00    +0.044 A 
ATOM      4  C   UNL     1      -0.988  -4.837  -0.199  0.00  0.00    +0.021 A 
ATOM      5  C   UNL     1      -2.214  -4.208  -0.197  0.00  0.00    +0.016 A 
ATOM      6  C   UNL     1      -2.282  -2.813  -0.198  0.00  0.00    +0.054 A 
ATOM      7 CL   UNL     1       1.719  -4.895  -0.209  0.00  0.00    -0.083 Cl
ENDROOT
BRANCH   6   8
ATOM      8  C   UNL     1      -3.592  -2.134  -0.191  0.00  0.00    +0.098 C 
ATOM      9  N   UNL     1      -4.492  -2.411  -1.135  0.00  0.00    -0.387 N 
ATOM     10  N   UNL     1      -3.876  -1.243   0.759  0.00  0.00    -0.344 N 
ATOM     11  H   UNL     1      -5.381  -2.026  -1.085  0.00  0.00    +0.157 HD
ATOM     12  H   UNL     1      -3.222  -1.042   1.446  0.00  0.00    +0.144 HD
ATOM     13  H   UNL     1      -4.737  -0.797   0.764  0.00  0.00    +0.144 HD
ATOM     14  H   UNL     1      -4.258  -2.997  -1.871  0.00  0.00    +0.157 HD
ENDBRANCH   6   8
BRANCH   1  15
ATOM     15  O   UNL     1      -1.153  -0.706  -0.218  0.00  0.00    -0.455 OA
BRANCH  15  21
ATOM     16  C   UNL     1       0.501   0.548  -1.380  0.00  0.00    +0.048 A 
ATOM     17  C   UNL     1       1.694   1.245  -1.370  0.00  0.00    +0.039 A 
ATOM     18  C   UNL     1       2.409   1.377  -0.195  0.00  0.00    +0.161 A 
ATOM     19  C   UNL     1       1.932   0.811   0.976  0.00  0.00    +0.157 A 
ATOM     20  C   UNL     1       0.739   0.112   0.970  0.00  0.00    +0.087 A 
ATOM     21  C   UNL     1       0.020  -0.021  -0.209  0.00  0.00    +0.131 A 
ATOM     22  F   UNL     1       2.633   0.941   2.124  0.00  0.00    -0.203 F 
BRANCH  18  23
ATOM     23  N   UNL     1       3.687   2.125  -0.187  0.00  0.00    +0.059 N 
ATOM     24  O   UNL     1       4.104   2.619  -1.209  0.00  0.00    -0.126 OA
ATOM     25  O   UNL     1       4.313   2.241   0.840  0.00  0.00    -0.126 OA
ENDBRANCH  18  23
ENDBRANCH  15  21
ENDBRANCH   1  15
TORSDOF 4
