REMARK  Name = ZINC63425519
REMARK  12 active torsions:
REMARK  status: ('A' for Active; 'I' for Inactive)
REMARK    1  A    between atoms: C_1  and  C_2
REMARK    2  A    between atoms: C_7  and  C_13
REMARK    3  A    between atoms: N_14  and  N_15
REMARK    4  A    between atoms: C_16  and  C_18
REMARK    5  A    between atoms: C_18  and  C_20
REMARK    6  A    between atoms: C_18  and  N_30
REMARK    7  A    between atoms: C_20  and  C_21
REMARK    8  A    between atoms: C_31  and  O_33
REMARK    9  A    between atoms: O_33  and  C_34
REMARK   10  A    between atoms: C_34  and  C_35
REMARK   11  A    between atoms: C_34  and  C_36
REMARK   12  A    between atoms: C_34  and  C_37
REMARK                            x       y       z     vdW  Elec       q    Type
REMARK                         _______ _______ _______ _____ _____    ______ ____
ROOT
ATOM      1  C   UNL     1       0.162 -10.447   3.674  0.00  0.00    +0.168 C 
ENDROOT
BRANCH   1   3
ATOM      2  N   UNL     1       0.127  -8.312   2.425  0.00  0.00    -0.205 N 
ATOM      3  C   UNL     1       0.141  -8.941   3.617  0.00  0.00    +0.253 C 
ATOM      4  O   UNL     1       0.138  -8.296   4.644  0.00  0.00    -0.272 OA
ATOM      5  H   UNL     1       0.129  -8.829   1.604  0.00  0.00    +0.177 HD
BRANCH   2   7
ATOM      6  C   UNL     1       0.093  -6.307   1.224  0.00  0.00    +0.141 C 
ATOM      7  N   UNL     1       0.108  -6.912   2.372  0.00  0.00    -0.188 NA
BRANCH   6  14
ATOM      8  C   UNL     1      -0.018   1.503   0.010  0.00  0.00    +0.044 C 
ATOM      9  C   UNL     1       0.002  -0.004   0.002  0.00  0.00    -0.048 A 
ATOM     10  C   UNL     1       0.005  -0.683  -1.215  0.00  0.00    +0.004 A 
ATOM     11  C   UNL     1       0.023  -2.043  -1.255  0.00  0.00    +0.010 A 
ATOM     12  C   UNL     1       0.039  -2.774  -0.054  0.00  0.00    +0.001 A 
ATOM     13  C   UNL     1       0.058  -4.179  -0.058  0.00  0.00    +0.022 A 
ATOM     14  C   UNL     1       0.073  -4.834   1.169  0.00  0.00    +0.032 A 
ATOM     15  C   UNL     1       0.069  -4.078   2.357  0.00  0.00    +0.139 A 
ATOM     16  N   UNL     1       0.051  -2.769   2.335  0.00  0.00    -0.235 NA
ATOM     17  C   UNL     1       0.036  -2.085   1.185  0.00  0.00    +0.073 A 
ATOM     18  C   UNL     1       0.022  -0.680   1.184  0.00  0.00    +0.031 A 
ATOM     19 CL   UNL     1       0.088  -4.900   3.886  0.00  0.00    -0.061 Cl
ENDBRANCH   6  14
ENDBRANCH   2   7
ENDBRANCH   1   3
BRANCH   1  20
ATOM     20  N   UNL     1       0.647 -10.880   4.987  0.00  0.00    -0.269 N 
ATOM     21  C   UNL     1      -0.018 -10.520   6.103  0.00  0.00    +0.401 C 
ATOM     22  O   UNL     1      -1.020  -9.838   6.020  0.00  0.00    -0.226 OA
ATOM     23  H   UNL     1       1.447 -11.424   5.053  0.00  0.00    +0.153 HD
BRANCH  21  24
ATOM     24  O   UNL     1       0.427 -10.918   7.310  0.00  0.00    -0.445 OA
BRANCH  24  25
ATOM     25  C   UNL     1      -0.327 -10.501   8.450  0.00  0.00    +0.107 C 
ATOM     26  C   UNL     1      -1.755 -11.039   8.341  0.00  0.00    +0.055 C 
ATOM     27  C   UNL     1       0.328 -11.044   9.721  0.00  0.00    +0.055 C 
ATOM     28  C   UNL     1      -0.361  -8.972   8.507  0.00  0.00    +0.055 C 
ENDBRANCH  24  25
ENDBRANCH  21  24
ENDBRANCH   1  20
BRANCH   1  29
ATOM     29  C   UNL     1      -1.253 -10.985   3.451  0.00  0.00    +0.065 C 
BRANCH  29  30
ATOM     30  C   UNL     1      -1.214 -12.490   3.385  0.00  0.00    -0.039 C 
ATOM     31  C   UNL     1      -1.440 -13.355   4.401  0.00  0.00    -0.001 A 
ATOM     32  C   UNL     1      -1.777 -13.160   5.816  0.00  0.00    +0.010 A 
ATOM     33  C   UNL     1      -1.946 -14.245   6.606  0.00  0.00    +0.001 A 
ATOM     34  C   UNL     1      -1.807 -15.547   6.108  0.00  0.00    +0.002 A 
ATOM     35  C   UNL     1      -1.499 -15.807   4.819  0.00  0.00    +0.026 A 
ATOM     36  C   UNL     1      -1.300 -14.740   3.899  0.00  0.00    +0.043 A 
ATOM     37  N   UNL     1      -0.998 -14.733   2.623  0.00  0.00    -0.380 N 
ATOM     38  C   UNL     1      -0.919 -13.340   2.170  0.00  0.00    +0.144 C 
ATOM     39  H   UNL     1      -0.856 -15.518   2.071  0.00  0.00    +0.160 HD
ENDBRANCH  29  30
ENDBRANCH   1  29
TORSDOF 8
