REMARK  Name = ZINC37359927
REMARK  8 active torsions:
REMARK  status: ('A' for Active; 'I' for Inactive)
REMARK    1  A    between atoms: C_1  and  O_2
REMARK    2  A    between atoms: O_2  and  C_3
REMARK    3  A    between atoms: C_6  and  N_9
REMARK    4  A    between atoms: C_10  and  N_35
REMARK    5  A    between atoms: C_12  and  C_27
REMARK    6  A    between atoms: N_18  and  C_19
REMARK    7  A    between atoms: C_19  and  C_20
REMARK    8  A    between atoms: C_20  and  N_21
REMARK                            x       y       z     vdW  Elec       q    Type
REMARK                         _______ _______ _______ _____ _____    ______ ____
ROOT
ATOM      1  N   UNL     1       2.307  -2.333   4.553  0.00  0.00    -0.216 N 
ATOM      2  C   UNL     1       1.976  -3.539   5.054  0.00  0.00    +0.131 A 
ATOM      3  C   UNL     1       2.962  -3.897   5.966  0.00  0.00    +0.086 A 
ATOM      4  C   UNL     1       3.205  -5.004   6.810  0.00  0.00    +0.091 A 
ATOM      5  N   UNL     1       4.295  -4.988   7.568  0.00  0.00    -0.214 NA
ATOM      6  C   UNL     1       5.152  -3.972   7.553  0.00  0.00    +0.218 A 
ATOM      7  N   UNL     1       5.003  -2.903   6.798  0.00  0.00    -0.193 NA
ATOM      8  C   UNL     1       3.938  -2.792   5.981  0.00  0.00    +0.189 A 
ATOM      9  N   UNL     1       3.507  -1.893   5.123  0.00  0.00    -0.144 NA
ATOM     10  N   UNL     1       6.262  -4.041   8.377  0.00  0.00    -0.315 N 
ATOM     11  H   UNL     1       6.398  -4.816   8.944  0.00  0.00    +0.149 HD
ENDROOT
BRANCH   4  12
ATOM     12  C   UNL     1       2.270  -6.149   6.849  0.00  0.00    +0.039 A 
ATOM     13  C   UNL     1       1.990  -6.866   5.684  0.00  0.00    +0.013 A 
ATOM     14  C   UNL     1       1.118  -7.933   5.726  0.00  0.00    +0.004 A 
ATOM     15  C   UNL     1       0.518  -8.296   6.919  0.00  0.00    +0.041 A 
ATOM     16  C   UNL     1       0.788  -7.592   8.079  0.00  0.00    +0.159 A 
ATOM     17  C   UNL     1       1.667  -6.522   8.053  0.00  0.00    +0.168 A 
ATOM     18  F   UNL     1       1.937  -5.838   9.186  0.00  0.00    -0.202 F 
ATOM     19  F   UNL     1       0.199  -7.953   9.240  0.00  0.00    -0.202 F 
ENDBRANCH   4  12
BRANCH   1  23
ATOM     20  C   UNL     1       0.092  -0.230   1.714  0.00  0.00    +0.120 A 
ATOM     21  C   UNL     1       0.771   0.456   2.711  0.00  0.00    +0.048 A 
ATOM     22  C   UNL     1       1.505  -0.239   3.651  0.00  0.00    +0.031 A 
ATOM     23  C   UNL     1       1.562  -1.626   3.599  0.00  0.00    +0.068 A 
ATOM     24  C   UNL     1       0.882  -2.312   2.602  0.00  0.00    +0.031 A 
ATOM     25  C   UNL     1       0.144  -1.615   1.665  0.00  0.00    +0.048 A 
BRANCH  20  27
ATOM     26  C   UNL     1      -0.640   1.881   0.899  0.00  0.00    +0.277 C 
ATOM     27  O   UNL     1      -0.630   0.456   0.789  0.00  0.00    -0.495 OA
ENDBRANCH  20  27
ENDBRANCH   1  23
BRANCH   2  28
ATOM     28  N   UNL     1       0.860  -4.284   4.722  0.00  0.00    -0.342 N 
ATOM     29  H   UNL     1       0.182  -3.908   4.139  0.00  0.00    +0.144 HD
ATOM     30  H   UNL     1       0.755  -5.183   5.072  0.00  0.00    +0.144 HD
ENDBRANCH   2  28
BRANCH  10  31
ATOM     31  C   UNL     1       7.232  -2.943   8.392  0.00  0.00    +0.086 C 
BRANCH  31  32
ATOM     32  C   UNL     1       8.354  -3.267   9.380  0.00  0.00    -0.060 C 
BRANCH  32  33
ATOM     33  N   UNL     1       9.326  -2.166   9.395  0.00  0.00    +0.381 N 
ATOM     34  C   UNL     1       9.972  -2.067   8.081  0.00  0.00    -0.079 C 
ATOM     35  C   UNL     1      10.927  -0.872   8.066  0.00  0.00    -0.019 C 
ATOM     36  C   UNL     1      11.994  -1.064   9.147  0.00  0.00    -0.004 C 
ATOM     37  C   UNL     1      11.306  -1.241  10.503  0.00  0.00    -0.019 C 
ATOM     38  C   UNL     1      10.337  -2.423  10.428  0.00  0.00    -0.079 C 
ATOM     39  H   UNL     1       8.850  -1.301   9.600  0.00  0.00    -0.082 HD
ENDBRANCH  32  33
ENDBRANCH  31  32
ENDBRANCH  10  31
TORSDOF 7
