REMARK  Name = ZINC09712602
REMARK  11 active torsions:
REMARK  status: ('A' for Active; 'I' for Inactive)
REMARK    1  A    between atoms: C_1  and  C_2
REMARK    2  A    between atoms: C_2  and  O_3
REMARK    3  A    between atoms: O_3  and  C_4
REMARK    4  A    between atoms: C_6  and  C_16
REMARK    5  A    between atoms: C_9  and  O_10
REMARK    6  A    between atoms: O_10  and  C_11
REMARK    7  A    between atoms: C_11  and  C_12
REMARK    8  A    between atoms: C_16  and  N_47
REMARK    9  A    between atoms: C_17  and  C_19
REMARK   10  A    between atoms: C_17  and  C_20
REMARK   11  A    between atoms: C_17  and  N_47
REMARK                            x       y       z     vdW  Elec       q    Type
REMARK                         _______ _______ _______ _____ _____    ______ ____
ROOT
ATOM      1  C   UNL     1       0.807   1.987   2.993  0.00  0.00    +0.163 A 
ATOM      2  C   UNL     1       1.347   1.611   4.212  0.00  0.00    +0.051 A 
ATOM      3  C   UNL     1       0.938   0.438   4.818  0.00  0.00    -0.060 A 
ATOM      4  C   UNL     1      -0.011  -0.363   4.210  0.00  0.00    +0.021 A 
ATOM      5  C   UNL     1      -0.559   0.009   2.996  0.00  0.00    +0.063 A 
ATOM      6  C   UNL     1      -0.148   1.182   2.381  0.00  0.00    +0.176 A 
ATOM      7 BR   UNL     1      -1.863  -1.084   2.172  0.00  0.00    -0.046 Br
ENDROOT
BRANCH   1   8
ATOM      8  O   UNL     1       1.209   3.141   2.396  0.00  0.00    -0.489 OA
BRANCH   8  10
ATOM      9  C   UNL     1       2.516   5.169   2.264  0.00  0.00    +0.048 C 
ATOM     10  C   UNL     1       2.192   3.918   3.083  0.00  0.00    +0.226 C 
ENDBRANCH   8  10
ENDBRANCH   1   8
BRANCH   6  11
ATOM     11  O   UNL     1      -0.682   1.547   1.184  0.00  0.00    -0.478 OA
BRANCH  11  12
ATOM     12  C   UNL     1      -0.013   1.086   0.008  0.00  0.00    +0.324 C 
BRANCH  12  13
ATOM     13  C   UNL     1      -0.742   1.585  -1.213  0.00  0.00    +0.248 C 
ATOM     14  O   UNL     1      -1.736   2.268  -1.088  0.00  0.00    -0.272 OA
ATOM     15  N   UNL     1      -0.288   1.272  -2.443  0.00  0.00    -0.327 N 
ATOM     16  H   UNL     1       0.507   0.726  -2.543  0.00  0.00    +0.145 HD
ATOM     17  H   UNL     1      -0.758   1.594  -3.229  0.00  0.00    +0.145 HD
ENDBRANCH  12  13
ENDBRANCH  11  12
ENDBRANCH   6  11
BRANCH   3  18
ATOM     18  C   UNL     1       1.527   0.031   6.144  0.00  0.00    -0.046 C 
BRANCH  18  19
ATOM     19  N   UNL     1       0.706   0.595   7.232  0.00  0.00    +0.386 N 
ATOM     20  H   UNL     1      -0.254   0.237   7.152  0.00  0.00    -0.085 HD
ATOM     21  H   UNL     1       0.697   1.618   7.154  0.00  0.00    -0.085 HD
BRANCH  19  22
ATOM     22  C   UNL     1       1.260   0.211   8.544  0.00  0.00    -0.042 C 
ATOM     23  C   UNL     1       0.728  -1.167   8.940  0.00  0.00    -0.009 C 
BRANCH  22  24
ATOM     24  C   UNL     1       0.841   1.228   9.574  0.00  0.00    -0.041 A 
ATOM     25  C   UNL     1      -0.300   1.982   9.375  0.00  0.00    +0.043 A 
ATOM     26  C   UNL     1      -0.689   2.912  10.324  0.00  0.00    +0.142 A 
ATOM     27  C   UNL     1       0.072   3.094  11.468  0.00  0.00    +0.077 A 
ATOM     28  C   UNL     1       1.216   2.342  11.662  0.00  0.00    +0.043 A 
ATOM     29  C   UNL     1       1.601   1.409  10.716  0.00  0.00    +0.044 A 
ATOM     30 CL   UNL     1       3.037   0.466  10.960  0.00  0.00    -0.083 Cl
ATOM     31 CL   UNL     1      -0.411   4.264  12.655  0.00  0.00    -0.081 Cl
ATOM     32  F   UNL     1      -1.808   3.646  10.133  0.00  0.00    -0.204 F 
ENDBRANCH  22  24
ENDBRANCH  19  22
ENDBRANCH  18  19
ENDBRANCH   3  18
TORSDOF 9
