REMARK  Name = ZINC63375743
REMARK  9 active torsions:
REMARK  status: ('A' for Active; 'I' for Inactive)
REMARK    1  A    between atoms: C_1  and  C_2
REMARK    2  A    between atoms: C_2  and  C_3
REMARK    3  A    between atoms: C_2  and  C_4
REMARK    4  A    between atoms: C_4  and  N_5
REMARK    5  A    between atoms: C_6  and  C_8
REMARK    6  A    between atoms: C_13  and  N_14
REMARK    7  A    between atoms: C_30  and  C_35
REMARK    8  A    between atoms: C_38  and  O_41
REMARK    9  A    between atoms: O_41  and  C_42
REMARK                            x       y       z     vdW  Elec       q    Type
REMARK                         _______ _______ _______ _____ _____    ______ ____
ROOT
ATOM      1  N   UNL     1      -6.412  -1.304  -2.218  0.00  0.00    -0.192 N 
ATOM      2  C   UNL     1      -7.104  -0.737  -1.208  0.00  0.00    +0.248 C 
ATOM      3  O   UNL     1      -7.306   0.445  -1.031  0.00  0.00    -0.273 OA
ATOM      4  C   UNL     1      -7.576  -1.885  -0.341  0.00  0.00    +0.169 C 
ATOM      5  C   UNL     1      -7.035  -1.719   1.090  0.00  0.00    +0.065 C 
ATOM      6  C   UNL     1      -7.018  -3.101   1.701  0.00  0.00    -0.034 C 
ATOM      7  C   UNL     1      -7.556  -3.556   2.827  0.00  0.00    -0.001 A 
ATOM      8  C   UNL     1      -8.266  -2.871   3.919  0.00  0.00    +0.010 A 
ATOM      9  C   UNL     1      -8.710  -3.659   4.933  0.00  0.00    +0.001 A 
ATOM     10  C   UNL     1      -8.519  -5.044   4.971  0.00  0.00    +0.002 A 
ATOM     11  C   UNL     1      -7.870  -5.755   4.015  0.00  0.00    +0.026 A 
ATOM     12  C   UNL     1      -7.352  -5.035   2.900  0.00  0.00    +0.043 A 
ATOM     13  N   UNL     1      -6.683  -5.452   1.866  0.00  0.00    -0.375 N 
ATOM     14  C   UNL     1      -6.333  -4.292   1.043  0.00  0.00    +0.131 C 
ATOM     15  C   UNL     1      -6.910  -4.413  -0.375  0.00  0.00    +0.135 C 
ATOM     16  N   UNL     1      -6.936  -3.062  -0.962  0.00  0.00    -0.264 N 
ATOM     17  C   UNL     1      -6.352  -2.637  -2.089  0.00  0.00    +0.317 C 
ATOM     18  O   UNL     1      -5.825  -3.373  -2.900  0.00  0.00    -0.252 OA
ATOM     19  H   UNL     1      -6.454  -6.374   1.673  0.00  0.00    +0.160 HD
ENDROOT
BRANCH   1  25
ATOM     20  C   UNL     1      -4.518  -0.122  -3.166  0.00  0.00    +0.059 A 
ATOM     21  C   UNL     1      -3.950   0.585  -4.227  0.00  0.00    +0.015 A 
ATOM     22  C   UNL     1      -4.688   0.823  -5.367  0.00  0.00    +0.001 A 
ATOM     23  C   UNL     1      -5.991   0.364  -5.465  0.00  0.00    +0.002 A 
ATOM     24  C   UNL     1      -6.565  -0.337  -4.423  0.00  0.00    +0.025 A 
ATOM     25  C   UNL     1      -5.835  -0.591  -3.270  0.00  0.00    +0.058 A 
BRANCH  20  27
ATOM     26  N   UNL     1      -2.467   0.071  -1.846  0.00  0.00    -0.311 N 
ATOM     27  C   UNL     1      -3.733  -0.381  -1.943  0.00  0.00    +0.246 C 
ATOM     28  O   UNL     1      -4.229  -1.002  -1.022  0.00  0.00    -0.270 OA
ATOM     29  H   UNL     1      -2.072   0.566  -2.580  0.00  0.00    +0.149 HD
BRANCH  26  30
ATOM     30  C   UNL     1      -1.689  -0.186  -0.632  0.00  0.00    +0.107 C 
BRANCH  30  32
ATOM     31  C   UNL     1      -0.417   1.951  -0.868  0.00  0.00    +0.009 C 
ATOM     32  C   UNL     1      -0.295   0.429  -0.780  0.00  0.00    -0.000 C 
ATOM     33  C   UNL     1       0.559   0.055   0.433  0.00  0.00    +0.009 C 
ENDBRANCH  30  32
ENDBRANCH  26  30
ENDBRANCH  20  27
ENDBRANCH   1  25
BRANCH  15  34
ATOM     34  C   UNL     1      -6.044  -5.322  -1.208  0.00  0.00    -0.024 A 
ATOM     35  C   UNL     1      -4.706  -5.024  -1.388  0.00  0.00    +0.009 A 
ATOM     36  C   UNL     1      -3.909  -5.856  -2.152  0.00  0.00    +0.046 A 
ATOM     37  C   UNL     1      -4.453  -6.990  -2.738  0.00  0.00    +0.120 A 
ATOM     38  C   UNL     1      -5.796  -7.286  -2.555  0.00  0.00    +0.046 A 
ATOM     39  C   UNL     1      -6.587  -6.454  -1.786  0.00  0.00    +0.009 A 
BRANCH  37  40
ATOM     40  O   UNL     1      -3.672  -7.809  -3.490  0.00  0.00    -0.495 OA
ATOM     41  C   UNL     1      -4.299  -8.958  -4.062  0.00  0.00    +0.277 C 
ENDBRANCH  37  40
ENDBRANCH  15  34
TORSDOF 6
