REMARK  Name = ZINC63362196
REMARK  8 active torsions:
REMARK  status: ('A' for Active; 'I' for Inactive)
REMARK    1  A    between atoms: C_1  and  C_2
REMARK    2  A    between atoms: C_2  and  C_4
REMARK    3  A    between atoms: C_2  and  N_10
REMARK    4  A    between atoms: C_11  and  C_13
REMARK    5  A    between atoms: C_18  and  N_19
REMARK    6  A    between atoms: C_22  and  C_40
REMARK    7  A    between atoms: C_28  and  O_33
REMARK    8  A    between atoms: O_33  and  C_34
REMARK                            x       y       z     vdW  Elec       q    Type
REMARK                         _______ _______ _______ _____ _____    ______ ____
ROOT
ATOM      1  N   UNL     1      -3.419  -0.889   4.030  0.00  0.00    -0.192 N 
ATOM      2  C   UNL     1      -3.630   0.228   4.758  0.00  0.00    +0.253 C 
ATOM      3  O   UNL     1      -4.278   1.200   4.436  0.00  0.00    -0.272 OA
ATOM      4  C   UNL     1      -2.890   0.012   6.059  0.00  0.00    +0.137 C 
ATOM      5  C   UNL     1      -1.838   1.101   6.267  0.00  0.00    +0.139 C 
ATOM      6  C   UNL     1      -0.472   0.444   6.127  0.00  0.00    -0.034 C 
ATOM      7  C   UNL     1       0.169   1.120   5.177  0.00  0.00    +0.003 A 
ATOM      8  C   UNL     1       1.535   1.002   4.644  0.00  0.00    +0.055 A 
ATOM      9  C   UNL     1       1.876   1.862   3.645  0.00  0.00    +0.121 A 
ATOM     10  C   UNL     1       1.010   2.829   3.113  0.00  0.00    +0.047 A 
ATOM     11  C   UNL     1      -0.266   3.026   3.533  0.00  0.00    +0.029 A 
ATOM     12  C   UNL     1      -0.749   2.158   4.616  0.00  0.00    +0.043 A 
ATOM     13  N   UNL     1      -1.910   2.133   5.230  0.00  0.00    -0.375 N 
ATOM     14  C   UNL     1      -0.049  -0.778   6.904  0.00  0.00    +0.052 C 
ATOM     15  C   UNL     1      -1.160  -1.832   6.725  0.00  0.00    +0.115 C 
ATOM     16  N   UNL     1      -2.180  -1.265   5.839  0.00  0.00    -0.268 N 
ATOM     17  C   UNL     1      -2.623  -1.754   4.672  0.00  0.00    +0.317 C 
ATOM     18  O   UNL     1      -2.334  -2.855   4.245  0.00  0.00    -0.252 OA
ATOM     19  C   UNL     1      -3.857  -0.083   7.241  0.00  0.00    +0.044 C 
ATOM     20  H   UNL     1      -2.680   2.689   5.035  0.00  0.00    +0.160 HD
ENDROOT
BRANCH   1  26
ATOM     21  C   UNL     1      -5.248  -1.673   2.643  0.00  0.00    +0.059 A 
ATOM     22  C   UNL     1      -5.787  -1.891   1.374  0.00  0.00    +0.015 A 
ATOM     23  C   UNL     1      -5.058  -1.564   0.252  0.00  0.00    +0.001 A 
ATOM     24  C   UNL     1      -3.790  -1.019   0.376  0.00  0.00    +0.002 A 
ATOM     25  C   UNL     1      -3.245  -0.798   1.625  0.00  0.00    +0.025 A 
ATOM     26  C   UNL     1      -3.967  -1.116   2.766  0.00  0.00    +0.058 A 
BRANCH  21  28
ATOM     27  N   UNL     1      -7.300  -2.440   3.732  0.00  0.00    -0.305 N 
ATOM     28  C   UNL     1      -6.024  -2.022   3.849  0.00  0.00    +0.246 C 
ATOM     29  O   UNL     1      -5.512  -1.932   4.949  0.00  0.00    -0.270 OA
ATOM     30  H   UNL     1      -7.685  -2.581   2.853  0.00  0.00    +0.150 HD
BRANCH  27  32
ATOM     31  C   UNL     1      -7.784  -4.069   5.491  0.00  0.00    +0.033 C 
ATOM     32  C   UNL     1      -8.105  -2.681   4.932  0.00  0.00    +0.100 C 
BRANCH  32  33
ATOM     33  C   UNL     1      -9.568  -2.608   4.579  0.00  0.00    -0.027 A 
ATOM     34  C   UNL     1     -10.021  -3.158   3.394  0.00  0.00    +0.005 A 
ATOM     35  C   UNL     1     -11.363  -3.091   3.070  0.00  0.00    +0.000 A 
ATOM     36  C   UNL     1     -12.252  -2.474   3.930  0.00  0.00    +0.000 A 
ATOM     37  C   UNL     1     -11.799  -1.925   5.115  0.00  0.00    +0.000 A 
ATOM     38  C   UNL     1     -10.458  -1.996   5.441  0.00  0.00    +0.005 A 
ENDBRANCH  32  33
ENDBRANCH  27  32
ENDBRANCH  21  28
ENDBRANCH   1  26
BRANCH   9  39
ATOM     39  O   UNL     1       3.131   1.779   3.131  0.00  0.00    -0.495 OA
ATOM     40  C   UNL     1       3.466   2.692   2.084  0.00  0.00    +0.277 C 
ENDBRANCH   9  39
TORSDOF 5
