REMARK  Name = ZINC66940749
REMARK  11 active torsions:
REMARK  status: ('A' for Active; 'I' for Inactive)
REMARK    1  A    between atoms: C_1  and  C_2
REMARK    2  A    between atoms: C_2  and  C_4
REMARK    3  A    between atoms: C_2  and  N_11
REMARK    4  A    between atoms: N_6  and  C_7
REMARK    5  A    between atoms: C_7  and  C_8
REMARK    6  A    between atoms: C_7  and  C_9
REMARK    7  A    between atoms: C_7  and  C_10
REMARK    8  A    between atoms: N_11  and  C_12
REMARK    9  A    between atoms: C_15  and  N_18
REMARK   10  A    between atoms: C_19  and  C_21
REMARK   11  A    between atoms: C_21  and  N_22
REMARK                            x       y       z     vdW  Elec       q    Type
REMARK                         _______ _______ _______ _____ _____    ______ ____
ROOT
ATOM      1  C   UNL     1       0.024  -0.622   2.400  0.00  0.00    +0.028 A 
ATOM      2  C   UNL     1      -1.279  -0.157   2.527  0.00  0.00    +0.025 A 
ATOM      3  C   UNL     1      -1.953  -0.310   3.722  0.00  0.00    +0.025 A 
ATOM      4  C   UNL     1      -1.329  -0.929   4.797  0.00  0.00    +0.033 A 
ATOM      5  C   UNL     1      -0.027  -1.394   4.671  0.00  0.00    +0.025 A 
ATOM      6  C   UNL     1       0.645  -1.246   3.474  0.00  0.00    +0.025 A 
ENDROOT
BRANCH   4   7
ATOM      7  N   UNL     1      -2.014  -1.084   6.010  0.00  0.00    -0.287 N 
ATOM      8  C   UNL     1      -3.347  -1.286   6.011  0.00  0.00    +0.201 C 
ATOM      9  O   UNL     1      -3.939  -1.430   4.962  0.00  0.00    -0.278 OA
ATOM     10  H   UNL     1      -1.529  -1.046   6.849  0.00  0.00    +0.155 HD
BRANCH   8  11
ATOM     11  C   UNL     1      -4.101  -1.334   7.314  0.00  0.00    +0.019 C 
BRANCH  11  12
ATOM     12  N   UNL     1      -5.527  -1.565   7.047  0.00  0.00    +0.385 N 
ATOM     13  C   UNL     1      -5.701  -2.890   6.436  0.00  0.00    -0.078 C 
ATOM     14  C   UNL     1      -7.168  -3.312   6.494  0.00  0.00    -0.019 C 
ATOM     15  C   UNL     1      -7.957  -2.567   5.411  0.00  0.00    -0.002 C 
ATOM     16  C   UNL     1      -8.154  -1.118   5.860  0.00  0.00    -0.000 C 
ATOM     17  C   UNL     1      -8.546  -1.101   7.338  0.00  0.00    -0.002 C 
ATOM     18  C   UNL     1      -7.420  -0.479   8.160  0.00  0.00    -0.019 C 
ATOM     19  C   UNL     1      -6.278  -1.492   8.308  0.00  0.00    -0.078 C 
ATOM     20  H   UNL     1      -5.867  -0.857   6.413  0.00  0.00    -0.081 HD
ENDBRANCH  11  12
ENDBRANCH   8  11
ENDBRANCH   4   7
BRANCH   1  21
ATOM     21  N   UNL     1       0.707  -0.467   1.190  0.00  0.00    -0.333 N 
ATOM     22  H   UNL     1       1.615  -0.795   1.100  0.00  0.00    +0.147 HD
BRANCH  21  24
ATOM     23  C   UNL     1       0.223   1.708   0.180  0.00  0.00    +0.038 C 
ATOM     24  C   UNL     1       0.051   0.192   0.058  0.00  0.00    +0.154 C 
BRANCH  24  25
ATOM     25  C   UNL     1       0.676  -0.282  -1.230  0.00  0.00    +0.233 C 
ATOM     26  O   UNL     1       1.579  -1.090  -1.204  0.00  0.00    -0.274 OA
ATOM     27  N   UNL     1       0.230   0.193  -2.410  0.00  0.00    -0.309 N 
ATOM     28  H   UNL     1      -0.493   0.840  -2.430  0.00  0.00    +0.149 HD
BRANCH  27  29
ATOM     29  C   UNL     1       0.837  -0.268  -3.661  0.00  0.00    +0.026 C 
ATOM     30  C   UNL     1       0.665  -1.783  -3.783  0.00  0.00    +0.031 C 
ATOM     31  C   UNL     1       0.152   0.420  -4.843  0.00  0.00    +0.031 C 
ATOM     32  C   UNL     1       2.327   0.079  -3.663  0.00  0.00    +0.031 C 
ENDBRANCH  27  29
ENDBRANCH  24  25
ENDBRANCH  21  24
ENDBRANCH   1  21
TORSDOF 7
