REMARK  Name = ZINC10022449
REMARK  10 active torsions:
REMARK  status: ('A' for Active; 'I' for Inactive)
REMARK    1  A    between atoms: C_1  and  C_2
REMARK    2  A    between atoms: C_2  and  C_3
REMARK    3  A    between atoms: C_2  and  N_61
REMARK    4  A    between atoms: C_9  and  N_20
REMARK    5  A    between atoms: C_10  and  C_11
REMARK    6  A    between atoms: C_21  and  C_23
REMARK    7  A    between atoms: C_23  and  S_24
REMARK    8  A    between atoms: S_24  and  C_25
REMARK    9  A    between atoms: C_28  and  O_31
REMARK   10  A    between atoms: O_31  and  C_32
REMARK                            x       y       z     vdW  Elec       q    Type
REMARK                         _______ _______ _______ _____ _____    ______ ____
ROOT
ATOM      1  C   UNL     1       2.901  -2.487  -0.487  0.00  0.00    -0.073 C 
ATOM      2  C   UNL     1       1.473  -2.180  -0.027  0.00  0.00    +0.018 C 
ATOM      3  C   UNL     1       1.292  -0.664  -0.014  0.00  0.00    -0.029 A 
ATOM      4  C   UNL     1       2.380   0.143  -0.019  0.00  0.00    -0.021 A 
ATOM      5  S   UNL     1       1.721   1.787  -0.005  0.00  0.00    -0.079 S 
ATOM      6  C   UNL     1      -0.017   1.382   0.010  0.00  0.00    +0.082 A 
ATOM      7  C   UNL     1       0.002  -0.004   0.002  0.00  0.00    +0.039 A 
ATOM      8  C   UNL     1       3.812  -0.289  -0.033  0.00  0.00    -0.035 C 
ATOM      9  N   UNL     1       3.857  -1.723   0.341  0.00  0.00    +0.384 N 
ATOM     10  H   UNL     1       3.595  -1.819   1.329  0.00  0.00    -0.081 HD
ENDROOT
BRANCH   7  11
ATOM     11  C   UNL     1      -1.249  -0.781   0.010  0.00  0.00    +0.112 A 
ATOM     12  N   UNL     1      -1.410  -2.089  -0.002  0.00  0.00    -0.239 NA
ATOM     13  C   UNL     1      -2.628  -2.667   0.011  0.00  0.00    +0.079 A 
ATOM     14  C   UNL     1      -2.939  -4.048   0.005  0.00  0.00    +0.029 A 
ATOM     15  C   UNL     1      -4.242  -4.472   0.015  0.00  0.00    +0.002 A 
ATOM     16  C   UNL     1      -5.298  -3.572   0.030  0.00  0.00    +0.001 A 
ATOM     17  C   UNL     1      -5.031  -2.215   0.036  0.00  0.00    +0.017 A 
ATOM     18  C   UNL     1      -3.729  -1.780   0.027  0.00  0.00    +0.040 A 
ATOM     19  S   UNL     1      -2.936  -0.190   0.029  0.00  0.00    -0.067 S 
ENDBRANCH   7  11
BRANCH   6  20
ATOM     20  N   UNL     1      -1.111   2.239   0.020  0.00  0.00    -0.279 N 
ATOM     21  C   UNL     1      -0.923   3.574   0.026  0.00  0.00    +0.228 C 
ATOM     22  O   UNL     1       0.203   4.027   0.023  0.00  0.00    -0.275 OA
ATOM     23  H   UNL     1      -2.011   1.877   0.022  0.00  0.00    +0.155 HD
BRANCH  21  24
ATOM     24  C   UNL     1      -2.109   4.502   0.037  0.00  0.00    +0.170 C 
BRANCH  24  25
ATOM     25  S   UNL     1      -1.531   6.222   0.043  0.00  0.00    -0.116 S 
BRANCH  25  26
ATOM     26  C   UNL     1      -3.016   7.171   0.056  0.00  0.00    +0.009 A 
ATOM     27  C   UNL     1      -4.249   6.532   0.053  0.00  0.00    +0.018 A 
ATOM     28  C   UNL     1      -5.412   7.276   0.068  0.00  0.00    +0.047 A 
ATOM     29  C   UNL     1      -5.349   8.662   0.075  0.00  0.00    +0.120 A 
ATOM     30  C   UNL     1      -4.118   9.301   0.073  0.00  0.00    +0.047 A 
ATOM     31  C   UNL     1      -2.954   8.559   0.063  0.00  0.00    +0.018 A 
BRANCH  29  32
ATOM     32  O   UNL     1      -6.495   9.394   0.084  0.00  0.00    -0.495 OA
ATOM     33  C   UNL     1      -7.727   8.671   0.086  0.00  0.00    +0.277 C 
ENDBRANCH  29  32
ENDBRANCH  25  26
ENDBRANCH  24  25
ENDBRANCH  21  24
ENDBRANCH   6  20
BRANCH   9  35
ATOM     34  C   UNL     1       6.215  -1.358   0.900  0.00  0.00    -0.014 C 
ATOM     35  C   UNL     1       5.225  -2.253   0.152  0.00  0.00    -0.074 C 
ATOM     36  C   UNL     1       5.290  -3.672   0.721  0.00  0.00    -0.014 C 
ENDBRANCH   9  35
TORSDOF 7
