REMARK  Name = ZINC08899160
REMARK  9 active torsions:
REMARK  status: ('A' for Active; 'I' for Inactive)
REMARK    1  A    between atoms: C_1  and  O_2
REMARK    2  A    between atoms: O_2  and  C_3
REMARK    3  A    between atoms: C_8  and  O_9
REMARK    4  A    between atoms: O_9  and  C_10
REMARK    5  A    between atoms: C_11  and  C_27
REMARK    6  A    between atoms: C_15  and  C_16
REMARK    7  A    between atoms: C_15  and  N_57
REMARK    8  A    between atoms: N_18  and  C_19
REMARK    9  A    between atoms: C_20  and  C_24
REMARK                            x       y       z     vdW  Elec       q    Type
REMARK                         _______ _______ _______ _____ _____    ______ ____
ROOT
ATOM      1  C   UNL     1      10.979  -3.150  -0.108  0.00  0.00    +0.162 A 
ATOM      2  C   UNL     1       9.712  -3.212   0.447  0.00  0.00    +0.053 A 
ATOM      3  C   UNL     1       8.865  -2.116   0.386  0.00  0.00    -0.044 A 
ATOM      4  C   UNL     1       9.285  -0.955  -0.228  0.00  0.00    -0.050 A 
ATOM      5  C   UNL     1      10.553  -0.888  -0.787  0.00  0.00    +0.052 A 
ATOM      6  C   UNL     1      11.401  -1.979  -0.730  0.00  0.00    +0.162 A 
ATOM      7  C   UNL     1       8.401   0.263  -0.313  0.00  0.00    -0.006 C 
ATOM      8  C   UNL     1       6.887  -0.847   1.198  0.00  0.00    -0.072 C 
ATOM      9  C   UNL     1       7.492  -2.236   0.996  0.00  0.00    +0.017 C 
ATOM     10  N   UNL     1       6.997  -0.117  -0.081  0.00  0.00    +0.393 N 
ATOM     11  H   UNL     1       6.684  -0.727  -0.844  0.00  0.00    -0.080 HD
ENDROOT
BRANCH   7  12
ATOM     12  C   UNL     1       8.521   0.868  -1.688  0.00  0.00    -0.057 A 
ATOM     13  C   UNL     1       7.807   0.333  -2.744  0.00  0.00    +0.002 A 
ATOM     14  C   UNL     1       7.914   0.890  -4.004  0.00  0.00    +0.000 A 
ATOM     15  C   UNL     1       8.741   1.978  -4.211  0.00  0.00    +0.000 A 
ATOM     16  C   UNL     1       9.459   2.511  -3.156  0.00  0.00    +0.000 A 
ATOM     17  C   UNL     1       9.349   1.955  -1.895  0.00  0.00    +0.002 A 
ENDBRANCH   7  12
BRANCH   1  19
ATOM     18  C   UNL     1      11.303  -5.394   0.609  0.00  0.00    +0.277 C 
ATOM     19  O   UNL     1      11.806  -4.228  -0.045  0.00  0.00    -0.491 OA
ENDBRANCH   1  19
BRANCH   6  20
ATOM     20  O   UNL     1      12.643  -1.908  -1.280  0.00  0.00    -0.491 OA
ATOM     21  C   UNL     1      13.007  -0.674  -1.903  0.00  0.00    +0.277 C 
ENDBRANCH   6  20
BRANCH  10  22
ATOM     22  C   UNL     1       6.144   1.093  -0.050  0.00  0.00    +0.020 C 
BRANCH  22  23
ATOM     23  C   UNL     1       4.698   0.671  -0.039  0.00  0.00    +0.201 C 
ATOM     24  O   UNL     1       4.410  -0.507  -0.042  0.00  0.00    -0.278 OA
ATOM     25  N   UNL     1       3.724   1.602  -0.025  0.00  0.00    -0.281 N 
ATOM     26  H   UNL     1       3.954   2.545  -0.022  0.00  0.00    +0.155 HD
BRANCH  25  27
ATOM     27  C   UNL     1       2.393   1.214  -0.014  0.00  0.00    +0.084 A 
ATOM     28  C   UNL     1       1.259   2.017   0.001  0.00  0.00    +0.065 A 
ATOM     29  C   UNL     1      -0.016   1.341   0.009  0.00  0.00    +0.022 A 
ATOM     30  C   UNL     1       0.002  -0.004   0.002  0.00  0.00    +0.048 A 
ATOM     31  S   UNL     1       1.740  -0.390  -0.017  0.00  0.00    -0.081 S 
BRANCH  28  32
ATOM     32  C   UNL     1       1.353   3.481   0.008  0.00  0.00    +0.244 C 
ATOM     33  O   UNL     1       2.444   4.020  -0.000  0.00  0.00    -0.270 OA
ATOM     34  N   UNL     1       0.232   4.228   0.023  0.00  0.00    -0.325 N 
ATOM     35  H   UNL     1      -0.637   3.798   0.029  0.00  0.00    +0.145 HD
ATOM     36  H   UNL     1       0.294   5.196   0.028  0.00  0.00    +0.145 HD
ENDBRANCH  28  32
ENDBRANCH  25  27
ENDBRANCH  22  23
ENDBRANCH  10  22
TORSDOF 7
