REMARK  Name = ZINC01194386
REMARK  9 active torsions:
REMARK  status: ('A' for Active; 'I' for Inactive)
REMARK    1  A    between atoms: C_1  and  C_2
REMARK    2  A    between atoms: C_5  and  N_9
REMARK    3  A    between atoms: C_6  and  C_8
REMARK    4  A    between atoms: C_10  and  C_12
REMARK    5  A    between atoms: C_12  and  N_13
REMARK    6  A    between atoms: N_13  and  C_14
REMARK    7  A    between atoms: N_13  and  S_24
REMARK    8  A    between atoms: C_18  and  C_20
REMARK    9  A    between atoms: S_24  and  C_27
REMARK                            x       y       z     vdW  Elec       q    Type
REMARK                         _______ _______ _______ _____ _____    ______ ____
ROOT
ATOM      1  N   UNL     1      -0.235   4.983   0.002  0.00  0.00    -0.194 N 
ENDROOT
BRANCH   1   2
ATOM      2  C   UNL     1      -0.375   3.594   0.049  0.00  0.00    +0.052 A 
ATOM      3  C   UNL     1      -1.404   2.974  -0.649  0.00  0.00    +0.025 A 
ATOM      4  C   UNL     1      -1.539   1.601  -0.600  0.00  0.00    +0.002 A 
ATOM      5  C   UNL     1      -0.651   0.843   0.142  0.00  0.00    +0.012 A 
ATOM      6  C   UNL     1       0.370   1.458   0.842  0.00  0.00    +0.057 A 
ATOM      7  C   UNL     1       0.515   2.830   0.793  0.00  0.00    +0.037 A 
BRANCH   6   8
ATOM      8  C   UNL     1       1.331   0.628   1.655  0.00  0.00    +0.417 C 
ATOM      9  F   UNL     1       0.988  -0.724   1.546  0.00  0.00    -0.166 F 
ATOM     10  F   UNL     1       2.632   0.819   1.177  0.00  0.00    -0.166 F 
ATOM     11  F   UNL     1       1.265   1.020   2.997  0.00  0.00    -0.166 F 
ENDBRANCH   6   8
ENDBRANCH   1   2
BRANCH   1  12
ATOM     12  S   UNL     1       1.159   5.656  -0.588  0.00  0.00    +0.075 S 
ATOM     13  O   UNL     1       1.305   6.915   0.055  0.00  0.00    -0.150 OA
ATOM     14  O   UNL     1       2.156   4.647  -0.522  0.00  0.00    -0.150 OA
BRANCH  12  15
ATOM     15  C   UNL     1       0.893   5.992  -2.297  0.00  0.00    +0.109 A 
ATOM     16  C   UNL     1       1.204   5.035  -3.245  0.00  0.00    +0.029 A 
ATOM     17  C   UNL     1       0.991   5.296  -4.586  0.00  0.00    +0.002 A 
ATOM     18  C   UNL     1       0.477   6.518  -4.979  0.00  0.00    +0.000 A 
ATOM     19  C   UNL     1       0.172   7.476  -4.031  0.00  0.00    +0.002 A 
ATOM     20  C   UNL     1       0.380   7.213  -2.690  0.00  0.00    +0.029 A 
ENDBRANCH  12  15
ENDBRANCH   1  12
BRANCH   1  21
ATOM     21  C   UNL     1      -1.322   5.845   0.473  0.00  0.00    +0.227 C 
BRANCH  21  23
ATOM     22  N   UNL     1      -2.105   6.788   2.622  0.00  0.00    -0.284 N 
ATOM     23  C   UNL     1      -1.206   6.028   1.965  0.00  0.00    +0.236 C 
ATOM     24  O   UNL     1      -0.305   5.492   2.574  0.00  0.00    -0.274 OA
ATOM     25  H   UNL     1      -2.863   7.163   2.147  0.00  0.00    +0.155 HD
BRANCH  22  30
ATOM     26  C   UNL     1      -1.452   7.795   8.167  0.00  0.00    +0.044 C 
ATOM     27  C   UNL     1      -1.625   7.528   6.694  0.00  0.00    -0.050 A 
ATOM     28  C   UNL     1      -1.134   6.359   6.142  0.00  0.00    +0.005 A 
ATOM     29  C   UNL     1      -1.291   6.110   4.793  0.00  0.00    +0.024 A 
ATOM     30  C   UNL     1      -1.944   7.037   3.990  0.00  0.00    +0.036 A 
ATOM     31  C   UNL     1      -2.431   8.212   4.545  0.00  0.00    -0.029 A 
ATOM     32  C   UNL     1      -2.275   8.452   5.897  0.00  0.00    +0.008 A 
ATOM     33  C   UNL     1      -3.133   9.223   3.676  0.00  0.00    +0.045 C 
ENDBRANCH  22  30
ENDBRANCH  21  23
ENDBRANCH   1  21
TORSDOF 7
