REMARK  Name = ZINC37621950
REMARK  7 active torsions:
REMARK  status: ('A' for Active; 'I' for Inactive)
REMARK    1  A    between atoms: C_1  and  C_2
REMARK    2  A    between atoms: C_2  and  C_3
REMARK    3  A    between atoms: C_3  and  C_4
REMARK    4  A    between atoms: C_4  and  C_5
REMARK    5  A    between atoms: C_4  and  C_6
REMARK    6  A    between atoms: C_4  and  N_17
REMARK    7  A    between atoms: N_8  and  C_9
REMARK                            x       y       z     vdW  Elec       q    Type
REMARK                         _______ _______ _______ _____ _____    ______ ____
ROOT
ATOM      1  C   UNL     1      -2.823  -2.582  -0.114  0.00  0.00    +0.206 C 
ATOM      2  O   UNL     1      -3.753  -1.903   0.267  0.00  0.00    -0.277 OA
ATOM      3  N   UNL     1      -3.049  -3.807  -0.629  0.00  0.00    -0.286 N 
ATOM      4  H   UNL     1      -2.313  -4.323  -0.994  0.00  0.00    +0.155 HD
ENDROOT
BRANCH   3   5
ATOM      5  C   UNL     1      -4.346  -4.334  -0.639  0.00  0.00    +0.047 A 
ATOM      6  C   UNL     1      -5.436  -3.495  -0.826  0.00  0.00    +0.025 A 
ATOM      7  C   UNL     1      -6.715  -4.017  -0.835  0.00  0.00    +0.017 A 
ATOM      8  C   UNL     1      -6.910  -5.375  -0.657  0.00  0.00    +0.019 A 
ATOM      9  C   UNL     1      -5.826  -6.214  -0.469  0.00  0.00    +0.032 A 
ATOM     10  C   UNL     1      -4.544  -5.698  -0.466  0.00  0.00    +0.040 A 
ATOM     11 BR   UNL     1      -3.062  -6.846  -0.217  0.00  0.00    -0.048 Br
ATOM     12 BR   UNL     1      -8.662  -6.086  -0.670  0.00  0.00    -0.050 Br
ENDBRANCH   3   5
BRANCH   1  13
ATOM     13  C   UNL     1      -1.415  -2.056  -0.011  0.00  0.00    +0.005 C 
ATOM     14  C   UNL     1      -0.776  -2.558   1.285  0.00  0.00    -0.001 C 
BRANCH  13  15
ATOM     15  N   UNL     1      -0.630  -2.530  -1.159  0.00  0.00    +0.387 N 
ATOM     16  H   UNL     1       0.313  -2.177  -1.091  0.00  0.00    -0.089 HD
ATOM     17  H   UNL     1      -0.613  -3.538  -1.162  0.00  0.00    -0.089 HD
ATOM     18  H   UNL     1      -1.051  -2.198  -2.014  0.00  0.00    -0.089 HD
ENDBRANCH  13  15
BRANCH  13  19
ATOM     19  C   UNL     1      -1.441  -0.526  -0.008  0.00  0.00    -0.004 C 
BRANCH  19  21
ATOM     20  C   UNL     1      -0.033   1.538  -0.025  0.00  0.00    +0.004 C 
ATOM     21  C   UNL     1      -0.007   0.008  -0.029  0.00  0.00    -0.004 C 
ENDBRANCH  19  21
ENDBRANCH  13  19
ENDBRANCH   1  13
TORSDOF 5
