REMARK  Name = ZINC13135814
REMARK  15 active torsions:
REMARK  status: ('A' for Active; 'I' for Inactive)
REMARK    1  A    between atoms: C_1  and  C_2
REMARK    2  A    between atoms: C_2  and  C_3
REMARK    3  A    between atoms: C_3  and  C_5
REMARK    4  A    between atoms: C_3  and  N_33
REMARK    5  A    between atoms: C_8  and  S_18
REMARK    6  A    between atoms: N_9  and  C_10
REMARK    7  A    between atoms: C_13  and  O_16
REMARK    8  A    between atoms: O_16  and  C_17
REMARK    9  A    between atoms: S_18  and  C_19
REMARK   10  A    between atoms: C_19  and  C_20
REMARK   11  A    between atoms: N_22  and  C_23
REMARK   12  A    between atoms: C_27  and  S_29
REMARK   13  A    between atoms: S_29  and  N_32
REMARK   14  A    between atoms: N_33  and  C_34
REMARK   15  A    between atoms: N_33  and  C_35
REMARK                            x       y       z     vdW  Elec       q    Type
REMARK                         _______ _______ _______ _____ _____    ______ ____
ROOT
ATOM      1  C   UNL     1       1.772  -2.066  -1.076  0.00  0.00    +0.125 A 
ATOM      2  N   UNL     1       0.755  -2.814  -1.400  0.00  0.00    -0.135 NA
ATOM      3  N   UNL     1       1.102  -4.052  -1.410  0.00  0.00    -0.122 NA
ATOM      4  C   UNL     1       2.371  -4.163  -1.091  0.00  0.00    +0.197 A 
ATOM      5  N   UNL     1       2.841  -2.897  -0.873  0.00  0.00    -0.275 N 
ENDROOT
BRANCH   5   6
ATOM      6  C   UNL     1       4.147  -2.528  -0.513  0.00  0.00    +0.050 A 
ATOM      7  C   UNL     1       4.917  -1.767  -1.382  0.00  0.00    +0.030 A 
ATOM      8  C   UNL     1       6.201  -1.403  -1.028  0.00  0.00    +0.047 A 
ATOM      9  C   UNL     1       6.722  -1.798   0.196  0.00  0.00    +0.120 A 
ATOM     10  C   UNL     1       5.952  -2.559   1.064  0.00  0.00    +0.047 A 
ATOM     11  C   UNL     1       4.666  -2.918   0.713  0.00  0.00    +0.030 A 
BRANCH   9  12
ATOM     12  O   UNL     1       7.986  -1.440   0.545  0.00  0.00    -0.495 OA
ATOM     13  C   UNL     1       8.457  -1.882   1.819  0.00  0.00    +0.277 C 
ENDBRANCH   9  12
ENDBRANCH   5   6
BRANCH   1  14
ATOM     14  C   UNL     1       1.773  -0.564  -0.955  0.00  0.00    +0.000 C 
BRANCH  14  15
ATOM     15  N   UNL     1       1.063   0.020  -2.100  0.00  0.00    +0.383 N 
ATOM     16  C   UNL     1       1.172   1.484  -2.049  0.00  0.00    -0.096 C 
ATOM     17  C   UNL     1       1.659  -0.472  -3.349  0.00  0.00    -0.096 C 
ATOM     18  H   UNL     1       0.090  -0.246  -2.064  0.00  0.00    -0.082 HD
ENDBRANCH  14  15
BRANCH  14  20
ATOM     19  C   UNL     1       1.874  -0.669   1.539  0.00  0.00    +0.002 C 
ATOM     20  C   UNL     1       1.071  -0.157   0.342  0.00  0.00    -0.011 C 
ENDBRANCH  14  20
ENDBRANCH   1  14
BRANCH   4  21
ATOM     21  S   UNL     1       3.295  -5.659  -0.973  0.00  0.00    -0.076 S 
BRANCH  21  22
ATOM     22  C   UNL     1       2.092  -6.952  -1.389  0.00  0.00    +0.173 C 
BRANCH  22  23
ATOM     23  C   UNL     1       2.762  -8.300  -1.325  0.00  0.00    +0.227 C 
ATOM     24  O   UNL     1       3.935  -8.381  -1.028  0.00  0.00    -0.275 OA
ATOM     25  N   UNL     1       2.057  -9.416  -1.598  0.00  0.00    -0.285 N 
ATOM     26  H   UNL     1       1.103  -9.358  -1.767  0.00  0.00    +0.155 HD
BRANCH  25  27
ATOM     27  C   UNL     1       2.700 -10.658  -1.637  0.00  0.00    +0.035 A 
ATOM     28  C   UNL     1       2.296 -11.623  -2.550  0.00  0.00    +0.023 A 
ATOM     29  C   UNL     1       2.933 -12.848  -2.587  0.00  0.00    +0.004 A 
ATOM     30  C   UNL     1       3.972 -13.114  -1.714  0.00  0.00    +0.028 A 
ATOM     31  C   UNL     1       4.377 -12.156  -0.804  0.00  0.00    +0.107 A 
ATOM     32  C   UNL     1       3.748 -10.926  -0.767  0.00  0.00    +0.051 A 
BRANCH  31  33
ATOM     33  S   UNL     1       5.702 -12.500   0.306  0.00  0.00    +0.056 S 
ATOM     34  O   UNL     1       5.529 -11.640   1.424  0.00  0.00    -0.153 OA
ATOM     35  O   UNL     1       5.767 -13.914   0.435  0.00  0.00    -0.153 OA
BRANCH  33  36
ATOM     36  N   UNL     1       7.102 -12.028  -0.442  0.00  0.00    -0.204 NA
ATOM     37  H   UNL     1       7.854 -11.720   0.087  0.00  0.00    +0.144 HD
ATOM     38  H   UNL     1       7.170 -12.060  -1.409  0.00  0.00    +0.144 HD
ENDBRANCH  33  36
ENDBRANCH  31  33
ENDBRANCH  25  27
ENDBRANCH  22  23
ENDBRANCH  21  22
ENDBRANCH   4  21
TORSDOF 11
