REMARK  Name = ZINC22631245
REMARK  7 active torsions:
REMARK  status: ('A' for Active; 'I' for Inactive)
REMARK    1  A    between atoms: C_3  and  C_6
REMARK    2  A    between atoms: C_9  and  C_11
REMARK    3  A    between atoms: C_11  and  N_12
REMARK    4  A    between atoms: N_15  and  C_18
REMARK    5  A    between atoms: C_18  and  C_19
REMARK    6  A    between atoms: N_21  and  C_22
REMARK    7  A    between atoms: C_24  and  C_29
REMARK                            x       y       z     vdW  Elec       q    Type
REMARK                         _______ _______ _______ _____ _____    ______ ____
ROOT
ATOM      1  N   UNL     1       4.203   7.329  -1.705  0.00  0.00    -0.300 NA
ATOM      2  C   UNL     1       4.498   6.023  -2.311  0.00  0.00    +0.066 C 
ATOM      3  C   UNL     1       4.794   6.210  -3.801  0.00  0.00    -0.063 C 
ATOM      4  N   UNL     1       5.929   7.130  -3.961  0.00  0.00    +0.387 N 
ATOM      5  C   UNL     1       5.634   8.436  -3.354  0.00  0.00    -0.063 C 
ATOM      6  C   UNL     1       5.338   8.249  -1.864  0.00  0.00    +0.066 C 
ATOM      7  H   UNL     1       6.793   6.698  -3.434  0.00  0.00    -0.081 HD
ENDROOT
BRANCH   1   8
ATOM      8  C   UNL     1       3.840   7.182  -0.289  0.00  0.00    +0.147 C 
BRANCH   8  12
ATOM      9  C   UNL     1       1.110   4.641   0.005  0.00  0.00    +0.085 A 
ATOM     10  C   UNL     1       0.054   5.515  -0.015  0.00  0.00    +0.075 A 
ATOM     11  S   UNL     1       0.919   7.073  -0.154  0.00  0.00    -0.079 S 
ATOM     12  C   UNL     1       2.534   6.437  -0.181  0.00  0.00    +0.093 A 
ATOM     13  N   UNL     1       2.332   5.146  -0.083  0.00  0.00    -0.242 NA
BRANCH   9  16
ATOM     14  C   UNL     1      -0.241   1.111   0.229  0.00  0.00    +0.008 A 
ATOM     15  C   UNL     1      -0.286   2.485   0.121  0.00  0.00    +0.017 A 
ATOM     16  C   UNL     1       0.892   3.183   0.115  0.00  0.00    +0.038 A 
ATOM     17  S   UNL     1       2.096   1.874   0.273  0.00  0.00    -0.095 S 
ATOM     18  C   UNL     1       0.964   0.495   0.337  0.00  0.00    +0.046 A 
ENDBRANCH   9  16
ENDBRANCH   8  12
ENDBRANCH   1   8
BRANCH   4  19
ATOM     19  C   UNL     1       6.293   7.277  -5.376  0.00  0.00    +0.019 C 
BRANCH  19  20
ATOM     20  C   UNL     1       7.606   8.009  -5.484  0.00  0.00    +0.201 C 
ATOM     21  O   UNL     1       8.238   8.271  -4.483  0.00  0.00    -0.278 OA
ATOM     22  N   UNL     1       8.076   8.374  -6.693  0.00  0.00    -0.286 N 
ATOM     23  H   UNL     1       7.470   8.200  -7.595  0.00  0.00    +0.155 HD
BRANCH  22  24
ATOM     24  C   UNL     1       9.337   8.973  -6.802  0.00  0.00    +0.052 A 
ATOM     25  C   UNL     1       9.802   9.803  -5.791  0.00  0.00    +0.037 A 
ATOM     26  C   UNL     1      11.048  10.389  -5.899  0.00  0.00    +0.057 A 
ATOM     27  C   UNL     1      11.829  10.158  -7.017  0.00  0.00    +0.014 A 
ATOM     28  C   UNL     1      11.367   9.336  -8.029  0.00  0.00    +0.022 A 
ATOM     29  C   UNL     1      10.123   8.742  -7.925  0.00  0.00    +0.062 A 
ATOM     30 CL   UNL     1       9.543   7.710  -9.194  0.00  0.00    -0.082 Cl
BRANCH  26  31
ATOM     31  C   UNL     1      11.556  11.286  -4.800  0.00  0.00    +0.417 C 
ATOM     32  F   UNL     1      12.828  11.762  -5.136  0.00  0.00    -0.166 F 
ATOM     33  F   UNL     1      10.681  12.366  -4.638  0.00  0.00    -0.166 F 
ATOM     34  F   UNL     1      11.629  10.563  -3.604  0.00  0.00    -0.166 F 
ENDBRANCH  26  31
ENDBRANCH  22  24
ENDBRANCH  19  20
ENDBRANCH   4  19
TORSDOF 7
