REMARK  Name = ZINC02332059
REMARK  7 active torsions:
REMARK  status: ('A' for Active; 'I' for Inactive)
REMARK    1  A    between atoms: C_1  and  C_2
REMARK    2  A    between atoms: C_2  and  C_32
REMARK    3  A    between atoms: C_7  and  C_31
REMARK    4  A    between atoms: C_10  and  N_11
REMARK    5  A    between atoms: C_10  and  N_59
REMARK    6  A    between atoms: N_19  and  N_20
REMARK    7  A    between atoms: C_21  and  C_23
REMARK                            x       y       z     vdW  Elec       q    Type
REMARK                         _______ _______ _______ _____ _____    ______ ____
ROOT
ATOM      1  N   UNL     1      -6.487   1.103   0.044  0.00  0.00    -0.282 N 
ATOM      2  C   UNL     1      -7.042   2.378   0.053  0.00  0.00    +0.044 A 
ATOM      3  C   UNL     1      -8.363   2.811   0.063  0.00  0.00    +0.025 A 
ATOM      4  C   UNL     1      -8.651   4.160   0.071  0.00  0.00    +0.017 A 
ATOM      5  C   UNL     1      -7.632   5.099   0.070  0.00  0.00    +0.019 A 
ATOM      6  C   UNL     1      -6.313   4.688   0.060  0.00  0.00    +0.027 A 
ATOM      7  C   UNL     1      -6.014   3.330   0.057  0.00  0.00    +0.029 A 
ATOM      8  C   UNL     1      -4.742   2.572   0.041  0.00  0.00    +0.153 C 
ATOM      9  N   UNL     1      -3.523   3.057   0.037  0.00  0.00    -0.174 NA
ATOM     10  C   UNL     1      -5.144   1.152   0.036  0.00  0.00    +0.270 C 
ATOM     11  O   UNL     1      -4.392   0.195   0.027  0.00  0.00    -0.268 OA
ATOM     12 BR   UNL     1      -8.047   6.944   0.083  0.00  0.00    -0.050 Br
ENDROOT
BRANCH   9  13
ATOM     13  N   UNL     1      -2.423   2.189   0.027  0.00  0.00    -0.202 N 
ATOM     14  C   UNL     1      -1.171   2.687   0.022  0.00  0.00    +0.270 C 
ATOM     15  O   UNL     1      -0.996   3.891   0.028  0.00  0.00    -0.268 OA
ATOM     16  H   UNL     1      -2.563   1.229   0.022  0.00  0.00    +0.178 HD
BRANCH  14  17
ATOM     17  C   UNL     1      -0.022   1.780   0.012  0.00  0.00    +0.075 A 
ATOM     18  C   UNL     1       1.332   2.083   0.001  0.00  0.00    +0.021 A 
ATOM     19  C   UNL     1       2.208   1.028  -0.013  0.00  0.00    +0.008 A 
ATOM     20  C   UNL     1       1.719  -0.241  -0.016  0.00  0.00    +0.046 A 
ATOM     21  S   UNL     1       0.002  -0.004   0.002  0.00  0.00    -0.092 S 
ENDBRANCH  14  17
ENDBRANCH   9  13
BRANCH   1  22
ATOM     22  C   UNL     1      -7.267  -0.137   0.042  0.00  0.00    +0.039 C 
BRANCH  22  33
ATOM     23  C   UNL     1     -10.471  -1.472  -0.448  0.00  0.00    +0.011 C 
ATOM     24  C   UNL     1     -10.040  -2.319   0.766  0.00  0.00    -0.036 C 
ATOM     25  C   UNL     1      -8.572  -2.659   0.634  0.00  0.00    -0.009 C 
ATOM     26  C   UNL     1      -7.626  -2.004   1.626  0.00  0.00    -0.065 C 
ATOM     27  C   UNL     1      -8.288  -2.102   3.030  0.00  0.00    -0.011 C 
ATOM     28  C   UNL     1      -9.384  -1.013   2.872  0.00  0.00    -0.048 C 
ATOM     29  C   UNL     1     -10.502  -1.628   2.032  0.00  0.00    +0.011 C 
ATOM     30  C   UNL     1      -8.692   0.083   2.026  0.00  0.00    -0.070 C 
ATOM     31  C   UNL     1      -9.880  -0.479   4.223  0.00  0.00    +0.009 C 
ATOM     32  C   UNL     1     -10.829  -3.649   0.659  0.00  0.00    +0.011 C 
ATOM     33  N   UNL     1      -7.489  -0.539   1.473  0.00  0.00    +0.393 N 
ATOM     34  H   UNL     1      -6.676  -0.227   2.018  0.00  0.00    -0.079 HD
ENDBRANCH  22  33
ENDBRANCH   1  22
TORSDOF 4
