REMARK  Name = ZINC22334989
REMARK  12 active torsions:
REMARK  status: ('A' for Active; 'I' for Inactive)
REMARK    1  A    between atoms: C_1  and  C_2
REMARK    2  A    between atoms: C_2  and  C_4
REMARK    3  A    between atoms: C_2  and  N_14
REMARK    4  A    between atoms: C_4  and  C_5
REMARK    5  A    between atoms: C_5  and  C_6
REMARK    6  A    between atoms: C_5  and  C_7
REMARK    7  A    between atoms: C_5  and  C_8
REMARK    8  A    between atoms: C_15  and  C_17
REMARK    9  A    between atoms: C_17  and  N_18
REMARK   10  A    between atoms: N_18  and  C_19
REMARK   11  A    between atoms: N_18  and  S_27
REMARK   12  A    between atoms: S_27  and  C_30
REMARK                            x       y       z     vdW  Elec       q    Type
REMARK                         _______ _______ _______ _____ _____    ______ ____
ROOT
ATOM      1  N   UNL     1      -2.446   6.288   2.737  0.00  0.00    -0.311 N 
ATOM      2  C   UNL     1      -1.435   5.514   2.293  0.00  0.00    +0.232 C 
ATOM      3  O   UNL     1      -0.632   5.056   3.079  0.00  0.00    -0.274 OA
ATOM      4  H   UNL     1      -3.174   6.704   2.025  0.00  0.00    +0.149 HD
ENDROOT
BRANCH   1   6
ATOM      5  C   UNL     1      -3.340   5.439   4.849  0.00  0.00    +0.028 C 
ATOM      6  C   UNL     1      -2.574   6.575   4.168  0.00  0.00    +0.071 C 
BRANCH   6   7
ATOM      7  C   UNL     1      -3.336   7.889   4.357  0.00  0.00    +0.033 C 
BRANCH   7   8
ATOM      8  C   UNL     1      -2.506   9.045   3.795  0.00  0.00    -0.008 C 
ATOM      9  C   UNL     1      -1.115   9.031   4.432  0.00  0.00    +0.016 C 
ATOM     10  C   UNL     1      -2.374   8.888   2.279  0.00  0.00    +0.016 C 
BRANCH   8  11
ATOM     11  C   UNL     1      -3.188  10.352   4.107  0.00  0.00    -0.042 A 
ATOM     12  C   UNL     1      -4.385  10.358   4.800  0.00  0.00    +0.004 A 
ATOM     13  C   UNL     1      -5.008  11.557   5.091  0.00  0.00    +0.000 A 
ATOM     14  C   UNL     1      -4.441  12.749   4.680  0.00  0.00    +0.000 A 
ATOM     15  C   UNL     1      -3.248  12.742   3.982  0.00  0.00    +0.000 A 
ATOM     16  C   UNL     1      -2.621  11.543   3.696  0.00  0.00    +0.004 A 
ENDBRANCH   8  11
ENDBRANCH   7   8
ENDBRANCH   6   7
ENDBRANCH   1   6
BRANCH   2  17
ATOM     17  C   UNL     1      -1.303   5.218   0.822  0.00  0.00    +0.226 C 
BRANCH  17  18
ATOM     18  N   UNL     1      -0.134   4.364   0.598  0.00  0.00    -0.199 N 
BRANCH  18  19
ATOM     19  C   UNL     1      -0.247   2.978   0.730  0.00  0.00    +0.054 A 
ATOM     20  C   UNL     1       0.498   2.307   1.691  0.00  0.00    +0.044 A 
ATOM     21  C   UNL     1       0.385   0.935   1.819  0.00  0.00    +0.044 A 
ATOM     22  C   UNL     1      -0.471   0.230   0.990  0.00  0.00    +0.040 A 
ATOM     23  C   UNL     1      -1.211   0.895   0.029  0.00  0.00    +0.044 A 
ATOM     24  C   UNL     1      -1.106   2.268  -0.100  0.00  0.00    +0.044 A 
ATOM     25 CL   UNL     1      -2.277   0.006  -1.013  0.00  0.00    -0.083 Cl
ATOM     26 CL   UNL     1       1.316   0.096   3.019  0.00  0.00    -0.083 Cl
ENDBRANCH  18  19
BRANCH  18  27
ATOM     27  S   UNL     1       1.321   5.040   0.190  0.00  0.00    +0.043 S 
ATOM     28  O   UNL     1       1.314   6.318   0.812  0.00  0.00    -0.155 OA
ATOM     29  O   UNL     1       2.289   4.064   0.551  0.00  0.00    -0.155 OA
ATOM     30  C   UNL     1       1.260   5.223  -1.614  0.00  0.00    +0.218 C 
ENDBRANCH  18  27
ENDBRANCH  17  18
ENDBRANCH   2  17
TORSDOF 8
