REMARK  Name = ZINC66981503
REMARK  9 active torsions:
REMARK  status: ('A' for Active; 'I' for Inactive)
REMARK    1  A    between atoms: C_1  and  C_2
REMARK    2  A    between atoms: C_5  and  C_29
REMARK    3  A    between atoms: N_8  and  C_10
REMARK    4  A    between atoms: C_10  and  C_11
REMARK    5  A    between atoms: C_11  and  C_12
REMARK    6  A    between atoms: C_12  and  N_13
REMARK    7  A    between atoms: N_16  and  C_17
REMARK    8  A    between atoms: C_19  and  N_25
REMARK    9  A    between atoms: C_26  and  C_28
REMARK                            x       y       z     vdW  Elec       q    Type
REMARK                         _______ _______ _______ _____ _____    ______ ____
ROOT
ATOM      1  N   UNL     1       5.169  -2.147   3.304  0.00  0.00    -0.299 N 
ATOM      2  C   UNL     1       6.074  -2.465   4.250  0.00  0.00    +0.304 C 
ATOM      3  O   UNL     1       5.736  -3.110   5.223  0.00  0.00    -0.253 OA
ATOM      4  N   UNL     1       7.355  -2.068   4.117  0.00  0.00    -0.267 N 
ATOM      5  H   UNL     1       5.439  -1.632   2.527  0.00  0.00    +0.150 HD
ATOM      6  H   UNL     1       7.640  -1.609   3.311  0.00  0.00    +0.156 HD
ENDROOT
BRANCH   4   7
ATOM      7  C   UNL     1       8.277  -2.317   5.144  0.00  0.00    +0.072 A 
ATOM      8  C   UNL     1       8.180  -3.478   5.897  0.00  0.00    +0.052 A 
ATOM      9  C   UNL     1       9.092  -3.723   6.912  0.00  0.00    +0.071 A 
ATOM     10  C   UNL     1      10.103  -2.804   7.174  0.00  0.00    +0.147 A 
ATOM     11  C   UNL     1      10.197  -1.646   6.422  0.00  0.00    +0.080 A 
ATOM     12  C   UNL     1       9.291  -1.403   5.405  0.00  0.00    +0.147 A 
ATOM     13  F   UNL     1       9.389  -0.275   4.669  0.00  0.00    -0.203 F 
ATOM     14  F   UNL     1      10.992  -3.041   8.162  0.00  0.00    -0.203 F 
BRANCH   9  15
ATOM     15  N   UNL     1       8.996  -4.895   7.674  0.00  0.00    -0.283 N 
ATOM     16  C   UNL     1       8.578  -6.040   7.099  0.00  0.00    +0.214 C 
ATOM     17  O   UNL     1       8.208  -6.039   5.944  0.00  0.00    -0.276 OA
ATOM     18  C   UNL     1       8.571  -7.322   7.892  0.00  0.00    +0.109 C 
ATOM     19  H   UNL     1       9.231  -4.882   8.615  0.00  0.00    +0.155 HD
ENDBRANCH   9  15
ENDBRANCH   4   7
BRANCH   1  20
ATOM     20  C   UNL     1       3.776  -2.579   3.448  0.00  0.00    +0.104 C 
BRANCH  20  21
ATOM     21  C   UNL     1       2.964  -2.091   2.247  0.00  0.00    +0.000 C 
BRANCH  21  22
ATOM     22  C   UNL     1       1.510  -2.542   2.398  0.00  0.00    -0.077 C 
BRANCH  22  28
ATOM     23  C   UNL     1      -0.090   1.419   0.006  0.00  0.00    +0.005 C 
ATOM     24  C   UNL     1      -0.050  -0.110   0.002  0.00  0.00    -0.031 C 
ATOM     25  C   UNL     1      -1.480  -0.659   0.015  0.00  0.00    +0.003 C 
ATOM     26  C   UNL     1      -1.429  -2.188   0.090  0.00  0.00    -0.031 C 
ATOM     27  C   UNL     1      -0.635  -2.606   1.330  0.00  0.00    -0.076 C 
ATOM     28  N   UNL     1       0.730  -2.073   1.245  0.00  0.00    +0.380 N 
ATOM     29  C   UNL     1       0.693  -0.606   1.245  0.00  0.00    -0.076 C 
ATOM     30  C   UNL     1      -0.746  -2.738  -1.164  0.00  0.00    +0.005 C 
ATOM     31  H   UNL     1       1.164  -2.397   0.393  0.00  0.00    -0.082 HD
ENDBRANCH  22  28
ENDBRANCH  21  22
ENDBRANCH  20  21
ENDBRANCH   1  20
TORSDOF 6
