REMARK  Name = ZINC35646344
REMARK  13 active torsions:
REMARK  status: ('A' for Active; 'I' for Inactive)
REMARK    1  A    between atoms: C_1  and  C_2
REMARK    2  A    between atoms: C_2  and  O_3
REMARK    3  A    between atoms: O_3  and  C_4
REMARK    4  A    between atoms: C_4  and  C_6
REMARK    5  A    between atoms: C_7  and  C_23
REMARK    6  A    between atoms: N_8  and  C_22
REMARK    7  A    between atoms: C_12  and  C_14
REMARK    8  A    between atoms: C_16  and  C_21
REMARK    9  A    between atoms: C_19  and  C_20
REMARK   10  A    between atoms: C_23  and  N_24
REMARK   11  A    between atoms: C_31  and  C_33
REMARK   12  A    between atoms: C_37  and  O_39
REMARK   13  A    between atoms: O_39  and  C_40
REMARK                            x       y       z     vdW  Elec       q    Type
REMARK                         _______ _______ _______ _____ _____    ______ ____
ROOT
ATOM      1  C   UNL     1       1.865  -2.534  -2.421  0.00  0.00    +0.076 C 
ATOM      2  C   UNL     1       1.831  -3.875  -2.574  0.00  0.00    +0.010 C 
ATOM      3  N   UNL     1       2.654  -4.504  -3.464  0.00  0.00    -0.264 N 
ATOM      4  C   UNL     1       3.539  -3.863  -4.237  0.00  0.00    +0.307 C 
ATOM      5  O   UNL     1       4.230  -4.510  -5.000  0.00  0.00    -0.252 OA
ATOM      6  N   UNL     1       3.689  -2.524  -4.198  0.00  0.00    -0.288 N 
ATOM      7  C   UNL     1       2.842  -1.751  -3.274  0.00  0.00    +0.144 C 
ATOM      8  C   UNL     1       2.564  -5.962  -3.578  0.00  0.00    +0.139 C 
ATOM      9  H   UNL     1       4.337  -2.080  -4.768  0.00  0.00    +0.151 HD
ENDROOT
BRANCH   7  10
ATOM     10  C   UNL     1       3.752  -0.982  -2.352  0.00  0.00    -0.019 A 
ATOM     11  C   UNL     1       3.892  -1.374  -1.033  0.00  0.00    +0.009 A 
ATOM     12  C   UNL     1       4.726  -0.669  -0.187  0.00  0.00    -0.050 A 
ATOM     13  C   UNL     1       5.421   0.429  -0.659  0.00  0.00    +0.003 A 
ATOM     14  C   UNL     1       5.283   0.821  -1.977  0.00  0.00    +0.004 A 
ATOM     15  C   UNL     1       4.451   0.113  -2.825  0.00  0.00    -0.045 A 
ATOM     16  C   UNL     1       4.304   0.537  -4.263  0.00  0.00    +0.044 C 
ATOM     17  C   UNL     1       4.878  -1.096   1.250  0.00  0.00    +0.044 C 
ENDBRANCH   7  10
BRANCH   1  18
ATOM     18  C   UNL     1       1.012  -1.881  -1.500  0.00  0.00    +0.339 C 
ATOM     19  O   UNL     1       0.254  -2.532  -0.807  0.00  0.00    -0.245 OA
BRANCH  18  20
ATOM     20  O   UNL     1       1.040  -0.536  -1.391  0.00  0.00    -0.462 OA
BRANCH  20  22
ATOM     21  C   UNL     1       0.490   1.557  -0.315  0.00  0.00    +0.048 C 
ATOM     22  C   UNL     1       0.238   0.048  -0.363  0.00  0.00    +0.229 C 
ENDBRANCH  20  22
ENDBRANCH  18  20
ENDBRANCH   1  18
BRANCH   2  23
ATOM     23  C   UNL     1       0.870  -4.691  -1.749  0.00  0.00    -0.026 C 
BRANCH  23  24
ATOM     24  N   UNL     1      -0.466  -4.638  -2.358  0.00  0.00    +0.384 N 
ATOM     25  C   UNL     1      -1.427  -5.200  -1.412  0.00  0.00    -0.077 C 
ATOM     26  C   UNL     1      -2.776  -4.551  -1.626  0.00  0.00    +0.000 C 
ATOM     27  C   UNL     1      -3.610  -5.410  -2.594  0.00  0.00    +0.106 C 
ATOM     28  N   UNL     1      -2.773  -5.943  -3.687  0.00  0.00    -0.299 N 
ATOM     29  C   UNL     1      -1.761  -5.144  -4.348  0.00  0.00    +0.089 C 
ATOM     30  C   UNL     1      -0.411  -5.291  -3.610  0.00  0.00    -0.059 C 
ATOM     31  C   UNL     1      -2.956  -7.218  -4.083  0.00  0.00    +0.247 C 
ATOM     32  O   UNL     1      -2.212  -7.711  -4.909  0.00  0.00    -0.270 OA
ATOM     33  H   UNL     1      -0.705  -3.670  -2.514  0.00  0.00    -0.081 HD
BRANCH  31  34
ATOM     34  C   UNL     1      -4.061  -8.018  -3.514  0.00  0.00    +0.040 A 
ATOM     35  C   UNL     1      -5.306  -7.429  -3.285  0.00  0.00    +0.013 A 
ATOM     36  C   UNL     1      -6.336  -8.178  -2.754  0.00  0.00    +0.004 A 
ATOM     37  C   UNL     1      -6.139  -9.511  -2.445  0.00  0.00    +0.045 A 
ATOM     38  C   UNL     1      -4.904 -10.106  -2.669  0.00  0.00    +0.121 A 
ATOM     39  C   UNL     1      -3.866  -9.364  -3.208  0.00  0.00    +0.058 A 
BRANCH  38  40
ATOM     40  O   UNL     1      -4.716 -11.416  -2.363  0.00  0.00    -0.495 OA
ATOM     41  C   UNL     1      -5.832 -12.122  -1.816  0.00  0.00    +0.277 C 
ENDBRANCH  38  40
ENDBRANCH  31  34
ENDBRANCH  23  24
ENDBRANCH   2  23
TORSDOF 8
