REMARK  Name = ZINC48094222
REMARK  7 active torsions:
REMARK  status: ('A' for Active; 'I' for Inactive)
REMARK    1  A    between atoms: C_1  and  C_2
REMARK    2  A    between atoms: C_2  and  N_3
REMARK    3  A    between atoms: C_4  and  C_6
REMARK    4  A    between atoms: C_6  and  C_7
REMARK    5  A    between atoms: C_6  and  N_8
REMARK    6  A    between atoms: N_11  and  C_12
REMARK    7  A    between atoms: C_12  and  C_13
REMARK                            x       y       z     vdW  Elec       q    Type
REMARK                         _______ _______ _______ _____ _____    ______ ____
ROOT
ATOM      1  N   UNL     1       1.643  -3.775   2.557  0.00  0.00    -0.288 N 
ATOM      2  C   UNL     1       2.598  -4.441   3.236  0.00  0.00    +0.300 C 
ATOM      3  O   UNL     1       3.446  -3.826   3.852  0.00  0.00    -0.253 OA
ATOM      4  N   UNL     1       2.612  -5.789   3.233  0.00  0.00    -0.295 N 
ATOM      5  H   UNL     1       0.966  -4.266   2.066  0.00  0.00    +0.151 HD
ATOM      6  H   UNL     1       1.935  -6.279   2.741  0.00  0.00    +0.151 HD
ENDROOT
BRANCH   1   7
ATOM      7  C   UNL     1       1.627  -2.310   2.561  0.00  0.00    +0.157 C 
ATOM      8  C   UNL     1       0.886  -1.812   3.803  0.00  0.00    +0.038 C 
BRANCH   7  10
ATOM      9  N   UNL     1       0.792  -0.488   1.113  0.00  0.00    -0.314 N 
ATOM     10  C   UNL     1       0.926  -1.812   1.324  0.00  0.00    +0.233 C 
ATOM     11  O   UNL     1       0.483  -2.603   0.518  0.00  0.00    -0.274 OA
ATOM     12  H   UNL     1       1.146   0.145   1.758  0.00  0.00    +0.149 HD
BRANCH   9  14
ATOM     13  C   UNL     1       0.095   1.527  -0.086  0.00  0.00    +0.024 C 
ATOM     14  C   UNL     1       0.111  -0.003  -0.090  0.00  0.00    +0.101 C 
ENDBRANCH   9  14
ENDBRANCH   7  10
ENDBRANCH   1   7
BRANCH   4  15
ATOM     15  C   UNL     1       3.650  -6.512   3.971  0.00  0.00    +0.142 C 
BRANCH  15  16
ATOM     16  C   UNL     1       3.442  -7.996   3.806  0.00  0.00    -0.014 A 
ATOM     17  C   UNL     1       2.641  -8.695   4.700  0.00  0.00    +0.010 A 
ATOM     18  C   UNL     1       2.476 -10.056   4.513  0.00  0.00    +0.042 A 
ATOM     19  C   UNL     1       3.115 -10.674   3.442  0.00  0.00    +0.099 A 
ATOM     20  N   UNL     1       3.870  -9.972   2.612  0.00  0.00    -0.349 N 
ATOM     21  C   UNL     1       4.041  -8.672   2.762  0.00  0.00    +0.089 A 
ATOM     22  N   UNL     1       2.958 -12.041   3.243  0.00  0.00    -0.317 N 
ATOM     23  C   UNL     1       3.513 -12.691   2.048  0.00  0.00    +0.106 C 
ATOM     24  C   UNL     1       4.393 -13.865   2.490  0.00  0.00    +0.019 C 
ATOM     25  C   UNL     1       3.579 -14.796   3.392  0.00  0.00    +0.003 C 
ATOM     26  C   UNL     1       3.127 -14.034   4.640  0.00  0.00    +0.019 C 
ATOM     27  C   UNL     1       2.239 -12.863   4.225  0.00  0.00    +0.106 C 
ATOM     28  H   UNL     1       4.306 -10.424   1.872  0.00  0.00    +0.167 HD
ENDBRANCH  15  16
ENDBRANCH   4  15
TORSDOF 5
