REMARK  Name = ZINC14274956
REMARK  7 active torsions:
REMARK  status: ('A' for Active; 'I' for Inactive)
REMARK    1  A    between atoms: C_1  and  O_2
REMARK    2  A    between atoms: O_2  and  C_3
REMARK    3  A    between atoms: N_12  and  C_13
REMARK    4  A    between atoms: C_13  and  N_15
REMARK    5  A    between atoms: C_16  and  C_18
REMARK    6  A    between atoms: C_19  and  C_20
REMARK    7  A    between atoms: C_23  and  C_25
REMARK                            x       y       z     vdW  Elec       q    Type
REMARK                         _______ _______ _______ _____ _____    ______ ____
ROOT
ATOM      1  N   UNL     1       7.590   3.536  -0.051  0.00  0.00    -0.264 N 
ATOM      2  C   UNL     1       7.855   4.857  -0.046  0.00  0.00    +0.242 C 
ATOM      3  O   UNL     1       6.942   5.662  -0.032  0.00  0.00    -0.270 OA
ATOM      4  H   UNL     1       8.317   2.894  -0.061  0.00  0.00    +0.157 HD
ENDROOT
BRANCH   1   5
ATOM      5  C   UNL     1       6.312   3.105  -0.041  0.00  0.00    +0.143 C 
ATOM      6  S   UNL     1       5.028   4.237  -0.022  0.00  0.00    -0.018 S 
BRANCH   5  16
ATOM      7  C   UNL     1       0.002  -0.004   0.002  0.00  0.00    +0.121 A 
ATOM      8  C   UNL     1      -0.017   1.387   0.010  0.00  0.00    +0.048 A 
ATOM      9  C   UNL     1       1.142   2.118   0.003  0.00  0.00    +0.032 A 
ATOM     10  C   UNL     1       2.402   1.477  -0.013  0.00  0.00    +0.081 A 
ATOM     11  C   UNL     1       2.385   0.064  -0.020  0.00  0.00    +0.044 A 
ATOM     12  C   UNL     1       1.222  -0.664  -0.013  0.00  0.00    +0.063 A 
ATOM     13  S   UNL     1       4.117  -0.336  -0.039  0.00  0.00    -0.052 S 
ATOM     14  C   UNL     1       4.734   1.342  -0.036  0.00  0.00    +0.165 A 
ATOM     15  N   UNL     1       3.628   2.047  -0.021  0.00  0.00    -0.225 NA
ATOM     16  N   UNL     1       6.046   1.784  -0.046  0.00  0.00    -0.276 N 
ATOM     17  H   UNL     1       6.774   1.143  -0.057  0.00  0.00    +0.156 HD
BRANCH   7  19
ATOM     18  C   UNL     1      -2.375   0.046   0.026  0.00  0.00    +0.277 C 
ATOM     19  O   UNL     1      -1.161  -0.708   0.010  0.00  0.00    -0.495 OA
ENDBRANCH   7  19
ENDBRANCH   5  16
ENDBRANCH   1   5
BRANCH   2  20
ATOM     20  C   UNL     1       9.194   5.308  -0.056  0.00  0.00    +0.071 C 
ATOM     21  C   UNL     1       9.463   6.640  -0.051  0.00  0.00    +0.051 C 
BRANCH  21  22
ATOM     22  C   UNL     1      10.802   7.091  -0.061  0.00  0.00    +0.129 A 
ATOM     23  C   UNL     1      11.212   8.412  -0.063  0.00  0.00    +0.050 A 
ATOM     24  C   UNL     1      12.609   8.401  -0.072  0.00  0.00    +0.050 A 
ATOM     25  C   UNL     1      13.001   7.081  -0.084  0.00  0.00    +0.136 A 
ATOM     26  O   UNL     1      11.900   6.308  -0.077  0.00  0.00    -0.455 OA
BRANCH  25  27
ATOM     27  C   UNL     1      14.395   6.596  -0.100  0.00  0.00    +0.020 A 
ATOM     28  C   UNL     1      15.454   7.506  -0.111  0.00  0.00    +0.031 A 
ATOM     29  C   UNL     1      16.755   7.046  -0.122  0.00  0.00    +0.043 A 
ATOM     30  C   UNL     1      17.012   5.685  -0.133  0.00  0.00    +0.040 A 
ATOM     31  C   UNL     1      15.966   4.778  -0.127  0.00  0.00    +0.043 A 
ATOM     32  C   UNL     1      14.660   5.225  -0.111  0.00  0.00    +0.031 A 
ATOM     33 CL   UNL     1      16.298   3.074  -0.140  0.00  0.00    -0.083 Cl
ATOM     34 CL   UNL     1      18.073   8.176  -0.130  0.00  0.00    -0.083 Cl
ENDBRANCH  25  27
ENDBRANCH  21  22
ENDBRANCH   2  20
TORSDOF 6
