REMARK  Name = ZINC57316577
REMARK  8 active torsions:
REMARK  status: ('A' for Active; 'I' for Inactive)
REMARK    1  A    between atoms: C_1  and  C_2
REMARK    2  A    between atoms: C_6  and  C_10
REMARK    3  A    between atoms: C_7  and  O_8
REMARK    4  A    between atoms: O_8  and  C_9
REMARK    5  A    between atoms: N_12  and  C_13
REMARK    6  A    between atoms: C_13  and  N_15
REMARK    7  A    between atoms: N_15  and  C_16
REMARK    8  A    between atoms: C_17  and  C_24
REMARK                            x       y       z     vdW  Elec       q    Type
REMARK                         _______ _______ _______ _____ _____    ______ ____
ROOT
ATOM      1  C   UNL     1       0.084  -4.895   3.594  0.00  0.00    +0.141 C 
ATOM      2  S   UNL     1       0.079  -4.058   5.088  0.00  0.00    -0.018 S 
ENDROOT
BRANCH   1   5
ATOM      3  C   UNL     1       0.051  -2.858   2.454  0.00  0.00    +0.253 C 
ATOM      4  O   UNL     1       0.048  -2.264   3.514  0.00  0.00    -0.270 OA
ATOM      5  N   UNL     1       0.069  -4.206   2.436  0.00  0.00    -0.263 N 
ATOM      6  H   UNL     1       0.072  -4.680   1.590  0.00  0.00    +0.157 HD
BRANCH   3  12
ATOM      7  C   UNL     1      -0.018   1.503   0.010  0.00  0.00    +0.047 C 
ATOM      8  C   UNL     1       0.002  -0.004   0.002  0.00  0.00    -0.007 A 
ATOM      9  C   UNL     1       0.006  -0.687  -1.198  0.00  0.00    +0.022 A 
ATOM     10  C   UNL     1       0.024  -2.073  -1.216  0.00  0.00    +0.019 A 
ATOM     11  C   UNL     1       0.039  -2.783  -0.035  0.00  0.00    +0.032 A 
ATOM     12  C   UNL     1       0.036  -2.105   1.186  0.00  0.00    +0.080 A 
ATOM     13  C   UNL     1       0.023  -0.703   1.200  0.00  0.00    +0.135 A 
ATOM     14 BR   UNL     1       0.029  -2.992  -2.869  0.00  0.00    -0.050 Br
BRANCH  13  15
ATOM     15  O   UNL     1       0.025  -0.033   2.379  0.00  0.00    -0.494 OA
ATOM     16  C   UNL     1      -1.247   0.270   2.955  0.00  0.00    +0.277 C 
ENDBRANCH  13  15
ENDBRANCH   3  12
ENDBRANCH   1   5
BRANCH   1  17
ATOM     17  N   UNL     1       0.101  -6.242   3.577  0.00  0.00    -0.291 N 
ATOM     18  H   UNL     1       0.104  -6.716   2.731  0.00  0.00    +0.154 HD
BRANCH  17  19
ATOM     19  C   UNL     1       0.116  -6.950   4.768  0.00  0.00    +0.084 A 
ATOM     20  C   UNL     1       0.141  -8.322   4.941  0.00  0.00    +0.068 A 
ATOM     21  C   UNL     1       0.153  -8.823   6.315  0.00  0.00    -0.023 A 
ATOM     22  C   UNL     1       0.137  -7.858   7.251  0.00  0.00    -0.004 A 
ATOM     23  S   UNL     1       0.116  -6.341   6.330  0.00  0.00    -0.077 S 
ATOM     24  C   UNL     1       0.146  -8.427   8.644  0.00  0.00    +0.043 C 
ATOM     25  C   UNL     1      -0.263  -9.906   8.464  0.00  0.00    +0.010 C 
ATOM     26  C   UNL     1       0.182 -10.181   7.013  0.00  0.00    +0.037 C 
BRANCH  20  27
ATOM     27  C   UNL     1       0.153  -9.236   3.796  0.00  0.00    +0.244 C 
ATOM     28  O   UNL     1       1.213  -9.597   3.317  0.00  0.00    -0.270 OA
ATOM     29  N   UNL     1      -1.008  -9.676   3.272  0.00  0.00    -0.325 N 
ATOM     30  H   UNL     1      -1.852  -9.388   3.653  0.00  0.00    +0.145 HD
ATOM     31  H   UNL     1      -0.999 -10.281   2.513  0.00  0.00    +0.145 HD
ENDBRANCH  20  27
ENDBRANCH  17  19
ENDBRANCH   1  17
TORSDOF 6
