REMARK  Name = ZINC63980155
REMARK  5 active torsions:
REMARK  status: ('A' for Active; 'I' for Inactive)
REMARK    1  A    between atoms: C_7  and  C_10
REMARK    2  A    between atoms: C_10  and  C_11
REMARK    3  A    between atoms: C_11  and  N_12
REMARK    4  A    between atoms: C_13  and  C_15
REMARK    5  A    between atoms: C_19  and  N_21
REMARK                            x       y       z     vdW  Elec       q    Type
REMARK                         _______ _______ _______ _____ _____    ______ ____
ROOT
ATOM      1  C   UNL     1      -1.759  -6.563  -2.627  0.00  0.00    +0.153 C 
ATOM      2  N   UNL     1      -2.268  -7.074  -1.571  0.00  0.00    -0.173 NA
ATOM      3  N   UNL     1      -3.122  -8.178  -1.605  0.00  0.00    -0.209 N 
ATOM      4  S   UNL     1      -3.260  -8.578  -3.230  0.00  0.00    -0.015 S 
ATOM      5  C   UNL     1      -2.173  -7.261  -3.914  0.00  0.00    +0.208 C 
ATOM      6  H   UNL     1      -3.544  -8.620  -0.852  0.00  0.00    +0.183 HD
ENDROOT
BRANCH   5   7
ATOM      7  N   UNL     1      -2.919  -6.357  -4.793  0.00  0.00    -0.280 N 
ATOM      8  C   UNL     1      -2.633  -6.309  -6.109  0.00  0.00    +0.303 C 
ATOM      9  O   UNL     1      -1.698  -6.949  -6.552  0.00  0.00    -0.253 OA
ATOM     10  N   UNL     1      -3.384  -5.554  -6.935  0.00  0.00    -0.283 N 
ATOM     11  C   UNL     1      -4.435  -4.678  -6.399  0.00  0.00    +0.128 C 
ATOM     12  C   UNL     1      -4.181  -3.248  -6.892  0.00  0.00    +0.125 C 
ATOM     13  N   UNL     1      -3.962  -3.284  -8.345  0.00  0.00    -0.314 N 
ATOM     14  C   UNL     1      -2.910  -4.160  -8.881  0.00  0.00    +0.125 C 
ATOM     15  C   UNL     1      -3.161  -5.585  -8.387  0.00  0.00    +0.128 C 
ATOM     16  C   UNL     1      -4.736  -2.505  -9.196  0.00  0.00    +0.099 A 
ATOM     17  C   UNL     1      -5.638  -1.589  -8.663  0.00  0.00    +0.042 A 
ATOM     18  C   UNL     1      -6.402  -0.820  -9.522  0.00  0.00    +0.005 A 
ATOM     19  C   UNL     1      -6.238  -0.993 -10.890  0.00  0.00    +0.018 A 
ATOM     20  C   UNL     1      -5.324  -1.920 -11.350  0.00  0.00    +0.084 A 
ATOM     21  N   UNL     1      -4.605  -2.636 -10.507  0.00  0.00    -0.350 N 
ATOM     22  H   UNL     1      -3.618  -5.792  -4.428  0.00  0.00    +0.152 HD
ATOM     23  H   UNL     1      -3.967  -3.278 -10.856  0.00  0.00    +0.166 HD
ENDBRANCH   5   7
BRANCH   1  25
ATOM     24  N   UNL     1      -0.536  -4.834  -1.425  0.00  0.00    -0.310 N 
ATOM     25  C   UNL     1      -0.864  -5.406  -2.601  0.00  0.00    +0.263 C 
ATOM     26  O   UNL     1      -0.414  -4.960  -3.640  0.00  0.00    -0.269 OA
ATOM     27  H   UNL     1      -0.894  -5.189  -0.597  0.00  0.00    +0.149 HD
BRANCH  24  28
ATOM     28  C   UNL     1       0.360  -3.676  -1.399  0.00  0.00    +0.109 C 
BRANCH  28  29
ATOM     29  C   UNL     1       0.568  -3.224   0.048  0.00  0.00    +0.052 C 
BRANCH  29  36
ATOM     30  C   UNL     1      -0.211   1.298   0.132  0.00  0.00    +0.001 A 
ATOM     31  C   UNL     1       0.960   2.069   0.152  0.00  0.00    +0.002 A 
ATOM     32  C   UNL     1       2.194   1.522   0.146  0.00  0.00    +0.026 A 
ATOM     33  C   UNL     1       2.354   0.109   0.120  0.00  0.00    +0.043 A 
ATOM     34  N   UNL     1       3.424  -0.648   0.109  0.00  0.00    -0.380 N 
ATOM     35  C   UNL     1       3.002  -2.053   0.080  0.00  0.00    +0.144 C 
ATOM     36  C   UNL     1       1.490  -2.032   0.075  0.00  0.00    -0.040 C 
ATOM     37  C   UNL     1       1.133  -0.728   0.099  0.00  0.00    -0.001 A 
ATOM     38  C   UNL     1      -0.171  -0.054   0.107  0.00  0.00    +0.010 A 
ATOM     39  H   UNL     1       4.341  -0.332   0.118  0.00  0.00    +0.160 HD
ENDBRANCH  29  36
ENDBRANCH  28  29
ENDBRANCH  24  28
ENDBRANCH   1  25
TORSDOF 5
