REMARK  Name = ZINC52066504
REMARK  6 active torsions:
REMARK  status: ('A' for Active; 'I' for Inactive)
REMARK    1  A    between atoms: C_1  and  C_2
REMARK    2  A    between atoms: C_2  and  C_4
REMARK    3  A    between atoms: C_2  and  N_21
REMARK    4  A    between atoms: C_9  and  O_10
REMARK    5  A    between atoms: O_10  and  C_11
REMARK    6  A    between atoms: C_17  and  O_19
REMARK                            x       y       z     vdW  Elec       q    Type
REMARK                         _______ _______ _______ _____ _____    ______ ____
ROOT
ATOM      1  C   UNL     1       0.748  -0.711   1.151  0.00  0.00    -0.019 A 
ATOM      2  C   UNL     1       0.053  -1.355   2.156  0.00  0.00    +0.020 A 
ATOM      3  C   UNL     1       0.739  -1.998   3.171  0.00  0.00    +0.018 A 
ATOM      4  C   UNL     1       2.123  -1.998   3.181  0.00  0.00    +0.019 A 
ATOM      5  C   UNL     1       2.821  -1.355   2.178  0.00  0.00    +0.047 A 
ATOM      6  C   UNL     1       2.135  -0.714   1.157  0.00  0.00    +0.123 A 
ATOM      7 BR   UNL     1      -0.215  -2.879   4.545  0.00  0.00    -0.050 Br
ENDROOT
BRANCH   1   9
ATOM      8  C   UNL     1      -0.036   1.493   0.329  0.00  0.00    -0.009 C 
ATOM      9  C   UNL     1      -0.000  -0.010   0.047  0.00  0.00    -0.044 C 
BRANCH   9  10
ATOM     10  N   UNL     1      -1.373  -0.529  -0.021  0.00  0.00    +0.383 N 
ATOM     11  H   UNL     1      -1.874  -0.060  -0.760  0.00  0.00    -0.089 HD
ATOM     12  H   UNL     1      -1.349  -1.520  -0.207  0.00  0.00    -0.089 HD
ATOM     13  H   UNL     1      -1.839  -0.363   0.859  0.00  0.00    -0.089 HD
ENDBRANCH   9  10
ENDBRANCH   1   9
BRANCH   6  14
ATOM     14  O   UNL     1       2.821  -0.085   0.166  0.00  0.00    -0.486 OA
BRANCH  14  15
ATOM     15  C   UNL     1       4.242  -0.020   0.301  0.00  0.00    +0.202 C 
ATOM     16  C   UNL     1       4.865  -1.307  -0.245  0.00  0.00    +0.047 C 
ATOM     17  C   UNL     1       6.386  -1.238  -0.101  0.00  0.00    +0.004 C 
ATOM     18  C   UNL     1       6.919  -0.039  -0.888  0.00  0.00    +0.003 C 
ATOM     19  C   UNL     1       6.296   1.247  -0.343  0.00  0.00    +0.035 C 
ATOM     20  C   UNL     1       4.775   1.179  -0.487  0.00  0.00    +0.155 C 
BRANCH  20  21
ATOM     21  O   UNL     1       4.193   2.380   0.023  0.00  0.00    -0.388 OA
ATOM     22  H   UNL     1       4.487   3.182  -0.431  0.00  0.00    +0.210 HD
ENDBRANCH  20  21
ENDBRANCH  14  15
ENDBRANCH   6  14
TORSDOF 5
