REMARK  Name = ZINC22526637
REMARK  11 active torsions:
REMARK  status: ('A' for Active; 'I' for Inactive)
REMARK    1  A    between atoms: C_1  and  C_2
REMARK    2  A    between atoms: C_5  and  C_9
REMARK    3  A    between atoms: C_6  and  C_8
REMARK    4  A    between atoms: C_9  and  C_11
REMARK    5  A    between atoms: C_9  and  N_12
REMARK    6  A    between atoms: C_13  and  C_15
REMARK    7  A    between atoms: C_18  and  C_21
REMARK    8  A    between atoms: C_21  and  N_22
REMARK    9  A    between atoms: N_22  and  C_23
REMARK   10  A    between atoms: N_22  and  S_30
REMARK   11  A    between atoms: S_30  and  C_33
REMARK                            x       y       z     vdW  Elec       q    Type
REMARK                         _______ _______ _______ _____ _____    ______ ____
ROOT
ATOM      1  C   UNL     1       3.997   2.992   0.002  0.00  0.00    +0.037 A 
ATOM      2  C   UNL     1       3.265   2.891  -1.182  0.00  0.00    +0.013 A 
ATOM      3  C   UNL     1       1.978   2.396  -1.153  0.00  0.00    +0.006 A 
ATOM      4  C   UNL     1       1.413   1.998   0.046  0.00  0.00    -0.028 A 
ATOM      5  C   UNL     1       2.132   2.100   1.224  0.00  0.00    +0.006 A 
ATOM      6  C   UNL     1       3.421   2.590   1.208  0.00  0.00    +0.013 A 
ENDROOT
BRANCH   1   8
ATOM      7  N   UNL     1       6.082   3.618   1.123  0.00  0.00    -0.305 N 
ATOM      8  C   UNL     1       5.377   3.522  -0.022  0.00  0.00    +0.245 C 
ATOM      9  O   UNL     1       5.877   3.871  -1.074  0.00  0.00    -0.270 OA
ATOM     10  H   UNL     1       5.630   3.302   2.075  0.00  0.00    +0.150 HD
BRANCH   7  11
ATOM     11  C   UNL     1       7.449   4.143   1.100  0.00  0.00    +0.101 C 
ATOM     12  C   UNL     1       8.424   3.012   0.767  0.00  0.00    +0.033 C 
BRANCH  11  17
ATOM     13  C   UNL     1       8.754   6.349   6.279  0.00  0.00    +0.044 C 
ATOM     14  C   UNL     1       8.414   5.774   4.929  0.00  0.00    -0.050 A 
ATOM     15  C   UNL     1       7.446   4.793   4.819  0.00  0.00    +0.004 A 
ATOM     16  C   UNL     1       7.130   4.269   3.579  0.00  0.00    +0.006 A 
ATOM     17  C   UNL     1       7.790   4.718   2.451  0.00  0.00    -0.025 A 
ATOM     18  C   UNL     1       8.758   5.699   2.560  0.00  0.00    -0.045 A 
ATOM     19  C   UNL     1       9.070   6.226   3.800  0.00  0.00    +0.007 A 
ATOM     20  C   UNL     1       9.473   6.193   1.329  0.00  0.00    +0.044 C 
ENDBRANCH  11  17
ENDBRANCH   7  11
ENDBRANCH   1   8
BRANCH   4  21
ATOM     21  C   UNL     1       0.006   1.458   0.070  0.00  0.00    +0.166 C 
BRANCH  21  22
ATOM     22  N   UNL     1       0.045  -0.006   0.021  0.00  0.00    -0.203 N 
BRANCH  22  23
ATOM     23  C   UNL     1       0.224  -0.739   1.196  0.00  0.00    +0.053 A 
ATOM     24  C   UNL     1       1.297  -1.613   1.314  0.00  0.00    +0.025 A 
ATOM     25  C   UNL     1       1.472  -2.337   2.478  0.00  0.00    +0.003 A 
ATOM     26  C   UNL     1       0.581  -2.192   3.525  0.00  0.00    +0.020 A 
ATOM     27  C   UNL     1      -0.490  -1.323   3.410  0.00  0.00    +0.043 A 
ATOM     28  C   UNL     1      -0.668  -0.592   2.251  0.00  0.00    +0.044 A 
ATOM     29 CL   UNL     1      -1.607  -1.144   4.728  0.00  0.00    -0.083 Cl
ENDBRANCH  22  23
BRANCH  22  30
ATOM     30  S   UNL     1      -0.124  -0.791  -1.427  0.00  0.00    +0.043 S 
ATOM     31  O   UNL     1      -0.571  -2.095  -1.083  0.00  0.00    -0.155 OA
ATOM     32  O   UNL     1      -0.937   0.070  -2.214  0.00  0.00    -0.155 OA
ATOM     33  C   UNL     1       1.553  -0.867  -2.115  0.00  0.00    +0.218 C 
ENDBRANCH  22  30
ENDBRANCH  21  22
ENDBRANCH   4  21
TORSDOF 7
