REMARK  Name = ZINC15996711
REMARK  4 active torsions:
REMARK  status: ('A' for Active; 'I' for Inactive)
REMARK    1  A    between atoms: C_1  and  O_2
REMARK    2  A    between atoms: O_2  and  C_3
REMARK    3  A    between atoms: C_8  and  N_9
REMARK    4  A    between atoms: C_25  and  C_31
REMARK                            x       y       z     vdW  Elec       q    Type
REMARK                         _______ _______ _______ _____ _____    ______ ____
ROOT
ATOM      1  N   UNL     1       0.095  -2.778  -0.110  0.00  0.00    -0.206 N 
ATOM      2  C   UNL     1      -1.179  -3.198  -0.138  0.00  0.00    +0.232 C 
ATOM      3  O   UNL     1      -2.016  -2.869  -0.951  0.00  0.00    -0.274 OA
ATOM      4  C   UNL     1      -1.397  -4.155   1.017  0.00  0.00    +0.115 C 
ATOM      5  C   UNL     1      -2.638  -3.742   1.810  0.00  0.00    +0.117 C 
ATOM      6  C   UNL     1      -3.440  -4.947   2.233  0.00  0.00    -0.019 A 
ATOM      7  C   UNL     1      -3.538  -6.053   1.420  0.00  0.00    +0.006 A 
ATOM      8  C   UNL     1      -4.276  -7.150   1.832  0.00  0.00    +0.000 A 
ATOM      9  C   UNL     1      -4.914  -7.141   3.060  0.00  0.00    +0.001 A 
ATOM     10  C   UNL     1      -4.824  -6.037   3.883  0.00  0.00    +0.008 A 
ATOM     11  C   UNL     1      -4.086  -4.925   3.474  0.00  0.00    -0.019 A 
ATOM     12  C   UNL     1      -3.995  -3.734   4.343  0.00  0.00    +0.023 C 
ATOM     13  C   UNL     1      -3.027  -2.823   4.116  0.00  0.00    +0.072 C 
ATOM     14  N   UNL     1      -2.186  -3.052   3.032  0.00  0.00    -0.316 N 
ATOM     15  C   UNL     1      -0.758  -2.766   2.914  0.00  0.00    +0.172 C 
ATOM     16  C   UNL     1      -0.182  -3.839   1.938  0.00  0.00    +0.119 C 
ATOM     17  C   UNL     1       0.781  -3.174   0.972  0.00  0.00    +0.232 C 
ATOM     18  O   UNL     1       1.971  -3.023   1.149  0.00  0.00    -0.274 OA
ENDROOT
BRANCH   1  24
ATOM     19  C   UNL     1       0.606  -0.607  -1.056  0.00  0.00    +0.142 A 
ATOM     20  C   UNL     1       1.173   0.159  -2.062  0.00  0.00    +0.047 A 
ATOM     21  C   UNL     1       1.787  -0.456  -3.137  0.00  0.00    +0.004 A 
ATOM     22  C   UNL     1       1.837  -1.836  -3.212  0.00  0.00    +0.002 A 
ATOM     23  C   UNL     1       1.274  -2.607  -2.213  0.00  0.00    +0.027 A 
ATOM     24  C   UNL     1       0.662  -1.997  -1.129  0.00  0.00    +0.085 A 
BRANCH  19  26
ATOM     25  C   UNL     1      -0.017   1.425   0.010  0.00  0.00    +0.277 C 
ATOM     26  O   UNL     1       0.002  -0.004   0.002  0.00  0.00    -0.493 OA
ENDBRANCH  19  26
ENDBRANCH   1  24
BRANCH  15  27
ATOM     27  C   UNL     1      -0.550  -1.384   2.351  0.00  0.00    +0.232 C 
ATOM     28  O   UNL     1      -1.453  -0.826   1.764  0.00  0.00    -0.274 OA
ATOM     29  N   UNL     1       0.639  -0.767   2.500  0.00  0.00    -0.328 N 
ATOM     30  H   UNL     1       1.361  -1.214   2.969  0.00  0.00    +0.145 HD
ATOM     31  H   UNL     1       0.773   0.122   2.138  0.00  0.00    +0.145 HD
ENDBRANCH  15  27
TORSDOF 3
