REMARK  Name = ZINC39696199
REMARK  12 active torsions:
REMARK  status: ('A' for Active; 'I' for Inactive)
REMARK    1  A    between atoms: C_1  and  C_2
REMARK    2  A    between atoms: C_2  and  C_3
REMARK    3  A    between atoms: C_6  and  C_9
REMARK    4  A    between atoms: C_9  and  C_11
REMARK    5  A    between atoms: C_9  and  N_12
REMARK    6  A    between atoms: C_13  and  C_15
REMARK    7  A    between atoms: C_26  and  C_28
REMARK    8  A    between atoms: C_30  and  C_37
REMARK    9  A    between atoms: N_32  and  C_33
REMARK   10  A    between atoms: C_33  and  C_34
REMARK   11  A    between atoms: C_33  and  C_35
REMARK   12  A    between atoms: C_33  and  C_36
REMARK                            x       y       z     vdW  Elec       q    Type
REMARK                         _______ _______ _______ _____ _____    ______ ____
ROOT
ATOM      1  C   UNL     1       2.300  -0.586   8.560  0.00  0.00    +0.100 C 
ATOM      2  C   UNL     1       1.837   0.783   8.013  0.00  0.00    +0.121 C 
ATOM      3  N   UNL     1       2.214   1.754   9.067  0.00  0.00    -0.295 N 
ATOM      4  C   UNL     1       3.536   1.284   9.546  0.00  0.00    +0.115 C 
ATOM      5  C   UNL     1       3.416  -0.253   9.565  0.00  0.00    -0.004 C 
ATOM      6  C   UNL     1       4.730  -0.890   9.126  0.00  0.00    -0.010 C 
ATOM      7  C   UNL     1       5.810  -0.594  10.170  0.00  0.00    -0.082 C 
ATOM      8  N   UNL     1       5.394  -1.130  11.472  0.00  0.00    +0.379 N 
ATOM      9  C   UNL     1       4.180  -0.445  11.931  0.00  0.00    -0.082 C 
ATOM     10  C   UNL     1       3.031  -0.735  10.960  0.00  0.00    -0.010 C 
ATOM     11  C   UNL     1       1.513   2.824   9.494  0.00  0.00    +0.265 C 
ATOM     12  O   UNL     1       1.956   3.526  10.383  0.00  0.00    -0.268 OA
ATOM     13  H   UNL     1       5.209  -2.118  11.383  0.00  0.00    -0.086 HD
ATOM     14  H   UNL     1       6.133  -0.988  12.144  0.00  0.00    -0.086 HD
ENDROOT
BRANCH  11  15
ATOM     15  C   UNL     1       0.211   3.141   8.886  0.00  0.00    +0.124 A 
ATOM     16  C   UNL     1      -0.330   2.581   7.741  0.00  0.00    +0.057 A 
ATOM     17  C   UNL     1      -1.569   3.203   7.575  0.00  0.00    +0.061 A 
ATOM     18  N   UNL     1      -1.724   4.057   8.554  0.00  0.00    -0.175 NA
ATOM     19  N   UNL     1      -0.708   4.043   9.340  0.00  0.00    -0.254 N 
ATOM     20  C   UNL     1      -2.552   2.939   6.464  0.00  0.00    +0.067 C 
BRANCH  19  21
ATOM     21  C   UNL     1      -0.557   4.871  10.539  0.00  0.00    +0.056 C 
ATOM     22  C   UNL     1       0.622   5.829  10.353  0.00  0.00    +0.036 C 
ATOM     23  C   UNL     1      -1.837   5.677  10.767  0.00  0.00    +0.036 C 
ATOM     24  C   UNL     1      -0.298   3.973  11.750  0.00  0.00    +0.036 C 
ENDBRANCH  19  21
ENDBRANCH  11  15
BRANCH   1  26
ATOM     25  N   UNL     1       2.727  -2.784   7.509  0.00  0.00    -0.308 N 
ATOM     26  C   UNL     1       2.838  -1.442   7.443  0.00  0.00    +0.219 C 
ATOM     27  O   UNL     1       3.373  -0.924   6.485  0.00  0.00    -0.275 OA
ATOM     28  H   UNL     1       2.366  -3.202   8.306  0.00  0.00    +0.149 HD
BRANCH  25  29
ATOM     29  C   UNL     1       3.150  -3.610   6.375  0.00  0.00    +0.100 C 
ATOM     30  C   UNL     1       4.653  -3.877   6.473  0.00  0.00    +0.033 C 
BRANCH  29  34
ATOM     31  C   UNL     1       1.037  -7.322   6.451  0.00  0.00    -0.048 A 
ATOM     32  C   UNL     1       1.263  -6.680   5.248  0.00  0.00    +0.004 A 
ATOM     33  C   UNL     1       1.946  -5.478   5.224  0.00  0.00    +0.006 A 
ATOM     34  C   UNL     1       2.404  -4.919   6.402  0.00  0.00    -0.027 A 
ATOM     35  C   UNL     1       2.177  -5.561   7.605  0.00  0.00    +0.006 A 
ATOM     36  C   UNL     1       1.490  -6.760   7.630  0.00  0.00    +0.004 A 
BRANCH  31  38
ATOM     37  C   UNL     1      -1.207  -8.363   6.626  0.00  0.00    +0.009 C 
ATOM     38  C   UNL     1       0.292  -8.632   6.478  0.00  0.00    +0.032 C 
ENDBRANCH  31  38
ENDBRANCH  29  34
ENDBRANCH  25  29
ENDBRANCH   1  26
TORSDOF 6
