REMARK  Name = ZINC09500469
REMARK  9 active torsions:
REMARK  status: ('A' for Active; 'I' for Inactive)
REMARK    1  A    between atoms: C_1  and  C_2
REMARK    2  A    between atoms: C_10  and  C_20
REMARK    3  A    between atoms: C_16  and  S_18
REMARK    4  A    between atoms: S_18  and  C_19
REMARK    5  A    between atoms: C_23  and  O_26
REMARK    6  A    between atoms: O_26  and  C_27
REMARK    7  A    between atoms: C_28  and  C_31
REMARK    8  A    between atoms: C_34  and  O_37
REMARK    9  A    between atoms: O_37  and  C_38
REMARK                            x       y       z     vdW  Elec       q    Type
REMARK                         _______ _______ _______ _____ _____    ______ ____
ROOT
ATOM      1  C   UNL     1      -0.191   2.012   2.093  0.00  0.00    +0.044 C 
ATOM      2  C   UNL     1      -0.202   0.578   1.629  0.00  0.00    -0.050 A 
ATOM      3  C   UNL     1      -0.303   0.291   0.279  0.00  0.00    +0.007 A 
ATOM      4  C   UNL     1      -0.313  -1.020  -0.162  0.00  0.00    +0.046 A 
ATOM      5  C   UNL     1      -0.221  -2.055   0.752  0.00  0.00    +0.131 A 
ATOM      6  C   UNL     1      -0.119  -1.764   2.118  0.00  0.00    +0.040 A 
ATOM      7  C   UNL     1      -0.103  -0.446   2.552  0.00  0.00    +0.017 A 
ATOM      8  C   UNL     1      -0.026  -2.897   3.074  0.00  0.00    +0.058 C 
ATOM      9  C   UNL     1      -0.368  -4.121   2.622  0.00  0.00    +0.025 C 
ATOM     10  C   UNL     1      -0.272  -5.287   3.580  0.00  0.00    +0.159 C 
ATOM     11  N   UNL     1       0.193  -4.969   4.936  0.00  0.00    -0.209 N 
ATOM     12  C   UNL     1       0.502  -3.659   5.247  0.00  0.00    +0.216 C 
ATOM     13  N   UNL     1       0.387  -2.702   4.350  0.00  0.00    -0.326 N 
ATOM     14  N   UNL     1       0.896  -3.635   6.533  0.00  0.00    -0.192 NA
ATOM     15  C   UNL     1       0.855  -4.849   7.046  0.00  0.00    +0.174 C 
ATOM     16  N   UNL     1       0.421  -5.726   6.088  0.00  0.00    -0.239 N 
ATOM     17  C   UNL     1      -0.839  -4.310   1.210  0.00  0.00    +0.234 C 
ATOM     18  O   UNL     1      -0.225  -3.350   0.347  0.00  0.00    -0.479 OA
ATOM     19  H   UNL     1       0.615  -1.799   4.619  0.00  0.00    +0.169 HD
ATOM     20  H   UNL     1       0.296  -6.683   6.189  0.00  0.00    +0.172 HD
ENDROOT
BRANCH  10  21
ATOM     21  C   UNL     1      -1.635  -5.919   3.691  0.00  0.00    -0.021 A 
ATOM     22  C   UNL     1      -2.641  -5.273   4.385  0.00  0.00    +0.009 A 
ATOM     23  C   UNL     1      -3.892  -5.850   4.489  0.00  0.00    +0.046 A 
ATOM     24  C   UNL     1      -4.138  -7.080   3.895  0.00  0.00    +0.120 A 
ATOM     25  C   UNL     1      -3.127  -7.726   3.199  0.00  0.00    +0.046 A 
ATOM     26  C   UNL     1      -1.879  -7.142   3.094  0.00  0.00    +0.009 A 
BRANCH  24  27
ATOM     27  O   UNL     1      -5.367  -7.650   3.996  0.00  0.00    -0.495 OA
ATOM     28  C   UNL     1      -5.549  -8.917   3.360  0.00  0.00    +0.277 C 
ENDBRANCH  24  27
ENDBRANCH  10  21
BRANCH  17  29
ATOM     29  C   UNL     1      -2.336  -4.138   1.155  0.00  0.00    -0.003 A 
ATOM     30  C   UNL     1      -2.891  -2.881   1.298  0.00  0.00    +0.011 A 
ATOM     31  C   UNL     1      -4.263  -2.720   1.250  0.00  0.00    +0.046 A 
ATOM     32  C   UNL     1      -5.082  -3.823   1.057  0.00  0.00    +0.120 A 
ATOM     33  C   UNL     1      -4.522  -5.084   0.913  0.00  0.00    +0.046 A 
ATOM     34  C   UNL     1      -3.150  -5.238   0.958  0.00  0.00    +0.011 A 
BRANCH  32  35
ATOM     35  O   UNL     1      -6.431  -3.668   1.009  0.00  0.00    -0.495 OA
ATOM     36  C   UNL     1      -7.213  -4.848   0.807  0.00  0.00    +0.277 C 
ENDBRANCH  32  35
ENDBRANCH  17  29
BRANCH  15  37
ATOM     37  S   UNL     1       1.288  -5.274   8.700  0.00  0.00    -0.092 S 
ATOM     38  C   UNL     1       1.772  -3.693   9.447  0.00  0.00    +0.093 C 
ENDBRANCH  15  37
TORSDOF 5
