REMARK  Name = ZINC61790291
REMARK  6 active torsions:
REMARK  status: ('A' for Active; 'I' for Inactive)
REMARK    1  A    between atoms: C_4  and  N_14
REMARK    2  A    between atoms: C_5  and  C_7
REMARK    3  A    between atoms: C_7  and  N_8
REMARK    4  A    between atoms: N_17  and  C_18
REMARK    5  A    between atoms: C_18  and  C_19
REMARK    6  A    between atoms: C_19  and  C_20
REMARK                            x       y       z     vdW  Elec       q    Type
REMARK                         _______ _______ _______ _____ _____    ______ ____
ROOT
ATOM      1  C   UNL     1      -0.319   1.167  -0.252  0.00  0.00    +0.000 A 
ATOM      2  C   UNL     1       0.713   2.078  -0.122  0.00  0.00    +0.002 A 
ATOM      3  C   UNL     1       2.002   1.637   0.101  0.00  0.00    +0.023 A 
ATOM      4  C   UNL     1       2.263   0.276   0.194  0.00  0.00    +0.036 A 
ATOM      5  C   UNL     1       1.225  -0.637   0.062  0.00  0.00    -0.043 A 
ATOM      6  C   UNL     1      -0.063  -0.189  -0.160  0.00  0.00    +0.003 A 
ENDROOT
BRANCH   4   7
ATOM      7  N   UNL     1       3.568  -0.174   0.419  0.00  0.00    -0.269 N 
ATOM      8  C   UNL     1       4.442   0.602   1.090  0.00  0.00    +0.304 C 
ATOM      9  O   UNL     1       4.121   1.723   1.433  0.00  0.00    -0.253 OA
ATOM     10  N   UNL     1       5.673   0.135   1.382  0.00  0.00    -0.299 N 
ATOM     11  H   UNL     1       3.844  -1.045   0.093  0.00  0.00    +0.156 HD
ATOM     12  H   UNL     1       5.929  -0.760   1.109  0.00  0.00    +0.150 HD
BRANCH  10  13
ATOM     13  C   UNL     1       6.623   0.978   2.111  0.00  0.00    +0.111 C 
BRANCH  13  14
ATOM     14  C   UNL     1       7.934   0.215   2.311  0.00  0.00    +0.061 C 
BRANCH  14  15
ATOM     15  C   UNL     1       8.911   1.083   3.061  0.00  0.00    -0.009 A 
ATOM     16  C   UNL     1       9.107   1.188   4.398  0.00  0.00    +0.011 A 
ATOM     17  C   UNL     1      10.072   2.059   4.867  0.00  0.00    +0.008 A 
ATOM     18  C   UNL     1      10.794   2.783   3.976  0.00  0.00    +0.045 A 
ATOM     19  S   UNL     1      10.116   2.232   2.419  0.00  0.00    -0.102 S 
ENDBRANCH  14  15
ENDBRANCH  13  14
ENDBRANCH  10  13
ENDBRANCH   4   7
BRANCH   5  20
ATOM     20  C   UNL     1       1.503  -2.115   0.162  0.00  0.00    -0.041 C 
BRANCH  20  21
ATOM     21  N   UNL     1       1.684  -2.485   1.572  0.00  0.00    +0.383 N 
ATOM     22  C   UNL     1       2.141  -3.874   1.649  0.00  0.00    -0.068 C 
ATOM     23  C   UNL     1       2.688  -4.166   3.051  0.00  0.00    +0.050 C 
ATOM     24  S   UNL     1       1.335  -3.949   4.248  0.00  0.00    -0.164 S 
ATOM     25  C   UNL     1       0.660  -2.320   3.796  0.00  0.00    +0.050 C 
ATOM     26  C   UNL     1       0.416  -2.304   2.282  0.00  0.00    -0.068 C 
ATOM     27  H   UNL     1       2.382  -1.885   1.984  0.00  0.00    -0.081 HD
ENDBRANCH  20  21
ENDBRANCH   5  20
TORSDOF 6
