REMARK  Name = ZINC10048399
REMARK  12 active torsions:
REMARK  status: ('A' for Active; 'I' for Inactive)
REMARK    1  A    between atoms: C_1  and  C_2
REMARK    2  A    between atoms: C_7  and  N_8
REMARK    3  A    between atoms: C_9  and  C_37
REMARK    4  A    between atoms: C_10  and  C_36
REMARK    5  A    between atoms: N_18  and  C_23
REMARK    6  A    between atoms: N_21  and  C_22
REMARK    7  A    between atoms: C_23  and  C_24
REMARK    8  A    between atoms: C_24  and  C_26
REMARK    9  A    between atoms: C_24  and  C_27
REMARK   10  A    between atoms: C_27  and  N_28
REMARK   11  A    between atoms: N_28  and  C_29
REMARK   12  A    between atoms: C_34  and  N_35
REMARK                            x       y       z     vdW  Elec       q    Type
REMARK                         _______ _______ _______ _____ _____    ______ ____
ROOT
ATOM      1  N   UNL     1      -4.314   1.831  -8.106  0.00  0.00    -0.282 N 
ATOM      2  C   UNL     1      -4.731   0.570  -7.722  0.00  0.00    +0.043 A 
ATOM      3  C   UNL     1      -4.037   0.213  -6.645  0.00  0.00    +0.044 A 
ATOM      4  N   UNL     1      -3.167   1.241  -6.327  0.00  0.00    -0.274 N 
ATOM      5  C   UNL     1      -3.340   2.236  -7.228  0.00  0.00    +0.223 A 
ATOM      6  N   UNL     1      -2.516   3.233  -6.943  0.00  0.00    -0.193 NA
ATOM      7  C   UNL     1      -1.792   2.930  -5.868  0.00  0.00    +0.170 A 
ATOM      8  C   UNL     1      -2.183   1.660  -5.445  0.00  0.00    +0.157 A 
ATOM      9  C   UNL     1      -1.564   1.093  -4.319  0.00  0.00    +0.283 A 
ATOM     10  O   UNL     1      -1.885  -0.018  -3.934  0.00  0.00    -0.265 OA
ATOM     11  N   UNL     1      -0.613   1.792  -3.665  0.00  0.00    -0.259 N 
ATOM     12  C   UNL     1      -0.243   3.016  -4.080  0.00  0.00    +0.333 A 
ATOM     13  O   UNL     1       0.621   3.613  -3.468  0.00  0.00    -0.246 OA
ATOM     14  N   UNL     1      -0.805   3.596  -5.157  0.00  0.00    -0.279 N 
ATOM     15  C   UNL     1      -0.374   4.932  -5.578  0.00  0.00    +0.155 C 
ATOM     16  C   UNL     1      -4.175  -1.089  -5.899  0.00  0.00    +0.066 C 
ATOM     17  C   UNL     1      -5.789  -0.258  -8.406  0.00  0.00    +0.066 C 
ENDROOT
BRANCH   1  24
ATOM     18  C   UNL     1      -6.539   3.555  -7.686  0.00  0.00    +0.046 C 
ATOM     19  C   UNL     1      -5.882   3.417  -9.036  0.00  0.00    -0.027 A 
ATOM     20  C   UNL     1      -6.354   4.142 -10.112  0.00  0.00    +0.005 A 
ATOM     21  C   UNL     1      -5.755   4.012 -11.352  0.00  0.00    +0.000 A 
ATOM     22  C   UNL     1      -4.679   3.159 -11.517  0.00  0.00    +0.002 A 
ATOM     23  C   UNL     1      -4.199   2.435 -10.443  0.00  0.00    +0.026 A 
ATOM     24  C   UNL     1      -4.798   2.564  -9.197  0.00  0.00    +0.053 A 
ENDBRANCH   1  24
BRANCH  11  25
ATOM     25  C   UNL     1       0.031   1.205  -2.487  0.00  0.00    +0.134 C 
BRANCH  25  26
ATOM     26  C   UNL     1      -0.753   1.593  -1.232  0.00  0.00    +0.023 C 
ATOM     27  C   UNL     1      -2.147   0.964  -1.286  0.00  0.00    +0.011 C 
BRANCH  26  28
ATOM     28  C   UNL     1      -0.013   1.086   0.008  0.00  0.00    +0.106 C 
BRANCH  28  29
ATOM     29  N   UNL     1      -0.698   1.558   1.213  0.00  0.00    -0.342 N 
ATOM     30  H   UNL     1      -1.495   2.106   1.135  0.00  0.00    +0.146 HD
BRANCH  29  31
ATOM     31  C   UNL     1      -0.203   1.220   2.479  0.00  0.00    +0.048 A 
ATOM     32  C   UNL     1       0.932   0.433   2.593  0.00  0.00    +0.025 A 
ATOM     33  C   UNL     1       1.422   0.103   3.844  0.00  0.00    +0.002 A 
ATOM     34  C   UNL     1       0.777   0.548   4.982  0.00  0.00    +0.002 A 
ATOM     35  C   UNL     1      -0.359   1.329   4.877  0.00  0.00    +0.024 A 
ATOM     36  C   UNL     1      -0.855   1.668   3.627  0.00  0.00    +0.046 A 
BRANCH  36  37
ATOM     37  N   UNL     1      -2.005   2.459   3.519  0.00  0.00    -0.357 N 
ATOM     38  H   UNL     1      -2.351   2.695   2.644  0.00  0.00    +0.142 HD
ATOM     39  H   UNL     1      -2.457   2.770   4.319  0.00  0.00    +0.142 HD
ENDBRANCH  36  37
ENDBRANCH  29  31
ENDBRANCH  28  29
ENDBRANCH  26  28
ENDBRANCH  25  26
ENDBRANCH  11  25
TORSDOF 7
