REMARK  Name = ZINC05182462
REMARK  8 active torsions:
REMARK  status: ('A' for Active; 'I' for Inactive)
REMARK    1  A    between atoms: C_1  and  C_2
REMARK    2  A    between atoms: C_5  and  N_9
REMARK    3  A    between atoms: C_6  and  C_8
REMARK    4  A    between atoms: C_10  and  C_12
REMARK    5  A    between atoms: C_13  and  C_28
REMARK    6  A    between atoms: C_17  and  C_22
REMARK    7  A    between atoms: C_18  and  O_21
REMARK    8  A    between atoms: C_22  and  N_23
REMARK                            x       y       z     vdW  Elec       q    Type
REMARK                         _______ _______ _______ _____ _____    ______ ____
ROOT
ATOM      1  C   UNL     1      -0.134  -6.306  -1.187  0.00  0.00    +0.086 A 
ATOM      2  C   UNL     1      -1.267  -7.058  -1.140  0.00  0.00    +0.115 A 
ATOM      3  O   UNL     1      -0.950  -8.358  -1.158  0.00  0.00    -0.459 OA
ATOM      4  C   UNL     1       0.386  -8.537  -1.216  0.00  0.00    +0.136 A 
ATOM      5  C   UNL     1       0.984  -7.269  -1.245  0.00  0.00    +0.037 A 
ATOM      6  C   UNL     1       2.368  -7.146  -1.312  0.00  0.00    -0.011 A 
ATOM      7  C   UNL     1       3.153  -8.283  -1.354  0.00  0.00    +0.119 A 
ATOM      8  C   UNL     1       2.561  -9.541  -1.329  0.00  0.00    +0.049 A 
ATOM      9  C   UNL     1       1.190  -9.670  -1.254  0.00  0.00    +0.050 A 
ATOM     10  C   UNL     1      -2.669  -6.509  -1.078  0.00  0.00    +0.087 C 
ENDROOT
BRANCH   1  12
ATOM     11  N   UNL     1       0.057  -4.169  -0.021  0.00  0.00    -0.281 N 
ATOM     12  C   UNL     1      -0.042  -4.838  -1.187  0.00  0.00    +0.252 C 
ATOM     13  O   UNL     1      -0.055  -4.228  -2.239  0.00  0.00    -0.270 OA
ATOM     14  H   UNL     1       0.134  -4.658   0.814  0.00  0.00    +0.155 HD
BRANCH  11  19
ATOM     15  C   UNL     1       0.024   1.503   0.005  0.00  0.00    +0.044 C 
ATOM     16  C   UNL     1       0.033  -0.004  -0.002  0.00  0.00    -0.050 A 
ATOM     17  C   UNL     1       0.630  -0.685  -1.047  0.00  0.00    +0.005 A 
ATOM     18  C   UNL     1       0.639  -2.066  -1.056  0.00  0.00    +0.024 A 
ATOM     19  C   UNL     1       0.050  -2.771  -0.014  0.00  0.00    +0.037 A 
ATOM     20  C   UNL     1      -0.548  -2.083   1.034  0.00  0.00    -0.029 A 
ATOM     21  C   UNL     1      -0.550  -0.702   1.040  0.00  0.00    +0.008 A 
ATOM     22  C   UNL     1      -1.190  -2.843   2.166  0.00  0.00    +0.045 C 
ENDBRANCH  11  19
ENDBRANCH   1  12
BRANCH   7  23
ATOM     23  O   UNL     1       4.507  -8.172  -1.420  0.00  0.00    -0.507 OA
ATOM     24  H   UNL     1       4.942  -8.142  -0.557  0.00  0.00    +0.292 HD
ENDBRANCH   7  23
BRANCH   6  25
ATOM     25  C   UNL     1       3.007  -5.781  -1.339  0.00  0.00    -0.039 C 
BRANCH  25  26
ATOM     26  N   UNL     1       3.282  -5.342   0.035  0.00  0.00    +0.382 N 
ATOM     27  C   UNL     1       4.357  -6.174   0.633  0.00  0.00    -0.078 C 
ATOM     28  C   UNL     1       4.904  -5.280   1.774  0.00  0.00    -0.020 C 
ATOM     29  C   UNL     1       4.843  -3.862   1.162  0.00  0.00    -0.020 C 
ATOM     30  C   UNL     1       3.799  -3.956   0.034  0.00  0.00    -0.078 C 
ATOM     31  H   UNL     1       2.444  -5.400   0.594  0.00  0.00    -0.081 HD
ENDBRANCH  25  26
ENDBRANCH   6  25
TORSDOF 5
