REMARK  Name = ZINC39287181
REMARK  6 active torsions:
REMARK  status: ('A' for Active; 'I' for Inactive)
REMARK    1  A    between atoms: C_1  and  N_2
REMARK    2  A    between atoms: N_2  and  C_3
REMARK    3  A    between atoms: C_11  and  C_13
REMARK    4  A    between atoms: C_13  and  N_14
REMARK    5  A    between atoms: N_14  and  N_15
REMARK    6  A    between atoms: N_15  and  C_16
REMARK                            x       y       z     vdW  Elec       q    Type
REMARK                         _______ _______ _______ _____ _____    ______ ____
ROOT
ATOM      1  C   UNL     1      -0.023   0.089  -2.470  0.00  0.00    +0.194 C 
ENDROOT
BRANCH   1   4
ATOM      2  C   UNL     1      -0.018   1.461   0.010  0.00  0.00    +0.132 C 
ATOM      3  N   UNL     1       0.002  -0.004   0.002  0.00  0.00    -0.299 N 
ATOM      4  C   UNL     1       0.000  -0.672  -1.169  0.00  0.00    +0.231 C 
ATOM      5  O   UNL     1       0.017  -1.884  -1.175  0.00  0.00    -0.274 OA
BRANCH   3   6
ATOM      6  C   UNL     1       0.024  -0.743   1.267  0.00  0.00    +0.098 C 
ATOM      7  C   UNL     1       1.276  -0.348   2.067  0.00  0.00    +0.046 C 
ATOM      8  C   UNL     1       1.118  -0.895   3.515  0.00  0.00    +0.168 C 
ATOM      9  S   UNL     1      -0.663  -0.534   3.819  0.00  0.00    -0.029 S 
ATOM     10  O   UNL     1      -1.266  -1.666   4.429  0.00  0.00    -0.174 OA
ATOM     11  O   UNL     1      -0.777   0.740   4.439  0.00  0.00    -0.174 OA
ATOM     12  C   UNL     1      -1.249  -0.407   2.081  0.00  0.00    +0.188 C 
ENDBRANCH   3   6
ENDBRANCH   1   4
BRANCH   1  13
ATOM     13  N   UNL     1      -0.020  -0.860  -3.591  0.00  0.00    -0.247 NA
ATOM     14  H   UNL     1      -0.792  -1.506  -3.521  0.00  0.00    +0.141 HD
BRANCH  13  15
ATOM     15  N   UNL     1      -0.042  -0.160  -4.866  0.00  0.00    -0.252 NA
ATOM     16  H   UNL     1       0.730   0.486  -4.937  0.00  0.00    +0.141 HD
BRANCH  15  17
ATOM     17  C   UNL     1      -0.040  -1.108  -5.987  0.00  0.00    +0.092 C 
ATOM     18  C   UNL     1       1.407  -1.398  -6.420  0.00  0.00    +0.044 C 
ATOM     19  C   UNL     1       1.414  -2.129  -7.784  0.00  0.00    +0.167 C 
ATOM     20  S   UNL     1      -0.136  -1.531  -8.571  0.00  0.00    -0.029 S 
ATOM     21  O   UNL     1       0.197  -0.692  -9.669  0.00  0.00    -0.174 OA
ATOM     22  O   UNL     1      -1.008  -2.635  -8.773  0.00  0.00    -0.174 OA
ATOM     23  C   UNL     1      -0.793  -0.490  -7.200  0.00  0.00    +0.186 C 
ENDBRANCH  15  17
ENDBRANCH  13  15
ENDBRANCH   1  13
TORSDOF 5
