REMARK  Name = ZINC65305968
REMARK  14 active torsions:
REMARK  status: ('A' for Active; 'I' for Inactive)
REMARK    1  A    between atoms: C_1  and  C_2
REMARK    2  A    between atoms: C_2  and  C_3
REMARK    3  A    between atoms: C_3  and  C_5
REMARK    4  A    between atoms: C_3  and  C_6
REMARK    5  A    between atoms: C_6  and  C_8
REMARK    6  A    between atoms: C_6  and  N_20
REMARK    7  A    between atoms: N_10  and  C_11
REMARK    8  A    between atoms: C_21  and  C_23
REMARK    9  A    between atoms: C_26  and  O_32
REMARK   10  A    between atoms: C_27  and  O_29
REMARK   11  A    between atoms: O_29  and  C_30
REMARK   12  A    between atoms: C_30  and  C_31
REMARK   13  A    between atoms: O_32  and  C_33
REMARK   14  A    between atoms: C_33  and  C_34
REMARK                            x       y       z     vdW  Elec       q    Type
REMARK                         _______ _______ _______ _____ _____    ______ ____
ROOT
ATOM      1  C   UNL     1       2.215  -0.045  -1.126  0.00  0.00    +0.162 C 
ENDROOT
BRANCH   1   2
ATOM      2  C   UNL     1       2.913  -0.833  -2.204  0.00  0.00    +0.236 C 
ATOM      3  O   UNL     1       3.663  -0.273  -2.975  0.00  0.00    -0.274 OA
ATOM      4  N   UNL     1       2.704  -2.160  -2.310  0.00  0.00    -0.277 N 
ATOM      5  H   UNL     1       2.049  -2.595  -1.742  0.00  0.00    +0.152 HD
BRANCH   4   6
ATOM      6  C   UNL     1       3.465  -2.946  -3.285  0.00  0.00    +0.269 C 
ATOM      7  N   UNL     1       2.910  -2.755  -4.630  0.00  0.00    -0.348 N 
ATOM      8  C   UNL     1       2.515  -3.919  -5.059  0.00  0.00    +0.061 A 
ATOM      9  C   UNL     1       1.887  -4.362  -6.311  0.00  0.00    +0.027 A 
ATOM     10  C   UNL     1       1.582  -5.665  -6.477  0.00  0.00    +0.002 A 
ATOM     11  C   UNL     1       1.840  -6.635  -5.493  0.00  0.00    +0.002 A 
ATOM     12  C   UNL     1       2.411  -6.336  -4.309  0.00  0.00    +0.027 A 
ATOM     13  C   UNL     1       2.788  -4.946  -4.017  0.00  0.00    +0.061 A 
ATOM     14  N   UNL     1       3.341  -4.378  -2.985  0.00  0.00    -0.348 N 
ATOM     15  H   UNL     1       2.848  -1.915  -5.112  0.00  0.00    +0.163 HD
ATOM     16  H   UNL     1       3.621  -4.819  -2.168  0.00  0.00    +0.163 HD
ENDBRANCH   4   6
ENDBRANCH   1   2
BRANCH   1  17
ATOM     17  N   UNL     1       2.597   1.366  -1.227  0.00  0.00    -0.300 N 
ATOM     18  C   UNL     1       2.674   2.125  -0.116  0.00  0.00    +0.245 C 
ATOM     19  O   UNL     1       2.521   1.618   0.978  0.00  0.00    -0.270 OA
ATOM     20  H   UNL     1       2.794   1.754  -2.094  0.00  0.00    +0.150 HD
BRANCH  18  21
ATOM     21  C   UNL     1       2.946   3.571  -0.228  0.00  0.00    +0.040 A 
ATOM     22  C   UNL     1       3.117   4.157  -1.485  0.00  0.00    +0.017 A 
ATOM     23  C   UNL     1       3.370   5.507  -1.588  0.00  0.00    +0.050 A 
ATOM     24  C   UNL     1       3.457   6.289  -0.444  0.00  0.00    +0.162 A 
ATOM     25  C   UNL     1       3.287   5.712   0.814  0.00  0.00    +0.163 A 
ATOM     26  C   UNL     1       3.027   4.360   0.923  0.00  0.00    +0.062 A 
BRANCH  25  27
ATOM     27  O   UNL     1       3.373   6.481   1.932  0.00  0.00    -0.489 OA
BRANCH  27  28
ATOM     28  C   UNL     1       3.189   5.823   3.187  0.00  0.00    +0.226 C 
ATOM     29  C   UNL     1       3.321   6.842   4.321  0.00  0.00    +0.048 C 
ENDBRANCH  27  28
ENDBRANCH  25  27
BRANCH  24  30
ATOM     30  O   UNL     1       3.707   7.620  -0.550  0.00  0.00    -0.489 OA
BRANCH  30  31
ATOM     31  C   UNL     1       3.870   8.146  -1.869  0.00  0.00    +0.226 C 
ATOM     32  C   UNL     1       4.143   9.649  -1.788  0.00  0.00    +0.048 C 
ENDBRANCH  30  31
ENDBRANCH  24  30
ENDBRANCH  18  21
ENDBRANCH   1  17
BRANCH   1  33
ATOM     33  C   UNL     1       0.700  -0.176  -1.297  0.00  0.00    +0.015 C 
ATOM     34  C   UNL     1      -0.007   0.482  -0.111  0.00  0.00    +0.010 C 
BRANCH  33  36
ATOM     35  C   UNL     1       0.809  -0.271  -3.792  0.00  0.00    +0.004 C 
ATOM     36  C   UNL     1       0.272   0.515  -2.593  0.00  0.00    +0.002 C 
ENDBRANCH  33  36
ENDBRANCH   1  33
TORSDOF 10
