REMARK  Name = ZINC63775702
REMARK  11 active torsions:
REMARK  status: ('A' for Active; 'I' for Inactive)
REMARK    1  A    between atoms: C_1  and  C_2
REMARK    2  A    between atoms: C_2  and  C_3
REMARK    3  A    between atoms: C_6  and  N_9
REMARK    4  A    between atoms: C_10  and  C_12
REMARK    5  A    between atoms: C_12  and  C_14
REMARK    6  A    between atoms: C_12  and  O_15
REMARK    7  A    between atoms: O_15  and  C_16
REMARK    8  A    between atoms: C_16  and  C_18
REMARK    9  A    between atoms: C_18  and  C_20
REMARK   10  A    between atoms: C_18  and  N_30
REMARK   11  A    between atoms: C_20  and  C_21
REMARK                            x       y       z     vdW  Elec       q    Type
REMARK                         _______ _______ _______ _____ _____    ______ ____
ROOT
ATOM      1  C   UNL     1      -9.899  -2.149  -3.930  0.00  0.00    +0.187 C 
ENDROOT
BRANCH   1   2
ATOM      2  N   UNL     1     -11.350  -2.313  -3.814  0.00  0.00    -0.286 N 
ATOM      3  C   UNL     1     -12.073  -1.434  -3.092  0.00  0.00    +0.298 C 
ATOM      4  O   UNL     1     -11.520  -0.504  -2.536  0.00  0.00    -0.253 OA
ATOM      5  N   UNL     1     -13.408  -1.585  -2.986  0.00  0.00    -0.313 N 
ATOM      6  H   UNL     1     -11.791  -3.054  -4.258  0.00  0.00    +0.151 HD
ATOM      7  H   UNL     1     -13.849  -2.326  -3.429  0.00  0.00    +0.146 HD
ATOM      8  H   UNL     1     -13.928  -0.952  -2.466  0.00  0.00    +0.146 HD
ENDBRANCH   1   2
BRANCH   1   9
ATOM      9  C   UNL     1      -9.276  -2.206  -2.558  0.00  0.00    +0.329 C 
ATOM     10  O   UNL     1      -9.954  -2.004  -1.579  0.00  0.00    -0.249 OA
BRANCH   9  11
ATOM     11  O   UNL     1      -7.969  -2.480  -2.426  0.00  0.00    -0.451 OA
BRANCH  11  12
ATOM     12  C   UNL     1      -7.446  -2.518  -1.097  0.00  0.00    +0.259 C 
ATOM     13  C   UNL     1      -7.563  -3.940  -0.543  0.00  0.00    +0.062 C 
BRANCH  12  15
ATOM     14  N   UNL     1      -5.320  -1.968   0.042  0.00  0.00    -0.282 N 
ATOM     15  C   UNL     1      -5.997  -2.104  -1.115  0.00  0.00    +0.258 C 
ATOM     16  O   UNL     1      -5.440  -1.894  -2.172  0.00  0.00    -0.271 OA
ATOM     17  H   UNL     1      -5.742  -2.209   0.882  0.00  0.00    +0.155 HD
BRANCH  14  21
ATOM     18  C   UNL     1      -1.419  -0.507   0.015  0.00  0.00    -0.048 A 
ATOM     19  C   UNL     1      -2.333  -0.051  -0.916  0.00  0.00    +0.005 A 
ATOM     20  C   UNL     1      -3.627  -0.533  -0.910  0.00  0.00    +0.023 A 
ATOM     21  C   UNL     1      -4.010  -1.478   0.033  0.00  0.00    +0.034 A 
ATOM     22  C   UNL     1      -3.089  -1.935   0.967  0.00  0.00    +0.023 A 
ATOM     23  C   UNL     1      -1.795  -1.452   0.952  0.00  0.00    +0.005 A 
BRANCH  18  25
ATOM     24  C   UNL     1       0.858  -0.854  -0.904  0.00  0.00    +0.009 C 
ATOM     25  C   UNL     1      -0.007   0.021   0.005  0.00  0.00    +0.032 C 
ENDBRANCH  18  25
ENDBRANCH  14  21
ENDBRANCH  12  15
ENDBRANCH  11  12
ENDBRANCH   9  11
ENDBRANCH   1   9
BRANCH   1  26
ATOM     26  C   UNL     1      -9.589  -0.796  -4.575  0.00  0.00    +0.067 C 
BRANCH  26  27
ATOM     27  C   UNL     1     -10.105  -0.785  -5.991  0.00  0.00    -0.039 C 
ATOM     28  C   UNL     1     -11.294  -0.303  -6.419  0.00  0.00    -0.001 A 
ATOM     29  C   UNL     1     -12.420   0.329  -5.721  0.00  0.00    +0.010 A 
ATOM     30  C   UNL     1     -13.502   0.714  -6.435  0.00  0.00    +0.001 A 
ATOM     31  C   UNL     1     -13.574   0.525  -7.822  0.00  0.00    +0.002 A 
ATOM     32  C   UNL     1     -12.580  -0.049  -8.533  0.00  0.00    +0.026 A 
ATOM     33  C   UNL     1     -11.395  -0.491  -7.883  0.00  0.00    +0.043 A 
ATOM     34  N   UNL     1     -10.311  -1.067  -8.343  0.00  0.00    -0.380 N 
ATOM     35  C   UNL     1      -9.396  -1.304  -7.221  0.00  0.00    +0.144 C 
ATOM     36  H   UNL     1     -10.141  -1.295  -9.271  0.00  0.00    +0.160 HD
ENDBRANCH  26  27
ENDBRANCH   1  26
TORSDOF 9
