REMARK  Name = ZINC39639388
REMARK  11 active torsions:
REMARK  status: ('A' for Active; 'I' for Inactive)
REMARK    1  A    between atoms: C_1  and  C_2
REMARK    2  A    between atoms: C_2  and  C_3
REMARK    3  A    between atoms: C_3  and  C_4
REMARK    4  A    between atoms: C_4  and  C_5
REMARK    5  A    between atoms: C_5  and  C_7
REMARK    6  A    between atoms: C_5  and  C_8
REMARK    7  A    between atoms: C_12  and  C_21
REMARK    8  A    between atoms: N_23  and  C_24
REMARK    9  A    between atoms: C_24  and  C_26
REMARK   10  A    between atoms: C_24  and  C_27
REMARK   11  A    between atoms: C_30  and  C_33
REMARK                            x       y       z     vdW  Elec       q    Type
REMARK                         _______ _______ _______ _____ _____    ______ ____
ROOT
ATOM      1  C   UNL     1       1.609  -3.777   2.573  0.00  0.00    +0.218 C 
ATOM      2  O   UNL     1       1.026  -4.293   1.643  0.00  0.00    -0.275 OA
ATOM      3  N   UNL     1       2.118  -4.544   3.558  0.00  0.00    -0.300 N 
ATOM      4  C   UNL     1       2.849  -4.101   4.768  0.00  0.00    +0.121 C 
ATOM      5  C   UNL     1       2.333  -5.022   5.896  0.00  0.00    +0.100 C 
ATOM      6  C   UNL     1       1.825  -6.281   5.173  0.00  0.00    -0.004 C 
ATOM      7  C   UNL     1       2.066  -6.021   3.679  0.00  0.00    +0.115 C 
ATOM      8  C   UNL     1       0.335  -6.476   5.435  0.00  0.00    -0.010 C 
ATOM      9  C   UNL     1      -0.134  -7.764   4.753  0.00  0.00    -0.082 C 
ATOM     10  N   UNL     1       0.629  -8.903   5.278  0.00  0.00    +0.379 N 
ATOM     11  C   UNL     1       2.050  -8.753   4.940  0.00  0.00    -0.082 C 
ATOM     12  C   UNL     1       2.611  -7.506   5.630  0.00  0.00    -0.010 C 
ATOM     13  H   UNL     1       0.525  -8.942   6.281  0.00  0.00    -0.086 HD
ATOM     14  H   UNL     1       0.277  -9.758   4.872  0.00  0.00    -0.086 HD
ENDROOT
BRANCH   5  15
ATOM     15  C   UNL     1       1.208  -4.354   6.644  0.00  0.00    +0.219 C 
ATOM     16  O   UNL     1       0.476  -3.575   6.071  0.00  0.00    -0.275 OA
ATOM     17  N   UNL     1       1.016  -4.623   7.951  0.00  0.00    -0.308 N 
ATOM     18  H   UNL     1       1.601  -5.246   8.409  0.00  0.00    +0.149 HD
BRANCH  17  19
ATOM     19  C   UNL     1      -0.078  -3.974   8.678  0.00  0.00    +0.100 C 
ATOM     20  C   UNL     1      -1.369  -4.770   8.475  0.00  0.00    +0.033 C 
BRANCH  19  21
ATOM     21  C   UNL     1       0.256  -3.925  10.147  0.00  0.00    -0.027 A 
ATOM     22  C   UNL     1       0.873  -5.004  10.752  0.00  0.00    +0.006 A 
ATOM     23  C   UNL     1       1.179  -4.958  12.100  0.00  0.00    +0.004 A 
ATOM     24  C   UNL     1       0.869  -3.834  12.842  0.00  0.00    -0.050 A 
ATOM     25  C   UNL     1       0.253  -2.755  12.236  0.00  0.00    +0.004 A 
ATOM     26  C   UNL     1      -0.050  -2.798  10.888  0.00  0.00    +0.006 A 
ATOM     27  C   UNL     1       1.202  -3.785  14.311  0.00  0.00    +0.044 C 
ENDBRANCH  19  21
ENDBRANCH  17  19
ENDBRANCH   5  15
BRANCH   1  28
ATOM     28  C   UNL     1       1.765  -2.279   2.627  0.00  0.00    +0.072 C 
ATOM     29  C   UNL     1       3.252  -1.921   2.643  0.00  0.00    +0.017 C 
BRANCH  28  30
ATOM     30  C   UNL     1       1.103  -1.653   1.398  0.00  0.00    +0.012 C 
BRANCH  30  31
ATOM     31  C   UNL     1       1.151  -0.128   1.515  0.00  0.00    +0.000 C 
BRANCH  31  33
ATOM     32  C   UNL     1       0.537   2.023   0.402  0.00  0.00    +0.004 C 
ATOM     33  C   UNL     1       0.489   0.499   0.286  0.00  0.00    -0.003 C 
ENDBRANCH  31  33
ENDBRANCH  30  31
ENDBRANCH  28  30
ENDBRANCH   1  28
TORSDOF 7
