REMARK  Name = ZINC63746837
REMARK  7 active torsions:
REMARK  status: ('A' for Active; 'I' for Inactive)
REMARK    1  A    between atoms: C_1  and  O_2
REMARK    2  A    between atoms: O_2  and  C_3
REMARK    3  A    between atoms: C_5  and  O_30
REMARK    4  A    between atoms: C_8  and  N_9
REMARK    5  A    between atoms: N_12  and  C_13
REMARK    6  A    between atoms: C_18  and  C_19
REMARK    7  A    between atoms: O_30  and  C_31
REMARK                            x       y       z     vdW  Elec       q    Type
REMARK                         _______ _______ _______ _____ _____    ______ ____
ROOT
ATOM      1  N   UNL     1       0.078  -2.782  -0.595  0.00  0.00    -0.266 N 
ATOM      2  C   UNL     1      -0.021  -4.124  -0.517  0.00  0.00    +0.308 C 
ATOM      3  O   UNL     1      -0.956  -4.696  -1.042  0.00  0.00    -0.252 OA
ATOM      4  N   UNL     1       0.917  -4.831   0.144  0.00  0.00    -0.269 N 
ATOM      5  H   UNL     1       0.865  -2.332  -0.247  0.00  0.00    +0.156 HD
ATOM      6  H   UNL     1       1.625  -4.371   0.621  0.00  0.00    +0.156 HD
ENDROOT
BRANCH   1  12
ATOM      7  C   UNL     1      -0.690  -0.781  -1.723  0.00  0.00    +0.145 A 
ATOM      8  C   UNL     1      -1.712  -0.048  -2.304  0.00  0.00    +0.094 A 
ATOM      9  C   UNL     1      -3.000  -0.561  -2.335  0.00  0.00    +0.142 A 
ATOM     10  C   UNL     1      -3.266  -1.807  -1.786  0.00  0.00    +0.084 A 
ATOM     11  C   UNL     1      -2.248  -2.541  -1.206  0.00  0.00    +0.050 A 
ATOM     12  C   UNL     1      -0.957  -2.034  -1.178  0.00  0.00    +0.078 A 
ATOM     13 CL   UNL     1      -4.880  -2.446  -1.827  0.00  0.00    -0.080 Cl
BRANCH   7  15
ATOM     14  C   UNL     1       0.775   1.011  -2.270  0.00  0.00    +0.277 C 
ATOM     15  O   UNL     1       0.574  -0.281  -1.692  0.00  0.00    -0.493 OA
ENDBRANCH   7  15
BRANCH   9  16
ATOM     16  O   UNL     1      -4.003   0.159  -2.905  0.00  0.00    -0.494 OA
ATOM     17  C   UNL     1      -3.659   1.434  -3.450  0.00  0.00    +0.277 C 
ENDBRANCH   9  16
ENDBRANCH   1  12
BRANCH   4  18
ATOM     18  C   UNL     1       0.869  -6.230   0.142  0.00  0.00    +0.040 A 
ATOM     19  C   UNL     1      -0.356  -6.884   0.147  0.00  0.00    +0.024 A 
ATOM     20  C   UNL     1      -0.400  -8.264   0.145  0.00  0.00    +0.002 A 
ATOM     21  C   UNL     1       0.774  -8.995   0.138  0.00  0.00    +0.000 A 
ATOM     22  C   UNL     1       1.995  -8.347   0.133  0.00  0.00    +0.008 A 
ATOM     23  C   UNL     1       2.046  -6.966   0.129  0.00  0.00    -0.000 A 
BRANCH  23  24
ATOM     24  C   UNL     1       3.377  -6.261   0.117  0.00  0.00    +0.135 C 
ATOM     25  C   UNL     1       3.822  -5.963   1.531  0.00  0.00    +0.012 C 
ATOM     26  C   UNL     1       4.991  -6.621   1.703  0.00  0.00    -0.004 A 
ATOM     27  C   UNL     1       5.912  -6.732   2.841  0.00  0.00    +0.010 A 
ATOM     28  C   UNL     1       7.029  -7.482   2.709  0.00  0.00    +0.001 A 
ATOM     29  C   UNL     1       7.330  -8.155   1.517  0.00  0.00    +0.002 A 
ATOM     30  C   UNL     1       6.533  -8.101   0.429  0.00  0.00    +0.026 A 
ATOM     31  C   UNL     1       5.331  -7.341   0.455  0.00  0.00    +0.043 A 
ATOM     32  N   UNL     1       4.408  -7.135  -0.455  0.00  0.00    -0.374 N 
ATOM     33  H   UNL     1       4.406  -7.498  -1.354  0.00  0.00    +0.161 HD
ENDBRANCH  23  24
ENDBRANCH   4  18
TORSDOF 5
