REMARK  Name = ZINC04156689
REMARK  11 active torsions:
REMARK  status: ('A' for Active; 'I' for Inactive)
REMARK    1  A    between atoms: C_1  and  C_2
REMARK    2  A    between atoms: C_2  and  C_4
REMARK    3  A    between atoms: C_2  and  N_16
REMARK    4  A    between atoms: N_16  and  C_17
REMARK    5  A    between atoms: C_17  and  C_18
REMARK    6  A    between atoms: C_18  and  C_19
REMARK    7  A    between atoms: C_19  and  C_20
REMARK    8  A    between atoms: C_20  and  C_21
REMARK    9  A    between atoms: C_21  and  C_22
REMARK   10  A    between atoms: C_22  and  N_23
REMARK   11  A    between atoms: C_24  and  C_26
REMARK                            x       y       z     vdW  Elec       q    Type
REMARK                         _______ _______ _______ _____ _____    ______ ____
ROOT
ATOM      1  N   UNL     1       0.796   0.035   1.293  0.00  0.00    -0.291 N 
ATOM      2  C   UNL     1       0.357  -0.256   2.533  0.00  0.00    +0.222 C 
ATOM      3  O   UNL     1      -0.795  -0.027   2.838  0.00  0.00    -0.275 OA
ENDROOT
BRANCH   2   4
ATOM      4  C   UNL     1       1.296  -0.865   3.542  0.00  0.00    +0.048 C 
ATOM      5  C   UNL     1       2.572  -0.024   3.623  0.00  0.00    +0.019 C 
ATOM      6  C   UNL     1       3.526  -0.642   4.647  0.00  0.00    -0.009 C 
ATOM      7  C   UNL     1       2.849  -0.676   6.019  0.00  0.00    +0.007 C 
ATOM      8  C   UNL     1       1.574  -1.517   5.938  0.00  0.00    -0.009 C 
ATOM      9  C   UNL     1       0.620  -0.899   4.914  0.00  0.00    +0.019 C 
ATOM     10  C   UNL     1       1.929  -2.942   5.508  0.00  0.00    +0.007 C 
ATOM     11  C   UNL     1       2.606  -2.908   4.136  0.00  0.00    -0.009 C 
ATOM     12  C   UNL     1       3.881  -2.067   4.218  0.00  0.00    +0.007 C 
ATOM     13  C   UNL     1       1.652  -2.290   3.112  0.00  0.00    +0.019 C 
ENDBRANCH   2   4
BRANCH   1  15
ATOM     14  C   UNL     1      -0.670   1.957   0.923  0.00  0.00    +0.036 C 
ATOM     15  C   UNL     1      -0.106   0.667   0.326  0.00  0.00    +0.139 C 
BRANCH  15  16
ATOM     16  C   UNL     1      -1.237  -0.275   0.004  0.00  0.00    +0.131 A 
ATOM     17  N   UNL     1      -2.236   0.170  -0.803  0.00  0.00    -0.309 N 
ATOM     18  H   UNL     1      -2.204   1.074  -1.153  0.00  0.00    +0.170 HD
ATOM     19  C   UNL     1      -3.275  -0.637  -1.122  0.00  0.00    +0.259 A 
ATOM     20  O   UNL     1      -4.176  -0.252  -1.844  0.00  0.00    -0.267 OA
ATOM     21  C   UNL     1      -3.272  -1.997  -0.563  0.00  0.00    +0.065 A 
ATOM     22  C   UNL     1      -4.294  -2.906  -0.830  0.00  0.00    +0.015 A 
ATOM     23  C   UNL     1      -4.241  -4.168  -0.280  0.00  0.00    +0.001 A 
ATOM     24  C   UNL     1      -3.180  -4.539   0.536  0.00  0.00    +0.002 A 
ATOM     25  C   UNL     1      -2.161  -3.656   0.813  0.00  0.00    +0.028 A 
ATOM     26  C   UNL     1      -2.191  -2.371   0.266  0.00  0.00    +0.078 A 
ATOM     27  N   UNL     1      -1.205  -1.471   0.508  0.00  0.00    -0.232 NA
ENDBRANCH  15  16
ENDBRANCH   1  15
BRANCH   1  28
ATOM     28  C   UNL     1       2.174  -0.282   0.911  0.00  0.00    +0.108 C 
BRANCH  28  29
ATOM     29  C   UNL     1       3.016   0.996   0.934  0.00  0.00    +0.019 C 
BRANCH  29  30
ATOM     30  C   UNL     1       4.483   0.645   0.681  0.00  0.00    +0.001 C 
BRANCH  30  31
ATOM     31  C   UNL     1       5.325   1.922   0.704  0.00  0.00    -0.002 C 
BRANCH  31  32
ATOM     32  C   UNL     1       6.792   1.571   0.451  0.00  0.00    -0.020 C 
BRANCH  32  33
ATOM     33  C   UNL     1       7.634   2.849   0.474  0.00  0.00    -0.086 C 
BRANCH  33  34
ATOM     34  N   UNL     1       9.043   2.511   0.232  0.00  0.00    +0.378 N 
ATOM     35  H   UNL     1       9.598   3.354   0.247  0.00  0.00    -0.090 HD
ATOM     36  H   UNL     1       9.367   1.882   0.951  0.00  0.00    -0.090 HD
ATOM     37  H   UNL     1       9.132   2.066  -0.669  0.00  0.00    -0.090 HD
ENDBRANCH  33  34
ENDBRANCH  32  33
ENDBRANCH  31  32
ENDBRANCH  30  31
ENDBRANCH  29  30
ENDBRANCH  28  29
ENDBRANCH   1  28
TORSDOF 10
