REMARK  Name = ZINC45860592
REMARK  10 active torsions:
REMARK  status: ('A' for Active; 'I' for Inactive)
REMARK    1  A    between atoms: C_1  and  O_2
REMARK    2  A    between atoms: O_2  and  C_3
REMARK    3  A    between atoms: C_7  and  C_15
REMARK    4  A    between atoms: C_11  and  O_13
REMARK    5  A    between atoms: O_13  and  C_14
REMARK    6  A    between atoms: C_15  and  O_17
REMARK    7  A    between atoms: O_17  and  C_18
REMARK    8  A    between atoms: C_18  and  C_19
REMARK    9  A    between atoms: N_21  and  C_22
REMARK   10  A    between atoms: C_23  and  C_27
REMARK                            x       y       z     vdW  Elec       q    Type
REMARK                         _______ _______ _______ _____ _____    ______ ____
ROOT
ATOM      1  C   UNL     1       2.575  -5.188  -4.477  0.00  0.00    +0.356 C 
ATOM      2  O   UNL     1       2.322  -6.287  -4.020  0.00  0.00    -0.243 OA
ENDROOT
BRANCH   1   7
ATOM      3  C   UNL     1       0.606  -0.608  -1.056  0.00  0.00    +0.124 A 
ATOM      4  C   UNL     1       0.653  -1.984  -1.125  0.00  0.00    +0.056 A 
ATOM      5  C   UNL     1       1.276  -2.605  -2.217  0.00  0.00    +0.008 A 
ATOM      6  C   UNL     1       1.485  -3.959  -2.572  0.00  0.00    +0.043 A 
ATOM      7  C   UNL     1       2.156  -3.979  -3.755  0.00  0.00    +0.125 A 
ATOM      8  N   UNL     1       2.383  -2.681  -4.168  0.00  0.00    -0.346 N 
ATOM      9  H   UNL     1       2.843  -2.419  -4.981  0.00  0.00    +0.166 HD
ATOM     10  C   UNL     1       1.848  -1.820  -3.235  0.00  0.00    +0.090 A 
ATOM     11  C   UNL     1       1.790  -0.427  -3.146  0.00  0.00    +0.147 A 
ATOM     12  C   UNL     1       1.169   0.169  -2.067  0.00  0.00    +0.093 A 
BRANCH   3  14
ATOM     13  C   UNL     1      -0.017   1.425   0.010  0.00  0.00    +0.277 C 
ATOM     14  O   UNL     1       0.002  -0.004   0.002  0.00  0.00    -0.495 OA
ENDBRANCH   3  14
BRANCH  11  15
ATOM     15  O   UNL     1       2.341   0.340  -4.124  0.00  0.00    -0.493 OA
ATOM     16  C   UNL     1       2.244   1.757  -3.968  0.00  0.00    +0.277 C 
ENDBRANCH  11  15
ENDBRANCH   1   7
BRANCH   1  17
ATOM     17  O   UNL     1       3.238  -5.080  -5.646  0.00  0.00    -0.451 OA
BRANCH  17  18
ATOM     18  C   UNL     1       3.614  -6.297  -6.293  0.00  0.00    +0.328 C 
BRANCH  18  19
ATOM     19  C   UNL     1       4.340  -5.980  -7.575  0.00  0.00    +0.255 C 
ATOM     20  O   UNL     1       4.518  -4.826  -7.902  0.00  0.00    -0.272 OA
ATOM     21  N   UNL     1       4.791  -6.980  -8.359  0.00  0.00    -0.277 N 
ATOM     22  H   UNL     1       4.649  -7.903  -8.098  0.00  0.00    +0.155 HD
BRANCH  21  23
ATOM     23  C   UNL     1       5.460  -6.688  -9.538  0.00  0.00    +0.084 A 
ATOM     24  C   UNL     1       5.984  -7.579 -10.464  0.00  0.00    +0.065 A 
ATOM     25  C   UNL     1       6.637  -7.002 -11.617  0.00  0.00    +0.022 A 
ATOM     26  C   UNL     1       6.664  -5.657 -11.665  0.00  0.00    +0.048 A 
ATOM     27  S   UNL     1       5.812  -5.178 -10.178  0.00  0.00    -0.081 S 
BRANCH  24  28
ATOM     28  C   UNL     1       5.882  -9.030 -10.281  0.00  0.00    +0.244 C 
ATOM     29  O   UNL     1       5.326  -9.482  -9.297  0.00  0.00    -0.270 OA
ATOM     30  N   UNL     1       6.405  -9.863 -11.202  0.00  0.00    -0.325 N 
ATOM     31  H   UNL     1       6.848  -9.503 -11.986  0.00  0.00    +0.145 HD
ATOM     32  H   UNL     1       6.337 -10.823 -11.081  0.00  0.00    +0.145 HD
ENDBRANCH  24  28
ENDBRANCH  21  23
ENDBRANCH  18  19
ENDBRANCH  17  18
ENDBRANCH   1  17
TORSDOF 8
