REMARK  Name = ZINC12330098
REMARK  8 active torsions:
REMARK  status: ('A' for Active; 'I' for Inactive)
REMARK    1  A    between atoms: C_1  and  O_2
REMARK    2  A    between atoms: O_2  and  C_3
REMARK    3  A    between atoms: C_7  and  C_9
REMARK    4  A    between atoms: C_9  and  C_11
REMARK    5  A    between atoms: C_9  and  O_29
REMARK    6  A    between atoms: C_11  and  N_55
REMARK    7  A    between atoms: C_18  and  O_28
REMARK    8  A    between atoms: C_22  and  O_27
REMARK                            x       y       z     vdW  Elec       q    Type
REMARK                         _______ _______ _______ _____ _____    ______ ____
ROOT
ATOM      1  C   UNL     1       1.364   1.913   0.039  0.00  0.00    -0.075 C 
ATOM      2  C   UNL     1       2.106   1.360  -1.180  0.00  0.00    +0.029 C 
ATOM      3  C   UNL     1       2.154  -0.166  -1.094  0.00  0.00    +0.110 C 
ATOM      4  C   UNL     1       0.730  -0.716  -1.001  0.00  0.00    +0.029 C 
ATOM      5  C   UNL     1       0.029  -0.103   0.214  0.00  0.00    -0.075 C 
ATOM      6  C   UNL     1       2.841  -0.730  -2.343  0.00  0.00    +0.084 C 
ATOM      7  C   UNL     1       2.774  -2.258  -2.281  0.00  0.00    +0.152 C 
ATOM      8  C   UNL     1       3.207  -2.732  -0.917  0.00  0.00    +0.026 A 
ATOM      9  C   UNL     1       3.570  -4.060  -0.759  0.00  0.00    +0.055 A 
ATOM     10  C   UNL     1       3.961  -4.534   0.482  0.00  0.00    +0.117 A 
ATOM     11  C   UNL     1       3.990  -3.676   1.572  0.00  0.00    +0.049 A 
ATOM     12  C   UNL     1       3.632  -2.353   1.415  0.00  0.00    +0.049 A 
ATOM     13  C   UNL     1       3.241  -1.875   0.169  0.00  0.00    +0.127 A 
ATOM     14  O   UNL     1       2.900  -0.564   0.056  0.00  0.00    -0.485 OA
ATOM     15  N   UNL     1      -0.010   1.366   0.053  0.00  0.00    +0.382 N 
ATOM     16  H   UNL     1      -0.467   1.592  -0.838  0.00  0.00    -0.082 HD
ENDROOT
BRANCH  10  17
ATOM     17  O   UNL     1       4.316  -5.838   0.632  0.00  0.00    -0.507 OA
ATOM     18  H   UNL     1       5.257  -6.008   0.490  0.00  0.00    +0.292 HD
ENDBRANCH  10  17
BRANCH   7  19
ATOM     19  O   UNL     1       3.641  -2.810  -3.274  0.00  0.00    -0.387 OA
ATOM     20  H   UNL     1       3.647  -3.777  -3.296  0.00  0.00    +0.210 HD
ENDBRANCH   7  19
BRANCH  15  21
ATOM     21  C   UNL     1      -0.783   1.974   1.155  0.00  0.00    -0.042 C 
BRANCH  21  22
ATOM     22  C   UNL     1      -2.251   1.569   1.009  0.00  0.00    +0.128 C 
BRANCH  22  27
ATOM     23  C   UNL     1      -4.061   2.054   4.290  0.00  0.00    +0.120 A 
ATOM     24  C   UNL     1      -4.541   3.349   4.150  0.00  0.00    +0.045 A 
ATOM     25  C   UNL     1      -4.278   4.060   2.995  0.00  0.00    +0.004 A 
ATOM     26  C   UNL     1      -3.533   3.485   1.982  0.00  0.00    +0.006 A 
ATOM     27  C   UNL     1      -3.058   2.194   2.117  0.00  0.00    -0.017 A 
ATOM     28  C   UNL     1      -3.318   1.478   3.270  0.00  0.00    +0.051 A 
BRANCH  23  30
ATOM     29  C   UNL     1      -5.088   2.010   6.434  0.00  0.00    +0.277 C 
ATOM     30  O   UNL     1      -4.317   1.353   5.426  0.00  0.00    -0.495 OA
ENDBRANCH  23  30
ENDBRANCH  22  27
BRANCH  22  31
ATOM     31  O   UNL     1      -2.746   2.020  -0.254  0.00  0.00    -0.389 OA
ATOM     32  H   UNL     1      -2.702   2.978  -0.374  0.00  0.00    +0.210 HD
ENDBRANCH  22  31
ENDBRANCH  21  22
ENDBRANCH  15  21
TORSDOF 7
