REMARK  Name = ZINC32066888
REMARK  9 active torsions:
REMARK  status: ('A' for Active; 'I' for Inactive)
REMARK    1  A    between atoms: C_1  and  C_2
REMARK    2  A    between atoms: C_2  and  C_3
REMARK    3  A    between atoms: C_3  and  C_4
REMARK    4  A    between atoms: C_4  and  N_5
REMARK    5  A    between atoms: N_5  and  C_6
REMARK    6  A    between atoms: N_5  and  C_7
REMARK    7  A    between atoms: C_7  and  C_9
REMARK    8  A    between atoms: C_7  and  C_11
REMARK    9  A    between atoms: C_9  and  N_10
REMARK                            x       y       z     vdW  Elec       q    Type
REMARK                         _______ _______ _______ _____ _____    ______ ____
ROOT
ATOM      1  C   UNL     1      -2.222   0.893  -0.125  0.00  0.00    -0.056 C 
ENDROOT
BRANCH   1   2
ATOM      2  C   UNL     1      -0.923   1.555  -0.509  0.00  0.00    -0.061 A 
ATOM      3  C   UNL     1       0.272   0.880  -0.341  0.00  0.00    +0.006 A 
ATOM      4  C   UNL     1       1.463   1.482  -0.697  0.00  0.00    +0.052 A 
ATOM      5  C   UNL     1       1.461   2.767  -1.220  0.00  0.00    +0.193 A 
ATOM      6  C   UNL     1       0.261   3.444  -1.383  0.00  0.00    +0.065 A 
ATOM      7  C   UNL     1      -0.928   2.838  -1.025  0.00  0.00    +0.021 A 
ATOM      8 BR   UNL     1       0.253   5.196  -2.096  0.00  0.00    -0.046 Br
ATOM      9  O   UNL     1       2.632   3.360  -1.571  0.00  0.00    -0.287 OA
ENDBRANCH   1   2
BRANCH   1  10
ATOM     10  N   UNL     1      -3.339   1.597  -0.770  0.00  0.00    +0.381 N 
ATOM     11  C   UNL     1      -3.781   2.738   0.042  0.00  0.00    -0.095 C 
ATOM     12  H   UNL     1      -2.981   1.986  -1.735  0.00  0.00    -0.081 HD
BRANCH  10  13
ATOM     13  C   UNL     1      -4.454   0.678  -1.039  0.00  0.00    -0.078 C 
BRANCH  13  14
ATOM     14  C   UNL     1      -5.405   1.315  -2.053  0.00  0.00    -0.019 C 
BRANCH  14  16
ATOM     15  C   UNL     1      -7.519   0.996  -3.348  0.00  0.00    +0.004 C 
ATOM     16  C   UNL     1      -6.566   0.359  -2.333  0.00  0.00    -0.005 C 
ENDBRANCH  14  16
ENDBRANCH  13  14
ENDBRANCH  10  13
ENDBRANCH   1  10
BRANCH   1  17
ATOM     17  C   UNL     1      -2.393   0.950   1.394  0.00  0.00    -0.098 C 
BRANCH  17  18
ATOM     18  N   UNL     1      -3.617   0.233   1.776  0.00  0.00    +0.377 N 
ATOM     19  H   UNL     1      -3.740   0.274   2.868  0.00  0.00    -0.090 HD
ATOM     20  H   UNL     1      -3.543  -0.816   1.454  0.00  0.00    -0.090 HD
ATOM     21  H   UNL     1      -4.484   0.706   1.292  0.00  0.00    -0.090 HD
ENDBRANCH  17  18
ENDBRANCH   1  17
TORSDOF 7
