REMARK  Name = ZINC15707529
REMARK  10 active torsions:
REMARK  status: ('A' for Active; 'I' for Inactive)
REMARK    1  A    between atoms: C_1  and  O_2
REMARK    2  A    between atoms: O_2  and  C_3
REMARK    3  A    between atoms: C_3  and  C_4
REMARK    4  A    between atoms: C_4  and  N_5
REMARK    5  A    between atoms: N_5  and  C_6
REMARK    6  A    between atoms: C_6  and  N_8
REMARK    7  A    between atoms: N_8  and  C_9
REMARK    8  A    between atoms: C_18  and  C_21
REMARK    9  A    between atoms: C_21  and  C_22
REMARK   10  A    between atoms: C_22  and  C_23
REMARK                            x       y       z     vdW  Elec       q    Type
REMARK                         _______ _______ _______ _____ _____    ______ ____
ROOT
ATOM      1  C   UNL     1      -0.482  -1.784   1.561  0.00  0.00    +0.054 C 
ATOM      2  C   UNL     1      -1.122  -0.521   0.925  0.00  0.00    +0.014 C 
ATOM      3  C   UNL     1       0.005   0.075   0.080  0.00  0.00    +0.021 C 
ATOM      4  C   UNL     1       0.030   1.566  -0.009  0.00  0.00    +0.200 C 
ATOM      5  O   UNL     1      -1.004   2.199  -0.006  0.00  0.00    -0.278 OA
ATOM      6  N   UNL     1       1.217   2.197  -0.098  0.00  0.00    -0.318 N 
ATOM      7  C   UNL     1       2.513   1.541   0.010  0.00  0.00    +0.089 C 
ATOM      8  C   UNL     1       2.391   0.010  -0.011  0.00  0.00    -0.050 C 
ATOM      9  C   UNL     1       0.998  -1.763   1.089  0.00  0.00    -0.055 C 
ATOM     10  H   UNL     1       1.208   3.156  -0.244  0.00  0.00    +0.149 HD
ATOM     11  N   UNL     1       1.176  -0.316   0.804  0.00  0.00    +0.391 N 
ATOM     12  H   UNL     1       1.234   0.197   1.692  0.00  0.00    -0.080 HD
ENDROOT
BRANCH   1  13
ATOM     13  N   UNL     1      -0.555  -1.710   3.023  0.00  0.00    -0.326 N 
ATOM     14  H   UNL     1      -0.612  -0.848   3.463  0.00  0.00    +0.148 HD
BRANCH  13  15
ATOM     15  C   UNL     1      -0.542  -2.841   3.756  0.00  0.00    +0.130 C 
ATOM     16  S   UNL     1      -0.441  -4.364   2.979  0.00  0.00    -0.019 S 
BRANCH  15  17
ATOM     17  N   UNL     1      -0.609  -2.774   5.100  0.00  0.00    -0.324 N 
ATOM     18  H   UNL     1      -0.666  -1.911   5.540  0.00  0.00    +0.148 HD
BRANCH  17  19
ATOM     19  C   UNL     1      -0.594  -4.003   5.897  0.00  0.00    +0.131 C 
BRANCH  19  20
ATOM     20  C   UNL     1      -0.680  -3.648   7.383  0.00  0.00    +0.178 C 
BRANCH  20  22
ATOM     21  C   UNL     1      -2.125  -2.664   9.022  0.00  0.00    +0.194 C 
ATOM     22  O   UNL     1      -1.942  -3.036   7.655  0.00  0.00    -0.381 OA
ENDBRANCH  20  22
ENDBRANCH  19  20
ENDBRANCH  17  19
ENDBRANCH  15  17
ENDBRANCH  13  15
ENDBRANCH   1  13
BRANCH   8  23
ATOM     23  C   UNL     1       3.655  -0.622   0.577  0.00  0.00    -0.005 C 
BRANCH  23  24
ATOM     24  C   UNL     1       4.838  -0.356  -0.355  0.00  0.00    +0.094 C 
BRANCH  24  25
ATOM     25  C   UNL     1       6.056  -1.080   0.160  0.00  0.00    +0.216 C 
ATOM     26  O   UNL     1       5.983  -1.743   1.173  0.00  0.00    -0.276 OA
ATOM     27  N   UNL     1       7.224  -0.990  -0.505  0.00  0.00    -0.301 N 
ATOM     28  C   UNL     1       7.450  -0.230  -1.743  0.00  0.00    +0.108 C 
ATOM     29  C   UNL     1       8.925  -0.439  -2.147  0.00  0.00    +0.020 C 
ATOM     30  C   UNL     1       9.294  -1.765  -1.432  0.00  0.00    +0.020 C 
ATOM     31  C   UNL     1       8.487  -1.644  -0.115  0.00  0.00    +0.108 C 
ENDBRANCH  24  25
ENDBRANCH  23  24
ENDBRANCH   8  23
TORSDOF 9
