REMARK  Name = ZINC39557222
REMARK  11 active torsions:
REMARK  status: ('A' for Active; 'I' for Inactive)
REMARK    1  A    between atoms: C_1  and  C_2
REMARK    2  A    between atoms: C_2  and  O_3
REMARK    3  A    between atoms: O_3  and  C_4
REMARK    4  A    between atoms: C_7  and  S_26
REMARK    5  A    between atoms: C_9  and  C_10
REMARK    6  A    between atoms: C_18  and  C_22
REMARK    7  A    between atoms: N_20  and  C_21
REMARK    8  A    between atoms: C_22  and  C_23
REMARK    9  A    between atoms: C_22  and  C_24
REMARK   10  A    between atoms: C_22  and  C_25
REMARK   11  A    between atoms: S_26  and  N_29
REMARK                            x       y       z     vdW  Elec       q    Type
REMARK                         _______ _______ _______ _____ _____    ______ ____
ROOT
ATOM      1  C   UNL     1       0.777  -1.808  -1.336  0.00  0.00    +0.131 A 
ATOM      2  C   UNL     1       0.243  -2.668  -0.388  0.00  0.00    +0.048 A 
ATOM      3  C   UNL     1       0.352  -4.034  -0.554  0.00  0.00    +0.032 A 
ATOM      4  C   UNL     1       0.992  -4.557  -1.667  0.00  0.00    +0.113 A 
ATOM      5  C   UNL     1       1.527  -3.717  -2.619  0.00  0.00    +0.044 A 
ATOM      6  C   UNL     1       1.420  -2.332  -2.466  0.00  0.00    +0.060 A 
ENDROOT
BRANCH   6   7
ATOM      7  C   UNL     1       1.986  -1.427  -3.485  0.00  0.00    +0.156 C 
ATOM      8  N   UNL     1       1.880  -0.117  -3.310  0.00  0.00    -0.159 NA
ATOM      9  C   UNL     1       2.546   0.781  -4.036  0.00  0.00    +0.266 C 
ATOM     10  O   UNL     1       2.293   1.967  -3.952  0.00  0.00    -0.271 OA
ATOM     11  C   UNL     1       3.617   0.282  -4.959  0.00  0.00    +0.230 C 
ATOM     12  C   UNL     1       3.249  -1.142  -5.348  0.00  0.00    +0.098 C 
ATOM     13  N   UNL     1       2.599  -1.958  -4.560  0.00  0.00    -0.230 NA
ATOM     14  C   UNL     1       3.592  -1.201  -6.699  0.00  0.00    +0.088 C 
ATOM     15  N   UNL     1       3.787   0.012  -7.149  0.00  0.00    -0.186 NA
ATOM     16  N   UNL     1       3.695   0.956  -6.251  0.00  0.00    -0.240 N 
ATOM     17  C   UNL     1       3.663   2.402  -6.484  0.00  0.00    +0.153 C 
BRANCH  14  18
ATOM     18  C   UNL     1       3.718  -2.463  -7.512  0.00  0.00    +0.008 C 
ATOM     19  C   UNL     1       4.110  -2.108  -8.948  0.00  0.00    +0.017 C 
ATOM     20  C   UNL     1       4.794  -3.361  -6.898  0.00  0.00    +0.017 C 
ATOM     21  C   UNL     1       2.378  -3.203  -7.517  0.00  0.00    +0.017 C 
ENDBRANCH  14  18
ENDBRANCH   6   7
BRANCH   4  22
ATOM     22  S   UNL     1       1.122  -6.303  -1.864  0.00  0.00    +0.101 S 
ATOM     23  O   UNL     1       2.241  -6.534  -2.709  0.00  0.00    -0.146 OA
ATOM     24  O   UNL     1       1.020  -6.867  -0.564  0.00  0.00    -0.146 OA
BRANCH  22  25
ATOM     25  N   UNL     1      -0.216  -6.802  -2.703  0.00  0.00    -0.111 NA
ATOM     26  C   UNL     1      -0.374  -8.077  -2.991  0.00  0.00    +0.153 A 
ATOM     27  C   UNL     1      -1.513  -8.508  -3.713  0.00  0.00    +0.048 A 
ATOM     28  C   UNL     1      -1.658  -9.828  -4.000  0.00  0.00    +0.005 A 
ATOM     29  C   UNL     1      -0.678 -10.743  -3.578  0.00  0.00    +0.018 A 
ATOM     30  C   UNL     1       0.403 -10.318  -2.891  0.00  0.00    +0.084 A 
ATOM     31  N   UNL     1       0.568  -8.997  -2.598  0.00  0.00    -0.345 N 
ATOM     32  H   UNL     1       1.352  -8.706  -2.107  0.00  0.00    +0.167 HD
ENDBRANCH  22  25
ENDBRANCH   4  22
BRANCH   1  33
ATOM     33  O   UNL     1       0.671  -0.465  -1.174  0.00  0.00    -0.492 OA
BRANCH  33  35
ATOM     34  C   UNL     1      -0.019   1.526   0.010  0.00  0.00    +0.048 C 
ATOM     35  C   UNL     1       0.002  -0.004   0.002  0.00  0.00    +0.226 C 
ENDBRANCH  33  35
ENDBRANCH   1  33
TORSDOF 6
