REMARK  Name = ZINC07878545
REMARK  5 active torsions:
REMARK  status: ('A' for Active; 'I' for Inactive)
REMARK    1  A    between atoms: C_1  and  C_2
REMARK    2  A    between atoms: C_11  and  C_12
REMARK    3  A    between atoms: C_11  and  N_46
REMARK    4  A    between atoms: N_14  and  C_15
REMARK    5  A    between atoms: C_16  and  C_23
REMARK                            x       y       z     vdW  Elec       q    Type
REMARK                         _______ _______ _______ _____ _____    ______ ____
ROOT
ATOM      1  C   UNL     1       4.298  -0.267   0.900  0.00  0.00    +0.201 C 
ATOM      2  O   UNL     1       3.678   0.237   1.812  0.00  0.00    -0.278 OA
ATOM      3  N   UNL     1       5.519  -0.794   1.125  0.00  0.00    -0.281 N 
ATOM      4  H   UNL     1       6.015  -1.197   0.396  0.00  0.00    +0.155 HD
ENDROOT
BRANCH   3   5
ATOM      5  C   UNL     1       6.064  -0.759   2.400  0.00  0.00    +0.084 A 
ATOM      6  C   UNL     1       7.290  -1.242   2.824  0.00  0.00    +0.068 A 
ATOM      7  C   UNL     1       7.630  -1.079   4.237  0.00  0.00    -0.023 A 
ATOM      8  C   UNL     1       6.695  -0.462   4.982  0.00  0.00    -0.004 A 
ATOM      9  S   UNL     1       5.382  -0.094   3.844  0.00  0.00    -0.077 S 
ATOM     10  C   UNL     1       7.118  -0.327   6.420  0.00  0.00    +0.043 C 
ATOM     11  C   UNL     1       8.644  -0.564   6.400  0.00  0.00    +0.010 C 
ATOM     12  C   UNL     1       8.811  -1.437   5.141  0.00  0.00    +0.037 C 
BRANCH   6  13
ATOM     13  C   UNL     1       8.214  -1.894   1.891  0.00  0.00    +0.244 C 
ATOM     14  O   UNL     1       9.039  -1.232   1.289  0.00  0.00    -0.270 OA
ATOM     15  N   UNL     1       8.150  -3.227   1.699  0.00  0.00    -0.325 N 
ATOM     16  H   UNL     1       7.492  -3.755   2.179  0.00  0.00    +0.145 HD
ATOM     17  H   UNL     1       8.761  -3.658   1.081  0.00  0.00    +0.145 HD
ENDBRANCH   6  13
ENDBRANCH   3   5
BRANCH   1  18
ATOM     18  C   UNL     1       3.705  -0.305  -0.485  0.00  0.00    +0.020 C 
BRANCH  18  28
ATOM     19  C   UNL     1       3.354   2.518  -0.977  0.00  0.00    -0.008 C 
ATOM     20  C   UNL     1       2.468   1.722  -0.016  0.00  0.00    -0.039 C 
ATOM     21  C   UNL     1       1.064   2.318   0.004  0.00  0.00    -0.051 A 
ATOM     22  C   UNL     1       0.800   3.686   0.016  0.00  0.00    +0.010 A 
ATOM     23  C   UNL     1      -0.479   4.128   0.031  0.00  0.00    +0.045 A 
ATOM     24  S   UNL     1      -1.399   2.597   0.037  0.00  0.00    -0.101 S 
ATOM     25  C   UNL     1      -0.018   1.490   0.010  0.00  0.00    -0.010 A 
ATOM     26  C   UNL     1       0.002  -0.004   0.002  0.00  0.00    +0.024 C 
ATOM     27  C   UNL     1       1.433  -0.455   0.340  0.00  0.00    -0.072 C 
ATOM     28  N   UNL     1       2.371   0.326  -0.502  0.00  0.00    +0.390 N 
ATOM     29  H   UNL     1       2.020   0.335  -1.467  0.00  0.00    -0.080 HD
ENDBRANCH  18  28
ENDBRANCH   1  18
TORSDOF 4
