REMARK  Name = ZINC67465152
REMARK  10 active torsions:
REMARK  status: ('A' for Active; 'I' for Inactive)
REMARK    1  A    between atoms: C_1  and  N_2
REMARK    2  A    between atoms: N_2  and  C_3
REMARK    3  A    between atoms: N_2  and  C_4
REMARK    4  A    between atoms: C_4  and  C_5
REMARK    5  A    between atoms: C_5  and  N_6
REMARK    6  A    between atoms: C_7  and  C_9
REMARK    7  A    between atoms: C_13  and  C_15
REMARK    8  A    between atoms: C_15  and  N_16
REMARK    9  A    between atoms: N_19  and  N_20
REMARK   10  A    between atoms: N_20  and  C_21
REMARK                            x       y       z     vdW  Elec       q    Type
REMARK                         _______ _______ _______ _____ _____    ______ ____
ROOT
ATOM      1  C   UNL     1      -5.652  -0.894  -2.314  0.00  0.00    +0.037 A 
ATOM      2  C   UNL     1      -6.125  -1.616  -1.217  0.00  0.00    +0.013 A 
ATOM      3  C   UNL     1      -7.420  -2.090  -1.213  0.00  0.00    +0.001 A 
ATOM      4  C   UNL     1      -8.251  -1.852  -2.294  0.00  0.00    +0.005 A 
ATOM      5  C   UNL     1      -7.789  -1.137  -3.385  0.00  0.00    -0.030 A 
ATOM      6  C   UNL     1      -6.497  -0.652  -3.399  0.00  0.00    +0.018 A 
ENDROOT
BRANCH   1   8
ATOM      7  N   UNL     1      -3.452  -0.617  -1.276  0.00  0.00    -0.313 N 
ATOM      8  C   UNL     1      -4.265  -0.382  -2.325  0.00  0.00    +0.244 C 
ATOM      9  O   UNL     1      -3.858   0.251  -3.279  0.00  0.00    -0.270 OA
ATOM     10  H   UNL     1      -3.777  -1.122  -0.514  0.00  0.00    +0.149 HD
BRANCH   7  11
ATOM     11  C   UNL     1      -2.078  -0.110  -1.286  0.00  0.00    +0.086 C 
BRANCH  11  12
ATOM     12  C   UNL     1      -1.376  -0.512   0.012  0.00  0.00    -0.061 C 
BRANCH  12  14
ATOM     13  C   UNL     1      -0.018   1.465   0.010  0.00  0.00    -0.097 C 
ATOM     14  N   UNL     1       0.002  -0.004   0.002  0.00  0.00    +0.377 N 
ATOM     15  C   UNL     1       0.713  -0.491   1.192  0.00  0.00    -0.097 C 
ATOM     16  H   UNL     1       0.474  -0.330  -0.828  0.00  0.00    -0.083 HD
ENDBRANCH  12  14
ENDBRANCH  11  12
ENDBRANCH   7  11
ENDBRANCH   1   8
BRANCH   5  17
ATOM     17  C   UNL     1      -8.700  -0.882  -4.558  0.00  0.00    +0.141 C 
BRANCH  17  18
ATOM     18  N   UNL     1      -9.424   0.374  -4.350  0.00  0.00    -0.294 N 
ATOM     19  C   UNL     1     -10.302   0.807  -5.277  0.00  0.00    +0.316 C 
ATOM     20  O   UNL     1     -10.492   0.155  -6.285  0.00  0.00    -0.251 OA
ATOM     21  N   UNL     1     -10.968   1.962  -5.085  0.00  0.00    -0.220 N 
ATOM     22  H   UNL     1      -9.272   0.894  -3.546  0.00  0.00    +0.151 HD
ATOM     23  H   UNL     1     -11.600   2.274  -5.752  0.00  0.00    +0.174 HD
BRANCH  21  24
ATOM     24  N   UNL     1     -10.749   2.714  -3.924  0.00  0.00    -0.262 N 
ATOM     25  H   UNL     1     -10.117   2.402  -3.257  0.00  0.00    +0.170 HD
BRANCH  24  26
ATOM     26  C   UNL     1     -11.440   3.912  -3.725  0.00  0.00    +0.063 A 
ATOM     27  C   UNL     1     -12.349   4.357  -4.676  0.00  0.00    +0.026 A 
ATOM     28  C   UNL     1     -13.030   5.542  -4.478  0.00  0.00    +0.002 A 
ATOM     29  C   UNL     1     -12.808   6.286  -3.333  0.00  0.00    +0.002 A 
ATOM     30  C   UNL     1     -11.903   5.847  -2.384  0.00  0.00    +0.022 A 
ATOM     31  C   UNL     1     -11.223   4.659  -2.573  0.00  0.00    +0.063 A 
ATOM     32 CL   UNL     1     -10.094   4.104  -1.377  0.00  0.00    -0.082 Cl
ENDBRANCH  24  26
ENDBRANCH  21  24
ENDBRANCH  17  18
ENDBRANCH   5  17
TORSDOF 8
