REMARK  Name = ZINC45287299
REMARK  10 active torsions:
REMARK  status: ('A' for Active; 'I' for Inactive)
REMARK    1  A    between atoms: C_1  and  C_2
REMARK    2  A    between atoms: C_2  and  C_3
REMARK    3  A    between atoms: C_2  and  O_4
REMARK    4  A    between atoms: O_4  and  C_5
REMARK    5  A    between atoms: N_7  and  C_8
REMARK    6  A    between atoms: N_7  and  C_9
REMARK    7  A    between atoms: C_12  and  C_32
REMARK    8  A    between atoms: C_14  and  C_18
REMARK    9  A    between atoms: C_23  and  C_26
REMARK   10  A    between atoms: N_34  and  O_35
REMARK                            x       y       z     vdW  Elec       q    Type
REMARK                         _______ _______ _______ _____ _____    ______ ____
ROOT
ATOM      1  C   UNL     1       4.311  -1.777  -1.888  0.00  0.00    +0.063 C 
ATOM      2  C   UNL     1       4.806  -3.056  -2.568  0.00  0.00    +0.032 C 
ATOM      3  C   UNL     1       4.200  -3.143  -3.972  0.00  0.00    +0.073 C 
ATOM      4  C   UNL     1       4.572  -1.885  -4.761  0.00  0.00    +0.028 C 
ATOM      5  N   UNL     1       4.049  -0.699  -4.073  0.00  0.00    +0.388 N 
ATOM      6  C   UNL     1       4.680  -0.569  -2.752  0.00  0.00    -0.059 C 
ATOM      7  H   UNL     1       4.250   0.123  -4.622  0.00  0.00    -0.085 HD
ATOM      8  H   UNL     1       3.051  -0.790  -3.960  0.00  0.00    -0.085 HD
ENDROOT
BRANCH   4   9
ATOM      9  C   UNL     1       3.978  -1.966  -6.143  0.00  0.00    +0.203 C 
ATOM     10  O   UNL     1       2.776  -1.907  -6.291  0.00  0.00    -0.277 OA
ATOM     11  N   UNL     1       4.782  -2.104  -7.216  0.00  0.00    -0.299 N 
ATOM     12  C   UNL     1       4.239  -2.108  -8.585  0.00  0.00    +0.112 C 
ATOM     13  C   UNL     1       4.831  -0.909  -9.331  0.00  0.00    +0.054 C 
ATOM     14  C   UNL     1       6.308  -0.817  -9.085  0.00  0.00    -0.041 C 
ATOM     15  C   UNL     1       6.930  -1.399  -8.089  0.00  0.00    -0.004 C 
ATOM     16  C   UNL     1       6.237  -2.250  -7.066  0.00  0.00    +0.135 C 
BRANCH  14  17
ATOM     17  C   UNL     1       7.115  -0.016 -10.029  0.00  0.00    -0.022 A 
ATOM     18  C   UNL     1       6.923   1.363 -10.121  0.00  0.00    +0.008 A 
ATOM     19  C   UNL     1       7.681   2.105 -11.004  0.00  0.00    +0.001 A 
ATOM     20  C   UNL     1       8.629   1.484 -11.797  0.00  0.00    +0.000 A 
ATOM     21  C   UNL     1       8.825   0.117 -11.711  0.00  0.00    +0.001 A 
ATOM     22  C   UNL     1       8.077  -0.635 -10.828  0.00  0.00    +0.008 A 
ENDBRANCH  14  17
ENDBRANCH   4   9
BRANCH   1  25
ATOM     23  C   UNL     1       2.202  -0.832  -1.116  0.00  0.00    +0.403 C 
ATOM     24  O   UNL     1       2.819   0.128  -0.697  0.00  0.00    -0.226 OA
ATOM     25  N   UNL     1       2.857  -1.839  -1.728  0.00  0.00    -0.269 N 
ATOM     26  C   UNL     1       2.113  -2.995  -2.233  0.00  0.00    +0.135 C 
BRANCH  23  27
ATOM     27  O   UNL     1       0.865  -0.889  -0.969  0.00  0.00    -0.448 OA
BRANCH  27  29
ATOM     28  C   UNL     1      -0.154   1.270  -1.346  0.00  0.00    +0.052 C 
ATOM     29  C   UNL     1       0.237   0.213  -0.311  0.00  0.00    +0.172 C 
ATOM     30  C   UNL     1      -1.016  -0.275   0.419  0.00  0.00    +0.052 C 
ENDBRANCH  27  29
ENDBRANCH  23  27
ENDBRANCH   1  25
BRANCH   3  31
ATOM     31  C   UNL     1       4.740  -4.359  -4.679  0.00  0.00    +0.237 C 
ATOM     32  O   UNL     1       5.493  -4.229  -5.621  0.00  0.00    -0.273 OA
ATOM     33  N   UNL     1       4.386  -5.592  -4.264  0.00  0.00    -0.197 N 
ATOM     34  H   UNL     1       3.784  -5.696  -3.511  0.00  0.00    +0.182 HD
BRANCH  33  35
ATOM     35  O   UNL     1       4.893  -6.735  -4.929  0.00  0.00    -0.295 OA
ATOM     36  H   UNL     1       4.584  -7.574  -4.560  0.00  0.00    +0.241 HD
ENDBRANCH  33  35
ENDBRANCH   3  31
TORSDOF 7
