REMARK  Name = ZINC09075595
REMARK  10 active torsions:
REMARK  status: ('A' for Active; 'I' for Inactive)
REMARK    1  A    between atoms: C_1  and  C_2
REMARK    2  A    between atoms: C_3  and  C_30
REMARK    3  A    between atoms: C_4  and  C_25
REMARK    4  A    between atoms: C_6  and  C_23
REMARK    5  A    between atoms: C_7  and  S_9
REMARK    6  A    between atoms: S_9  and  C_10
REMARK    7  A    between atoms: C_10  and  C_11
REMARK    8  A    between atoms: N_13  and  C_14
REMARK    9  A    between atoms: C_19  and  N_20
REMARK   10  A    between atoms: N_32  and  C_33
REMARK                            x       y       z     vdW  Elec       q    Type
REMARK                         _______ _______ _______ _____ _____    ______ ____
ROOT
ATOM      1  C   UNL     1      -0.220   1.294  -0.708  0.00  0.00    +0.061 C 
ATOM      2  C   UNL     1      -0.785   1.468   0.678  0.00  0.00    +0.015 C 
ATOM      3  C   UNL     1       0.010   1.284   1.744  0.00  0.00    +0.047 C 
ATOM      4  C   UNL     1      -0.503   1.435   3.148  0.00  0.00    +0.134 C 
ATOM      5  C   UNL     1      -1.813   2.171   3.162  0.00  0.00    +0.072 C 
ATOM      6  C   UNL     1      -2.548   2.325   2.028  0.00  0.00    +0.080 C 
ATOM      7  N   UNL     1      -2.100   1.817   0.831  0.00  0.00    -0.312 N 
ATOM      8  H   UNL     1      -2.803   1.692  -0.006  0.00  0.00    +0.152 HD
ENDROOT
BRANCH   4   9
ATOM      9  C   UNL     1      -0.695   0.070   3.755  0.00  0.00    +0.118 A 
ATOM     10  C   UNL     1      -0.081  -0.394   4.858  0.00  0.00    +0.045 A 
ATOM     11  C   UNL     1      -0.552  -1.711   5.066  0.00  0.00    +0.041 A 
ATOM     12  C   UNL     1      -1.427  -1.973   4.078  0.00  0.00    +0.195 A 
ATOM     13  O   UNL     1      -1.514  -0.888   3.291  0.00  0.00    -0.467 OA
ENDBRANCH   4   9
BRANCH   3  14
ATOM     14  C   UNL     1       1.367   0.938   1.540  0.00  0.00    +0.247 C 
ATOM     15  O   UNL     1       1.825   0.910   0.412  0.00  0.00    -0.270 OA
ATOM     16  N   UNL     1       2.152   0.639   2.594  0.00  0.00    -0.282 N 
ATOM     17  H   UNL     1       1.721   0.590   3.605  0.00  0.00    +0.155 HD
BRANCH  16  18
ATOM     18  C   UNL     1       3.515   0.391   2.403  0.00  0.00    +0.034 A 
ATOM     19  C   UNL     1       3.948  -0.269   1.260  0.00  0.00    +0.023 A 
ATOM     20  C   UNL     1       5.296  -0.507   1.071  0.00  0.00    +0.002 A 
ATOM     21  C   UNL     1       6.212  -0.100   2.024  0.00  0.00    +0.000 A 
ATOM     22  C   UNL     1       5.783   0.553   3.165  0.00  0.00    +0.002 A 
ATOM     23  C   UNL     1       4.438   0.799   3.357  0.00  0.00    +0.023 A 
ENDBRANCH  16  18
ENDBRANCH   3  14
BRANCH   5  24
ATOM     24  C   UNL     1      -2.296   2.722   4.392  0.00  0.00    +0.098 C 
ATOM     25  N   UNL     1      -2.679   3.158   5.369  0.00  0.00    -0.191 NA
ENDBRANCH   5  24
BRANCH   6  26
ATOM     26  S   UNL     1      -4.083   3.187   2.092  0.00  0.00    -0.100 S 
BRANCH  26  27
ATOM     27  C   UNL     1      -4.579   3.075   0.354  0.00  0.00    +0.171 C 
BRANCH  27  28
ATOM     28  C   UNL     1      -5.905   3.765   0.165  0.00  0.00    +0.227 C 
ATOM     29  O   UNL     1      -6.461   4.282   1.111  0.00  0.00    -0.275 OA
ATOM     30  N   UNL     1      -6.474   3.808  -1.056  0.00  0.00    -0.283 N 
ATOM     31  H   UNL     1      -6.015   3.266  -1.896  0.00  0.00    +0.155 HD
BRANCH  30  32
ATOM     32  C   UNL     1      -7.648   4.542  -1.256  0.00  0.00    +0.064 A 
ATOM     33  C   UNL     1      -7.931   5.636  -0.448  0.00  0.00    +0.025 A 
ATOM     34  C   UNL     1      -9.089   6.361  -0.650  0.00  0.00    +0.002 A 
ATOM     35  C   UNL     1      -9.971   5.993  -1.649  0.00  0.00    +0.002 A 
ATOM     36  C   UNL     1      -9.695   4.902  -2.452  0.00  0.00    +0.034 A 
ATOM     37  C   UNL     1      -8.537   4.175  -2.258  0.00  0.00    +0.147 A 
BRANCH  37  38
ATOM     38  N   UNL     1      -8.242   3.006  -3.117  0.00  0.00    +0.058 N 
ATOM     39  O   UNL     1      -8.963   2.751  -4.066  0.00  0.00    -0.126 OA
ATOM     40  O   UNL     1      -7.280   2.300  -2.876  0.00  0.00    -0.126 OA
ENDBRANCH  37  38
ENDBRANCH  30  32
ENDBRANCH  27  28
ENDBRANCH  26  27
ENDBRANCH   6  26
TORSDOF 9
