REMARK  Name = ZINC09313284
REMARK  7 active torsions:
REMARK  status: ('A' for Active; 'I' for Inactive)
REMARK    1  A    between atoms: C_3  and  C_7
REMARK    2  A    between atoms: C_7  and  N_8
REMARK    3  A    between atoms: C_10  and  N_24
REMARK    4  A    between atoms: C_11  and  N_23
REMARK    5  A    between atoms: N_15  and  C_16
REMARK    6  A    between atoms: C_16  and  C_17
REMARK    7  A    between atoms: C_17  and  N_51
REMARK                            x       y       z     vdW  Elec       q    Type
REMARK                         _______ _______ _______ _____ _____    ______ ____
ROOT
ATOM      1  N   UNL     1      -4.617   1.492  -0.839  0.00  0.00    -0.325 N 
ATOM      2  C   UNL     1      -5.747   0.890  -1.369  0.00  0.00    +0.156 A 
ATOM      3  C   UNL     1      -7.013   1.232  -0.902  0.00  0.00    +0.205 A 
ATOM      4  C   UNL     1      -8.119   0.606  -1.467  0.00  0.00    +0.154 A 
ATOM      5  N   UNL     1      -7.932  -0.301  -2.424  0.00  0.00    -0.198 NA
ATOM      6  C   UNL     1      -6.712  -0.605  -2.841  0.00  0.00    +0.219 A 
ATOM      7  N   UNL     1      -5.637  -0.026  -2.329  0.00  0.00    -0.197 NA
ATOM      8  N   UNL     1      -6.557  -1.553  -3.837  0.00  0.00    -0.315 N 
ATOM      9  H   UNL     1      -4.704   2.158  -0.140  0.00  0.00    +0.148 HD
ATOM     10  H   UNL     1      -5.670  -1.785  -4.152  0.00  0.00    +0.149 HD
ENDROOT
BRANCH   4  11
ATOM     11  N   UNL     1      -9.399   0.918  -1.036  0.00  0.00    -0.341 N 
ATOM     12  H   UNL     1     -10.166   0.474  -1.432  0.00  0.00    +0.144 HD
ATOM     13  H   UNL     1      -9.529   1.579  -0.339  0.00  0.00    +0.144 HD
ENDBRANCH   4  11
BRANCH   3  14
ATOM     14  N   UNL     1      -7.178   2.242   0.168  0.00  0.00    +0.063 N 
ATOM     15  O   UNL     1      -7.310   3.418  -0.120  0.00  0.00    -0.126 OA
ATOM     16  O   UNL     1      -7.183   1.897   1.336  0.00  0.00    -0.126 OA
ENDBRANCH   3  14
BRANCH   1  17
ATOM     17  C   UNL     1      -3.289   1.120  -1.334  0.00  0.00    +0.134 C 
BRANCH  17  20
ATOM     18  C   UNL     1      -0.013   1.086   0.008  0.00  0.00    +0.031 C 
ATOM     19  C   UNL     1      -0.833   1.634  -1.185  0.00  0.00    +0.035 C 
ATOM     20  C   UNL     1      -2.223   1.924  -0.587  0.00  0.00    +0.135 C 
ATOM     21  O   UNL     1      -2.186   1.524   0.793  0.00  0.00    -0.375 OA
ATOM     22  C   UNL     1      -0.810   1.621   1.224  0.00  0.00    +0.160 C 
ENDBRANCH  17  20
ENDBRANCH   1  17
BRANCH   8  23
ATOM     23  C   UNL     1      -7.734  -2.206  -4.416  0.00  0.00    +0.086 C 
BRANCH  23  24
ATOM     24  C   UNL     1      -7.288  -3.203  -5.488  0.00  0.00    -0.060 C 
BRANCH  24  30
ATOM     25  C   UNL     1      -9.145  -4.702  -5.074  0.00  0.00    -0.050 C 
ATOM     26  C   UNL     1     -10.399  -5.316  -5.703  0.00  0.00    +0.141 C 
ATOM     27  O   UNL     1     -10.029  -6.049  -6.874  0.00  0.00    -0.383 OA
ATOM     28  C   UNL     1      -9.368  -5.256  -7.864  0.00  0.00    +0.141 C 
ATOM     29  C   UNL     1      -8.104  -4.642  -7.257  0.00  0.00    -0.050 C 
ATOM     30  N   UNL     1      -8.487  -3.839  -6.077  0.00  0.00    +0.384 N 
ATOM     31  H   UNL     1      -9.143  -3.106  -6.370  0.00  0.00    -0.082 HD
ENDBRANCH  24  30
ENDBRANCH  23  24
ENDBRANCH   8  23
TORSDOF 7
