REMARK  Name = ZINC01530900
REMARK  10 active torsions:
REMARK  status: ('A' for Active; 'I' for Inactive)
REMARK    1  A    between atoms: C_1  and  C_2
REMARK    2  A    between atoms: C_2  and  N_3
REMARK    3  A    between atoms: N_3  and  C_4
REMARK    4  A    between atoms: N_7  and  C_20
REMARK    5  A    between atoms: C_14  and  S_16
REMARK    6  A    between atoms: S_16  and  N_19
REMARK    7  A    between atoms: C_20  and  C_21
REMARK    8  A    between atoms: C_21  and  C_22
REMARK    9  A    between atoms: C_22  and  O_23
REMARK   10  A    between atoms: O_23  and  C_24
REMARK                            x       y       z     vdW  Elec       q    Type
REMARK                         _______ _______ _______ _____ _____    ______ ____
ROOT
ATOM      1  C   UNL     1       0.710  -1.947  -1.215  0.00  0.00    -0.022 C 
ATOM      2  C   UNL     1       1.560  -2.421  -2.383  0.00  0.00    +0.098 C 
ATOM      3  N   UNL     1       0.978  -2.007  -3.674  0.00  0.00    -0.177 NA
ATOM      4  S   UNL     1      -0.498  -2.713  -4.046  0.00  0.00    +0.067 S 
ATOM      5  O   UNL     1      -1.221  -1.786  -4.844  0.00  0.00    -0.152 OA
ATOM      6  O   UNL     1      -0.236  -4.049  -4.455  0.00  0.00    -0.152 OA
ATOM      7  C   UNL     1      -1.292  -2.788  -2.482  0.00  0.00    +0.146 A 
ATOM      8  C   UNL     1      -0.721  -2.458  -1.293  0.00  0.00    -0.025 A 
ATOM      9  C   UNL     1      -1.538  -2.620  -0.171  0.00  0.00    +0.040 A 
ATOM     10  C   UNL     1      -2.810  -3.061  -0.309  0.00  0.00    +0.144 A 
ATOM     11  S   UNL     1      -2.935  -3.283  -2.073  0.00  0.00    -0.049 S 
ENDROOT
BRANCH   1  12
ATOM     12  N   UNL     1       0.690  -0.478  -1.207  0.00  0.00    +0.384 N 
ATOM     13  H   UNL     1       0.202  -0.144  -2.024  0.00  0.00    -0.085 HD
ATOM     14  H   UNL     1       1.636  -0.129  -1.214  0.00  0.00    -0.085 HD
BRANCH  12  16
ATOM     15  C   UNL     1      -0.019   1.526   0.010  0.00  0.00    -0.017 C 
ATOM     16  C   UNL     1       0.002  -0.004   0.002  0.00  0.00    -0.085 C 
ENDBRANCH  12  16
ENDBRANCH   1  12
BRANCH  10  17
ATOM     17  S   UNL     1      -4.028  -3.343   0.933  0.00  0.00    +0.062 S 
ATOM     18  O   UNL     1      -4.943  -4.288   0.397  0.00  0.00    -0.153 OA
ATOM     19  O   UNL     1      -3.325  -3.567   2.147  0.00  0.00    -0.153 OA
BRANCH  17  20
ATOM     20  N   UNL     1      -4.867  -1.929   1.126  0.00  0.00    -0.203 NA
ATOM     21  H   UNL     1      -4.637  -1.151   0.593  0.00  0.00    +0.144 HD
ATOM     22  H   UNL     1      -5.589  -1.877   1.772  0.00  0.00    +0.144 HD
ENDBRANCH  17  20
ENDBRANCH  10  17
BRANCH   3  23
ATOM     23  C   UNL     1       1.639  -1.051  -4.565  0.00  0.00    +0.111 C 
BRANCH  23  24
ATOM     24  C   UNL     1       2.648  -1.790  -5.447  0.00  0.00    +0.045 C 
BRANCH  24  25
ATOM     25  C   UNL     1       3.339  -0.791  -6.378  0.00  0.00    +0.161 C 
BRANCH  25  26
ATOM     26  O   UNL     1       4.280  -1.480  -7.202  0.00  0.00    -0.383 OA
ATOM     27  C   UNL     1       4.985  -0.634  -8.113  0.00  0.00    +0.193 C 
ENDBRANCH  25  26
ENDBRANCH  24  25
ENDBRANCH  23  24
ENDBRANCH   3  23
TORSDOF 8
