REMARK  Name = ZINC66390112
REMARK  7 active torsions:
REMARK  status: ('A' for Active; 'I' for Inactive)
REMARK    1  A    between atoms: C_1  and  C_2
REMARK    2  A    between atoms: C_2  and  C_4
REMARK    3  A    between atoms: C_2  and  N_11
REMARK    4  A    between atoms: N_9  and  C_10
REMARK    5  A    between atoms: N_11  and  C_12
REMARK    6  A    between atoms: C_12  and  C_13
REMARK    7  A    between atoms: C_13  and  C_18
REMARK                            x       y       z     vdW  Elec       q    Type
REMARK                         _______ _______ _______ _____ _____    ______ ____
ROOT
ATOM      1  N   UNL     1      -1.341  -0.657  -2.413  0.00  0.00    +0.387 N 
ATOM      2  H   UNL     1      -1.757  -0.336  -3.274  0.00  0.00    -0.085 HD
ATOM      3  H   UNL     1      -1.396  -1.663  -2.367  0.00  0.00    -0.085 HD
ENDROOT
BRANCH   1   5
ATOM      4  C   UNL     1       0.729  -0.833  -1.117  0.00  0.00    -0.004 C 
ATOM      5  C   UNL     1       0.067  -0.241  -2.362  0.00  0.00    +0.013 C 
BRANCH   5   6
ATOM      6  C   UNL     1       0.780  -0.735  -3.594  0.00  0.00    +0.206 C 
ATOM      7  O   UNL     1       0.176  -1.371  -4.431  0.00  0.00    -0.277 OA
ATOM      8  N   UNL     1       2.091  -0.470  -3.765  0.00  0.00    -0.242 N 
ATOM      9  C   UNL     1       2.729  -0.912  -4.867  0.00  0.00    +0.306 C 
ATOM     10  O   UNL     1       2.124  -1.549  -5.706  0.00  0.00    -0.252 OA
ATOM     11  N   UNL     1       4.040  -0.646  -5.038  0.00  0.00    -0.302 N 
ATOM     12  C   UNL     1       4.734  -1.127  -6.236  0.00  0.00    +0.129 C 
ATOM     13  H   UNL     1       2.574   0.039  -3.096  0.00  0.00    +0.159 HD
ATOM     14  H   UNL     1       4.523  -0.138  -4.369  0.00  0.00    +0.150 HD
ENDBRANCH   5   6
ENDBRANCH   1   5
BRANCH   1  15
ATOM     15  C   UNL     1      -2.065  -0.075  -1.274  0.00  0.00    -0.070 C 
BRANCH  15  16
ATOM     16  C   UNL     1      -3.517  -0.556  -1.293  0.00  0.00    -0.019 C 
ATOM     17  C   UNL     1      -3.568  -2.087  -1.151  0.00  0.00    +0.010 C 
ATOM     18  C   UNL     1      -4.247  -2.626  -2.427  0.00  0.00    +0.001 C 
ATOM     19  C   UNL     1      -4.011  -1.516  -3.481  0.00  0.00    +0.001 C 
ATOM     20  C   UNL     1      -4.168  -0.218  -2.651  0.00  0.00    +0.010 C 
BRANCH  16  21
ATOM     21  C   UNL     1      -4.290   0.093  -0.174  0.00  0.00    -0.042 A 
ATOM     22  C   UNL     1      -3.673   1.020   0.645  0.00  0.00    +0.004 A 
ATOM     23  C   UNL     1      -4.381   1.616   1.672  0.00  0.00    +0.002 A 
ATOM     24  C   UNL     1      -5.707   1.285   1.880  0.00  0.00    +0.020 A 
ATOM     25  C   UNL     1      -6.325   0.358   1.060  0.00  0.00    +0.041 A 
ATOM     26  C   UNL     1      -5.617  -0.234   0.029  0.00  0.00    +0.024 A 
ATOM     27 CL   UNL     1      -7.990  -0.059   1.321  0.00  0.00    -0.084 Cl
ENDBRANCH  16  21
ENDBRANCH  15  16
ENDBRANCH   1  15
TORSDOF 5
