REMARK  Name = ZINC02438466
REMARK  7 active torsions:
REMARK  status: ('A' for Active; 'I' for Inactive)
REMARK    1  A    between atoms: C_1  and  C_2
REMARK    2  A    between atoms: C_2  and  C_3
REMARK    3  A    between atoms: C_3  and  C_4
REMARK    4  A    between atoms: C_10  and  N_14
REMARK    5  A    between atoms: N_14  and  C_15
REMARK    6  A    between atoms: C_15  and  C_16
REMARK    7  A    between atoms: C_16  and  N_47
REMARK                            x       y       z     vdW  Elec       q    Type
REMARK                         _______ _______ _______ _____ _____    ______ ____
ROOT
ATOM      1  C   UNL     1      -3.153   3.253   7.149  0.00  0.00    +0.049 A 
ATOM      2  C   UNL     1      -2.195   2.596   7.913  0.00  0.00    -0.022 A 
ATOM      3  C   UNL     1      -1.193   1.903   7.273  0.00  0.00    -0.028 A 
ATOM      4  C   UNL     1      -1.184   1.897   5.877  0.00  0.00    +0.069 A 
ATOM      5  C   UNL     1      -0.308   1.294   4.861  0.00  0.00    +0.124 A 
ATOM      6  C   UNL     1      -0.850   1.672   3.626  0.00  0.00    +0.196 A 
ATOM      7  C   UNL     1      -0.208   1.223   2.466  0.00  0.00    +0.165 A 
ATOM      8  N   UNL     1       0.883   0.474   2.588  0.00  0.00    -0.217 NA
ATOM      9  C   UNL     1       1.361   0.147   3.774  0.00  0.00    +0.224 A 
ATOM     10  N   UNL     1       0.788   0.542   4.891  0.00  0.00    -0.231 NA
ATOM     11  O   UNL     1      -1.950   2.421   3.847  0.00  0.00    -0.432 OA
ATOM     12  C   UNL     1      -2.182   2.582   5.167  0.00  0.00    +0.231 A 
ATOM     13  N   UNL     1      -3.126   3.231   5.835  0.00  0.00    -0.217 NA
ATOM     14  C   UNL     1      -0.123   1.150   8.013  0.00  0.00    +0.036 C 
ATOM     15  C   UNL     1      -0.045   1.618   9.465  0.00  0.00    +0.005 C 
ATOM     16  C   UNL     1      -1.456   1.576  10.064  0.00  0.00    +0.005 C 
ATOM     17  C   UNL     1      -2.291   2.677   9.413  0.00  0.00    +0.037 C 
ENDROOT
BRANCH   7  18
ATOM     18  N   UNL     1      -0.698   1.558   1.213  0.00  0.00    -0.328 N 
ATOM     19  H   UNL     1      -1.495   2.106   1.135  0.00  0.00    +0.147 HD
BRANCH  18  20
ATOM     20  C   UNL     1      -0.013   1.086   0.008  0.00  0.00    +0.083 C 
BRANCH  20  21
ATOM     21  C   UNL     1      -0.753   1.593  -1.232  0.00  0.00    -0.068 C 
BRANCH  21  24
ATOM     22  H   UNL     1       0.019   0.113  -2.438  0.00  0.00    -0.090 HD
ATOM     23  H   UNL     1      -0.535   1.441  -3.273  0.00  0.00    -0.090 HD
ATOM     24  N   UNL     1      -0.043   1.130  -2.437  0.00  0.00    +0.379 N 
ATOM     25  H   UNL     1       0.906   1.523  -2.442  0.00  0.00    -0.090 HD
ENDBRANCH  21  24
ENDBRANCH  20  21
ENDBRANCH  18  20
ENDBRANCH   7  18
BRANCH   1  26
ATOM     26  C   UNL     1      -4.253   4.011   7.847  0.00  0.00    +0.055 C 
BRANCH  26  28
ATOM     27  C   UNL     1      -6.558   3.849   8.796  0.00  0.00    +0.004 C 
ATOM     28  C   UNL     1      -5.442   3.079   8.087  0.00  0.00    +0.003 C 
ENDBRANCH  26  28
ENDBRANCH   1  26
TORSDOF 6
