REMARK  Name = ZINC48326715
REMARK  10 active torsions:
REMARK  status: ('A' for Active; 'I' for Inactive)
REMARK    1  A    between atoms: C_1  and  C_2
REMARK    2  A    between atoms: C_5  and  O_8
REMARK    3  A    between atoms: O_8  and  C_9
REMARK    4  A    between atoms: C_9  and  C_10
REMARK    5  A    between atoms: C_10  and  N_11
REMARK    6  A    between atoms: N_11  and  C_12
REMARK    7  A    between atoms: N_15  and  C_16
REMARK    8  A    between atoms: C_20  and  C_22
REMARK    9  A    between atoms: C_22  and  N_23
REMARK   10  A    between atoms: C_27  and  C_29
REMARK                            x       y       z     vdW  Elec       q    Type
REMARK                         _______ _______ _______ _____ _____    ______ ____
ROOT
ATOM      1  C   UNL     1       2.678  -7.230  -2.943  0.00  0.00    +0.035 A 
ATOM      2  C   UNL     1       1.604  -6.903  -3.760  0.00  0.00    +0.023 A 
ATOM      3  C   UNL     1       1.711  -7.046  -5.130  0.00  0.00    +0.002 A 
ATOM      4  C   UNL     1       2.886  -7.514  -5.688  0.00  0.00    +0.002 A 
ATOM      5  C   UNL     1       3.958  -7.841  -4.877  0.00  0.00    -0.062 A 
ATOM      6  C   UNL     1       3.859  -7.694  -3.507  0.00  0.00    +0.025 A 
ENDROOT
BRANCH   1  11
ATOM      7  N   UNL     1       1.323  -7.285   0.406  0.00  0.00    -0.285 N 
ATOM      8  C   UNL     1       2.513  -6.963   1.197  0.00  0.00    +0.133 C 
ATOM      9  C   UNL     1       1.401  -7.334  -0.939  0.00  0.00    +0.306 C 
ATOM     10  O   UNL     1       0.413  -7.601  -1.596  0.00  0.00    -0.252 OA
ATOM     11  N   UNL     1       2.573  -7.086  -1.555  0.00  0.00    -0.269 N 
ATOM     12  H   UNL     1       3.344  -6.807  -1.037  0.00  0.00    +0.156 HD
BRANCH   7  13
ATOM     13  C   UNL     1       0.048  -7.555   1.076  0.00  0.00    +0.150 C 
BRANCH  13  14
ATOM     14  C   UNL     1      -0.729  -6.247   1.239  0.00  0.00    +0.248 C 
BRANCH  14  15
ATOM     15  O   UNL     1      -1.079  -5.737  -0.049  0.00  0.00    -0.490 OA
BRANCH  15  20
ATOM     16  C   UNL     1      -3.976  -0.908  -0.186  0.00  0.00    +0.044 C 
ATOM     17  C   UNL     1      -3.201  -2.200  -0.149  0.00  0.00    -0.050 A 
ATOM     18  C   UNL     1      -2.861  -2.835  -1.329  0.00  0.00    +0.007 A 
ATOM     19  C   UNL     1      -2.151  -4.019  -1.299  0.00  0.00    +0.046 A 
ATOM     20  C   UNL     1      -1.778  -4.572  -0.082  0.00  0.00    +0.121 A 
ATOM     21  C   UNL     1      -2.119  -3.932   1.101  0.00  0.00    +0.046 A 
ATOM     22  C   UNL     1      -2.825  -2.745   1.065  0.00  0.00    +0.007 A 
ENDBRANCH  15  20
ENDBRANCH  14  15
ENDBRANCH  13  14
ENDBRANCH   7  13
ENDBRANCH   1  11
BRANCH   5  23
ATOM     23  C   UNL     1       5.236  -8.352  -5.489  0.00  0.00    -0.042 C 
BRANCH  23  24
ATOM     24  N   UNL     1       6.123  -7.220  -5.788  0.00  0.00    +0.390 N 
ATOM     25  C   UNL     1       5.518  -6.378  -6.842  0.00  0.00    -0.077 C 
ATOM     26  C   UNL     1       6.715  -5.890  -7.695  0.00  0.00    -0.020 C 
ATOM     27  C   UNL     1       7.635  -7.140  -7.688  0.00  0.00    -0.008 C 
ATOM     28  C   UNL     1       7.421  -7.721  -6.275  0.00  0.00    +0.019 C 
ATOM     29  H   UNL     1       6.263  -6.668  -4.955  0.00  0.00    -0.080 HD
BRANCH  28  30
ATOM     30  C   UNL     1       8.525  -7.260  -5.359  0.00  0.00    +0.197 C 
ATOM     31  O   UNL     1       8.265  -6.579  -4.390  0.00  0.00    -0.278 OA
ATOM     32  N   UNL     1       9.803  -7.605  -5.616  0.00  0.00    -0.331 N 
ATOM     33  H   UNL     1      10.011  -8.150  -6.391  0.00  0.00    +0.145 HD
ATOM     34  H   UNL     1      10.513  -7.309  -5.026  0.00  0.00    +0.145 HD
ENDBRANCH  28  30
ENDBRANCH  23  24
ENDBRANCH   5  23
TORSDOF 8
