REMARK  Name = ZINC21755404
REMARK  9 active torsions:
REMARK  status: ('A' for Active; 'I' for Inactive)
REMARK    1  A    between atoms: C_1  and  N_2
REMARK    2  A    between atoms: N_2  and  C_3
REMARK    3  A    between atoms: N_2  and  C_4
REMARK    4  A    between atoms: C_7  and  C_10
REMARK    5  A    between atoms: C_10  and  C_12
REMARK    6  A    between atoms: C_10  and  N_24
REMARK    7  A    between atoms: C_12  and  N_13
REMARK    8  A    between atoms: N_13  and  S_14
REMARK    9  A    between atoms: S_14  and  C_17
REMARK                            x       y       z     vdW  Elec       q    Type
REMARK                         _______ _______ _______ _____ _____    ______ ____
ROOT
ATOM      1  C   UNL     1       2.212   4.955   3.748  0.00  0.00    -0.021 C 
ENDROOT
BRANCH   1   2
ATOM      2  N   UNL     1       2.012   6.358   3.359  0.00  0.00    +0.388 N 
ATOM      3  C   UNL     1       2.018   7.238   4.538  0.00  0.00    -0.073 C 
ATOM      4  C   UNL     1       2.177   8.683   4.064  0.00  0.00    +0.017 C 
ATOM      5  C   UNL     1       1.173   8.982   2.982  0.00  0.00    -0.048 A 
ATOM      6  C   UNL     1       0.912  10.308   2.669  0.00  0.00    +0.004 A 
ATOM      7  C   UNL     1       0.005  10.626   1.678  0.00  0.00    +0.000 A 
ATOM      8  C   UNL     1      -0.647   9.618   0.994  0.00  0.00    +0.000 A 
ATOM      9  C   UNL     1      -0.390   8.298   1.305  0.00  0.00    +0.002 A 
ATOM     10  C   UNL     1       0.520   7.976   2.302  0.00  0.00    -0.061 A 
ATOM     11  C   UNL     1       0.763   6.522   2.609  0.00  0.00    -0.042 C 
ATOM     12  H   UNL     1       2.848   6.644   2.704  0.00  0.00    -0.080 HD
ENDBRANCH   1   2
BRANCH   1  16
ATOM     13  C   UNL     1       6.023   4.529   5.636  0.00  0.00    +0.029 A 
ATOM     14  C   UNL     1       4.921   3.843   6.130  0.00  0.00    +0.023 A 
ATOM     15  C   UNL     1       3.691   3.983   5.518  0.00  0.00    +0.004 A 
ATOM     16  C   UNL     1       3.555   4.805   4.414  0.00  0.00    -0.060 A 
ATOM     17  C   UNL     1       4.652   5.485   3.916  0.00  0.00    +0.004 A 
ATOM     18  C   UNL     1       5.883   5.354   4.527  0.00  0.00    +0.023 A 
BRANCH  13  20
ATOM     19  C   UNL     1       7.390   3.616   7.491  0.00  0.00    +0.129 C 
ATOM     20  N   UNL     1       7.268   4.389   6.252  0.00  0.00    -0.336 N 
ATOM     21  C   UNL     1       8.453   5.016   5.660  0.00  0.00    +0.129 C 
ENDBRANCH  13  20
ENDBRANCH   1  16
BRANCH   1  22
ATOM     22  C   UNL     1       2.157   4.068   2.503  0.00  0.00    +0.095 C 
BRANCH  22  23
ATOM     23  N   UNL     1       2.258   2.662   2.902  0.00  0.00    -0.191 NA
ATOM     24  H   UNL     1       2.746   2.392   3.850  0.00  0.00    +0.148 HD
BRANCH  23  25
ATOM     25  S   UNL     1       1.868   1.466   1.824  0.00  0.00    +0.058 S 
ATOM     26  O   UNL     1       0.607   1.815   1.270  0.00  0.00    -0.153 OA
ATOM     27  O   UNL     1       2.092   0.231   2.490  0.00  0.00    -0.153 OA
BRANCH  25  28
ATOM     28  C   UNL     1       3.036   1.548   0.508  0.00  0.00    +0.105 A 
ATOM     29  C   UNL     1       4.209   0.819   0.579  0.00  0.00    +0.029 A 
ATOM     30  C   UNL     1       5.126   0.883  -0.454  0.00  0.00    +0.017 A 
ATOM     31  C   UNL     1       4.870   1.677  -1.557  0.00  0.00    +0.018 A 
ATOM     32  C   UNL     1       3.697   2.407  -1.627  0.00  0.00    +0.017 A 
ATOM     33  C   UNL     1       2.781   2.342  -0.594  0.00  0.00    +0.029 A 
ATOM     34 BR   UNL     1       6.125   1.766  -2.969  0.00  0.00    -0.050 Br
ENDBRANCH  25  28
ENDBRANCH  23  25
ENDBRANCH  22  23
ENDBRANCH   1  22
TORSDOF 7
