REMARK  Name = ZINC39316185
REMARK  6 active torsions:
REMARK  status: ('A' for Active; 'I' for Inactive)
REMARK    1  A    between atoms: C_1  and  C_2
REMARK    2  A    between atoms: C_5  and  C_34
REMARK    3  A    between atoms: N_6  and  C_7
REMARK    4  A    between atoms: C_12  and  C_14
REMARK    5  A    between atoms: C_17  and  N_20
REMARK    6  A    between atoms: C_30  and  C_31
REMARK                            x       y       z     vdW  Elec       q    Type
REMARK                         _______ _______ _______ _____ _____    ______ ____
ROOT
ATOM      1  C   UNL     1       1.940  -1.644   2.614  0.00  0.00    +0.170 C 
ATOM      2  C   UNL     1       3.308  -2.011   3.161  0.00  0.00    +0.050 C 
ATOM      3  C   UNL     1       4.153  -1.708   2.149  0.00  0.00    +0.151 C 
ATOM      4  N   UNL     1       3.458  -1.214   1.087  0.00  0.00    -0.136 NA
ATOM      5  N   UNL     1       2.236  -1.148   1.260  0.00  0.00    -0.177 NA
ENDROOT
BRANCH   3   6
ATOM      6  N   UNL     1       5.507  -1.873   2.187  0.00  0.00    -0.338 N 
ATOM      7  C   UNL     1       6.226  -1.678   1.099  0.00  0.00    +0.065 A 
ATOM      8  C   UNL     1       5.673  -1.895  -0.257  0.00  0.00    +0.044 A 
ATOM      9  C   UNL     1       4.463  -2.556  -0.448  0.00  0.00    +0.052 A 
ATOM     10  C   UNL     1       3.984  -2.741  -1.730  0.00  0.00    +0.124 A 
ATOM     11  C   UNL     1       4.707  -2.271  -2.818  0.00  0.00    +0.042 A 
ATOM     12  C   UNL     1       5.906  -1.614  -2.637  0.00  0.00    +0.050 A 
ATOM     13  C   UNL     1       6.403  -1.414  -1.355  0.00  0.00    +0.137 A 
ATOM     14  O   UNL     1       7.569  -0.760  -1.170  0.00  0.00    -0.462 OA
ATOM     15  C   UNL     1       8.226  -0.799  -0.013  0.00  0.00    +0.208 A 
ATOM     16  C   UNL     1       7.637  -1.223   1.157  0.00  0.00    +0.073 A 
ATOM     17  F   UNL     1       2.810  -3.382  -1.926  0.00  0.00    -0.205 F 
ATOM     18  H   UNL     1       5.941  -2.133   3.014  0.00  0.00    +0.167 HD
BRANCH  16  19
ATOM     19  C   UNL     1       8.382  -1.230   2.417  0.00  0.00    +0.263 C 
ATOM     20  O   UNL     1       7.846  -1.612   3.436  0.00  0.00    -0.296 OA
ENDBRANCH  16  19
ENDBRANCH   3   6
BRANCH   1  25
ATOM     21  C   UNL     1      -0.097  -0.144   2.910  0.00  0.00    +0.126 C 
ATOM     22  C   UNL     1      -1.179  -0.922   3.587  0.00  0.00    +0.006 C 
ATOM     23  C   UNL     1      -0.934  -1.524   4.734  0.00  0.00    +0.039 C 
ATOM     24  S   UNL     1       0.776  -1.183   5.110  0.00  0.00    -0.125 S 
ATOM     25  C   UNL     1       1.296  -0.546   3.462  0.00  0.00    +0.108 C 
BRANCH  21  31
ATOM     26  C   UNL     1      -0.746  -2.890   1.625  0.00  0.00    +0.063 C 
ATOM     27  C   UNL     1      -0.424  -1.613   0.893  0.00  0.00    +0.017 A 
ATOM     28  C   UNL     1      -0.372  -1.460  -0.446  0.00  0.00    +0.023 A 
ATOM     29  C   UNL     1      -0.039  -0.116  -0.705  0.00  0.00    +0.023 A 
ATOM     30  C   UNL     1       0.100   0.502   0.485  0.00  0.00    +0.017 A 
ATOM     31  N   UNL     1      -0.140  -0.410   1.470  0.00  0.00    -0.340 N 
ATOM     32  C   UNL     1       0.454   1.952   0.692  0.00  0.00    +0.063 C 
ENDBRANCH  21  31
ENDBRANCH   1  25
TORSDOF 4
