REMARK  Name = ZINC01286996
REMARK  6 active torsions:
REMARK  status: ('A' for Active; 'I' for Inactive)
REMARK    1  A    between atoms: C_1  and  N_2
REMARK    2  A    between atoms: C_3  and  N_11
REMARK    3  A    between atoms: N_7  and  C_10
REMARK    4  A    between atoms: C_12  and  C_14
REMARK    5  A    between atoms: C_14  and  S_15
REMARK    6  A    between atoms: S_15  and  C_16
REMARK                            x       y       z     vdW  Elec       q    Type
REMARK                         _______ _______ _______ _____ _____    ______ ____
ROOT
ATOM      1  N   UNL     1      -6.174   5.132  -0.512  0.00  0.00    -0.271 N 
ATOM      2  C   UNL     1      -5.365   4.386  -1.289  0.00  0.00    +0.229 C 
ATOM      3  O   UNL     1      -5.533   4.358  -2.490  0.00  0.00    -0.275 OA
ATOM      4  H   UNL     1      -6.086   5.098   0.453  0.00  0.00    +0.156 HD
ENDROOT
BRANCH   1   7
ATOM      5  C   UNL     1      -5.340   7.132  -2.280  0.00  0.00    +0.155 C 
ATOM      6  N   UNL     1      -6.756   6.936  -1.962  0.00  0.00    -0.284 N 
ATOM      7  C   UNL     1      -7.128   5.942  -1.089  0.00  0.00    +0.114 A 
ATOM      8  C   UNL     1      -8.449   5.769  -0.793  0.00  0.00    +0.112 A 
ATOM      9  C   UNL     1      -9.400   6.611  -1.396  0.00  0.00    +0.258 A 
ATOM     10  O   UNL     1     -10.585   6.474  -1.147  0.00  0.00    -0.267 OA
ATOM     11  N   UNL     1      -8.993   7.569  -2.251  0.00  0.00    -0.264 N 
ATOM     12  C   UNL     1      -7.686   7.726  -2.530  0.00  0.00    +0.333 A 
ATOM     13  O   UNL     1      -7.339   8.597  -3.304  0.00  0.00    -0.246 OA
ATOM     14  C   UNL     1      -9.980   8.449  -2.881  0.00  0.00    +0.157 C 
ENDBRANCH   1   7
BRANCH   2  15
ATOM     15  C   UNL     1      -4.250   3.585  -0.666  0.00  0.00    +0.173 C 
BRANCH  15  16
ATOM     16  S   UNL     1      -3.349   2.697  -1.960  0.00  0.00    -0.082 S 
BRANCH  16  17
ATOM     17  C   UNL     1      -2.141   1.870  -0.980  0.00  0.00    +0.150 C 
ATOM     18  N   UNL     1      -2.077   1.993   0.307  0.00  0.00    -0.262 NA
ATOM     19  C   UNL     1      -0.965   1.185   0.838  0.00  0.00    +0.163 C 
ATOM     20  C   UNL     1      -0.353   0.529  -0.416  0.00  0.00    +0.126 C 
ATOM     21  N   UNL     1      -1.189   1.044  -1.513  0.00  0.00    -0.322 N 
ATOM     22  H   UNL     1      -1.083   0.834  -2.454  0.00  0.00    +0.148 HD
ENDBRANCH  16  17
ENDBRANCH  15  16
ENDBRANCH   2  15
TORSDOF 4
