REMARK  Name = ZINC09159244
REMARK  10 active torsions:
REMARK  status: ('A' for Active; 'I' for Inactive)
REMARK    1  A    between atoms: C_1  and  C_2
REMARK    2  A    between atoms: C_6  and  N_8
REMARK    3  A    between atoms: C_12  and  N_64
REMARK    4  A    between atoms: C_19  and  C_22
REMARK    5  A    between atoms: N_24  and  N_25
REMARK    6  A    between atoms: N_25  and  C_26
REMARK    7  A    between atoms: C_26  and  N_28
REMARK    8  A    between atoms: N_28  and  C_29
REMARK    9  A    between atoms: C_33  and  O_35
REMARK   10  A    between atoms: O_35  and  C_36
REMARK                            x       y       z     vdW  Elec       q    Type
REMARK                         _______ _______ _______ _____ _____    ______ ____
ROOT
ATOM      1  C   UNL     1     -10.388  -2.910  -1.445  0.00  0.00    -0.078 C 
ATOM      2  C   UNL     1      -9.979  -1.438  -1.343  0.00  0.00    -0.018 C 
ATOM      3  C   UNL     1      -8.504  -1.350  -0.944  0.00  0.00    +0.009 C 
ATOM      4  C   UNL     1      -8.297  -2.085   0.383  0.00  0.00    +0.060 C 
ATOM      5  C   UNL     1      -8.754  -3.538   0.232  0.00  0.00    -0.065 C 
ATOM      6  N   UNL     1     -10.188  -3.555  -0.129  0.00  0.00    +0.388 N 
ATOM      7  H   UNL     1     -10.716  -3.034   0.581  0.00  0.00    -0.081 HD
ENDROOT
BRANCH   6  12
ATOM      8  N   UNL     1     -11.931  -5.845   1.577  0.00  0.00    -0.212 N 
ATOM      9  C   UNL     1     -12.852  -5.568   0.646  0.00  0.00    +0.225 C 
ATOM     10  O   UNL     1     -14.043  -5.766   0.756  0.00  0.00    -0.275 OA
ATOM     11  C   UNL     1     -12.172  -4.968  -0.566  0.00  0.00    +0.090 C 
ATOM     12  C   UNL     1     -10.682  -4.947  -0.170  0.00  0.00    +0.029 C 
ATOM     13  C   UNL     1     -10.676  -5.536   1.224  0.00  0.00    +0.213 C 
ATOM     14  O   UNL     1      -9.692  -5.703   1.912  0.00  0.00    -0.277 OA
BRANCH   8  20
ATOM     15  C   UNL     1     -13.249  -5.267   6.279  0.00  0.00    +0.044 C 
ATOM     16  C   UNL     1     -12.895  -6.154   5.114  0.00  0.00    -0.049 A 
ATOM     17  C   UNL     1     -12.886  -7.528   5.268  0.00  0.00    +0.003 A 
ATOM     18  C   UNL     1     -12.562  -8.345   4.201  0.00  0.00    +0.002 A 
ATOM     19  C   UNL     1     -12.245  -7.790   2.976  0.00  0.00    +0.024 A 
ATOM     20  C   UNL     1     -12.252  -6.411   2.818  0.00  0.00    +0.044 A 
ATOM     21  C   UNL     1     -12.573  -5.593   3.893  0.00  0.00    +0.027 A 
ENDBRANCH   8  20
ENDBRANCH   6  12
BRANCH   4  22
ATOM     22  C   UNL     1      -6.837  -2.054   0.754  0.00  0.00    +0.230 C 
ATOM     23  O   UNL     1      -6.223  -3.091   0.888  0.00  0.00    -0.274 OA
ATOM     24  N   UNL     1      -6.214  -0.873   0.936  0.00  0.00    -0.235 N 
ATOM     25  H   UNL     1      -6.705  -0.043   0.829  0.00  0.00    +0.173 HD
BRANCH  24  26
ATOM     26  N   UNL     1      -4.856  -0.843   1.281  0.00  0.00    -0.246 N 
ATOM     27  H   UNL     1      -4.365  -1.672   1.388  0.00  0.00    +0.172 HD
BRANCH  26  28
ATOM     28  C   UNL     1      -4.233   0.338   1.464  0.00  0.00    +0.151 C 
ATOM     29  S   UNL     1      -2.574   0.374   1.885  0.00  0.00    -0.017 S 
BRANCH  28  30
ATOM     30  N   UNL     1      -4.915   1.490   1.314  0.00  0.00    -0.296 N 
ATOM     31  H   UNL     1      -5.872   1.470   1.154  0.00  0.00    +0.154 HD
BRANCH  30  32
ATOM     32  C   UNL     1      -4.245   2.716   1.390  0.00  0.00    +0.036 A 
ATOM     33  C   UNL     1      -4.817   3.781   2.074  0.00  0.00    +0.023 A 
ATOM     34  C   UNL     1      -4.155   4.991   2.149  0.00  0.00    +0.005 A 
ATOM     35  C   UNL     1      -2.919   5.143   1.550  0.00  0.00    +0.046 A 
ATOM     36  C   UNL     1      -2.344   4.084   0.862  0.00  0.00    +0.122 A 
ATOM     37  C   UNL     1      -3.006   2.868   0.784  0.00  0.00    +0.069 A 
BRANCH  36  38
ATOM     38  O   UNL     1      -1.131   4.236   0.269  0.00  0.00    -0.495 OA
ATOM     39  C   UNL     1      -0.506   5.516   0.390  0.00  0.00    +0.277 C 
ENDBRANCH  36  38
ENDBRANCH  30  32
ENDBRANCH  28  30
ENDBRANCH  26  28
ENDBRANCH  24  26
ENDBRANCH   4  22
TORSDOF 8
