REMARK  Name = ZINC60269407
REMARK  10 active torsions:
REMARK  status: ('A' for Active; 'I' for Inactive)
REMARK    1  A    between atoms: C_3  and  C_8
REMARK    2  A    between atoms: C_8  and  N_9
REMARK    3  A    between atoms: N_9  and  C_10
REMARK    4  A    between atoms: N_9  and  C_25
REMARK    5  A    between atoms: C_10  and  C_11
REMARK    6  A    between atoms: C_11  and  C_12
REMARK    7  A    between atoms: N_14  and  C_15
REMARK    8  A    between atoms: C_19  and  S_21
REMARK    9  A    between atoms: S_21  and  N_24
REMARK   10  A    between atoms: C_25  and  C_26
REMARK                            x       y       z     vdW  Elec       q    Type
REMARK                         _______ _______ _______ _____ _____    ______ ____
ROOT
ATOM      1  C   UNL     1       5.370   3.664   1.466  0.00  0.00    -0.069 C 
ENDROOT
BRANCH   1   2
ATOM      2  N   UNL     1       4.225   2.745   1.494  0.00  0.00    +0.384 N 
ATOM      3  H   UNL     1       3.448   3.190   1.960  0.00  0.00    -0.081 HD
BRANCH   2   4
ATOM      4  C   UNL     1       3.839   2.400   0.119  0.00  0.00    -0.043 C 
BRANCH   4   7
ATOM      5  C   UNL     1       0.202   1.387   0.118  0.00  0.00    +0.003 A 
ATOM      6  C   UNL     1       1.348   2.160   0.095  0.00  0.00    +0.002 A 
ATOM      7  C   UNL     1       2.591   1.557   0.144  0.00  0.00    -0.061 A 
ATOM      8  C   UNL     1       2.688   0.180   0.215  0.00  0.00    +0.040 A 
ATOM      9  C   UNL     1       1.541  -0.595   0.238  0.00  0.00    +0.124 A 
ATOM     10  C   UNL     1       0.297   0.011   0.190  0.00  0.00    +0.038 A 
ATOM     11  F   UNL     1       1.636  -1.941   0.307  0.00  0.00    -0.205 F 
ENDBRANCH   4   7
ENDBRANCH   2   4
BRANCH   2  12
ATOM     12  C   UNL     1       4.596   1.523   2.220  0.00  0.00    -0.046 C 
BRANCH  12  13
ATOM     13  C   UNL     1       4.877   1.865   3.684  0.00  0.00    +0.102 C 
ATOM     14  C   UNL     1       5.320   0.595   4.443  0.00  0.00    +0.032 C 
ATOM     15  C   UNL     1       4.610   0.765   5.813  0.00  0.00    +0.030 C 
ATOM     16  C   UNL     1       3.299   1.469   5.380  0.00  0.00    +0.160 C 
ATOM     17  O   UNL     1       3.682   2.349   4.309  0.00  0.00    -0.378 OA
ENDBRANCH  12  13
ENDBRANCH   2  12
ENDBRANCH   1   2
BRANCH   1  18
ATOM     18  C   UNL     1       4.944   4.990   0.831  0.00  0.00    +0.077 C 
BRANCH  18  19
ATOM     19  C   UNL     1       6.140   5.899   0.716  0.00  0.00    +0.215 C 
ATOM     20  O   UNL     1       7.227   5.524   1.104  0.00  0.00    -0.276 OA
ATOM     21  N   UNL     1       6.003   7.129   0.183  0.00  0.00    -0.285 N 
ATOM     22  H   UNL     1       5.153   7.401  -0.196  0.00  0.00    +0.155 HD
BRANCH  21  23
ATOM     23  C   UNL     1       7.087   8.014   0.176  0.00  0.00    +0.035 A 
ATOM     24  C   UNL     1       6.876   9.375   0.351  0.00  0.00    +0.023 A 
ATOM     25  C   UNL     1       7.948  10.246   0.344  0.00  0.00    +0.004 A 
ATOM     26  C   UNL     1       9.231   9.763   0.162  0.00  0.00    +0.028 A 
ATOM     27  C   UNL     1       9.445   8.408  -0.012  0.00  0.00    +0.107 A 
ATOM     28  C   UNL     1       8.378   7.532   0.000  0.00  0.00    +0.051 A 
BRANCH  27  29
ATOM     29  S   UNL     1      11.082   7.798  -0.244  0.00  0.00    +0.056 S 
ATOM     30  O   UNL     1      10.961   6.560  -0.929  0.00  0.00    -0.153 OA
ATOM     31  O   UNL     1      11.850   8.880  -0.755  0.00  0.00    -0.153 OA
BRANCH  29  32
ATOM     32  N   UNL     1      11.692   7.452   1.256  0.00  0.00    -0.204 NA
ATOM     33  H   UNL     1      12.345   6.742   1.362  0.00  0.00    +0.144 HD
ATOM     34  H   UNL     1      11.396   7.958   2.029  0.00  0.00    +0.144 HD
ENDBRANCH  29  32
ENDBRANCH  27  29
ENDBRANCH  21  23
ENDBRANCH  18  19
ENDBRANCH   1  18
TORSDOF 10
