REMARK  Name = ZINC55309564
REMARK  9 active torsions:
REMARK  status: ('A' for Active; 'I' for Inactive)
REMARK    1  A    between atoms: C_1  and  C_2
REMARK    2  A    between atoms: C_2  and  N_3
REMARK    3  A    between atoms: N_3  and  C_4
REMARK    4  A    between atoms: C_4  and  C_5
REMARK    5  A    between atoms: C_4  and  C_6
REMARK    6  A    between atoms: C_4  and  C_16
REMARK    7  A    between atoms: C_6  and  C_7
REMARK    8  A    between atoms: C_7  and  S_8
REMARK    9  A    between atoms: S_8  and  C_9
REMARK                            x       y       z     vdW  Elec       q    Type
REMARK                         _______ _______ _______ _____ _____    ______ ____
ROOT
ATOM      1  C   UNL     1       0.733  -1.960   1.184  0.00  0.00    +0.008 C 
ATOM      2  C   UNL     1      -0.703  -2.489   1.195  0.00  0.00    -0.001 C 
ENDROOT
BRANCH   1   3
ATOM      3  C   UNL     1       1.438  -2.446  -0.056  0.00  0.00    +0.199 C 
ATOM      4  O   UNL     1       1.067  -3.461  -0.606  0.00  0.00    -0.278 OA
ATOM      5  N   UNL     1       2.481  -1.752  -0.554  0.00  0.00    -0.330 N 
ATOM      6  H   UNL     1       2.777  -0.940  -0.114  0.00  0.00    +0.145 HD
ATOM      7  H   UNL     1       2.935  -2.065  -1.352  0.00  0.00    +0.145 HD
ENDBRANCH   1   3
BRANCH   1   8
ATOM      8  N   UNL     1       0.713  -0.491   1.192  0.00  0.00    +0.388 N 
ATOM      9  H   UNL     1       1.659  -0.141   1.185  0.00  0.00    -0.084 HD
ATOM     10  H   UNL     1       0.240  -0.165   2.022  0.00  0.00    -0.084 HD
BRANCH   8  12
ATOM     11  C   UNL     1      -0.019   1.526   0.010  0.00  0.00    -0.017 C 
ATOM     12  C   UNL     1       0.002  -0.004   0.002  0.00  0.00    -0.085 C 
ENDBRANCH   8  12
ENDBRANCH   1   8
BRANCH   1  13
ATOM     13  C   UNL     1       1.472  -2.466   2.424  0.00  0.00    +0.007 C 
BRANCH  13  14
ATOM     14  C   UNL     1       1.493  -3.996   2.415  0.00  0.00    +0.073 C 
BRANCH  14  15
ATOM     15  S   UNL     1       2.371  -4.597   3.885  0.00  0.00    -0.125 S 
BRANCH  15  16
ATOM     16  C   UNL     1       2.309  -6.351   3.730  0.00  0.00    +0.009 A 
ATOM     17  C   UNL     1       1.680  -6.933   2.636  0.00  0.00    +0.015 A 
ATOM     18  C   UNL     1       1.633  -8.307   2.518  0.00  0.00    +0.002 A 
ATOM     19  C   UNL     1       2.212  -9.107   3.486  0.00  0.00    +0.015 A 
ATOM     20  C   UNL     1       2.840  -8.532   4.578  0.00  0.00    +0.019 A 
ATOM     21  C   UNL     1       2.894  -7.157   4.700  0.00  0.00    +0.030 A 
ATOM     22 BR   UNL     1       3.629  -9.630   5.900  0.00  0.00    -0.050 Br
ENDBRANCH  15  16
ENDBRANCH  14  15
ENDBRANCH  13  14
ENDBRANCH   1  13
TORSDOF 7
