REMARK  Name = ZINC39679439
REMARK  9 active torsions:
REMARK  status: ('A' for Active; 'I' for Inactive)
REMARK    1  A    between atoms: C_1  and  C_2
REMARK    2  A    between atoms: C_2  and  C_3
REMARK    3  A    between atoms: C_2  and  O_4
REMARK    4  A    between atoms: O_4  and  C_5
REMARK    5  A    between atoms: C_8  and  S_28
REMARK    6  A    between atoms: C_10  and  N_11
REMARK    7  A    between atoms: C_12  and  C_14
REMARK    8  A    between atoms: C_21  and  C_23
REMARK    9  A    between atoms: S_28  and  N_31
REMARK                            x       y       z     vdW  Elec       q    Type
REMARK                         _______ _______ _______ _____ _____    ______ ____
ROOT
ATOM      1  C   UNL     1      -1.580  -1.661  -0.676  0.00  0.00    +0.142 A 
ATOM      2  C   UNL     1      -0.535  -2.362  -1.255  0.00  0.00    +0.049 A 
ATOM      3  C   UNL     1      -0.788  -3.526  -1.956  0.00  0.00    +0.032 A 
ATOM      4  C   UNL     1      -2.083  -3.995  -2.081  0.00  0.00    +0.107 A 
ATOM      5  C   UNL     1      -3.131  -3.301  -1.506  0.00  0.00    +0.055 A 
ATOM      6  C   UNL     1      -2.884  -2.135  -0.797  0.00  0.00    +0.077 A 
ENDROOT
BRANCH   6   7
ATOM      7  N   UNL     1      -3.945  -1.433  -0.209  0.00  0.00    -0.282 N 
ATOM      8  C   UNL     1      -5.192  -1.557  -0.704  0.00  0.00    +0.222 C 
ATOM      9  O   UNL     1      -5.381  -2.192  -1.720  0.00  0.00    -0.275 OA
ATOM     10  H   UNL     1      -3.781  -0.857   0.554  0.00  0.00    +0.155 HD
BRANCH   8  11
ATOM     11  C   UNL     1      -6.352  -0.907   0.005  0.00  0.00    +0.096 C 
ATOM     12  C   UNL     1      -7.694  -1.234  -0.725  0.00  0.00    +0.025 C 
ATOM     13  C   UNL     1      -8.002  -2.656  -0.128  0.00  0.00    +0.016 C 
ATOM     14  C   UNL     1      -7.975  -2.140   1.357  0.00  0.00    +0.027 C 
ATOM     15  C   UNL     1      -6.540  -1.517   1.415  0.00  0.00    +0.121 C 
ATOM     16  C   UNL     1      -8.902  -0.925   1.228  0.00  0.00    -0.027 C 
ATOM     17  C   UNL     1      -8.737  -0.386   0.014  0.00  0.00    -0.027 C 
BRANCH  15  18
ATOM     18  C   UNL     1      -6.467  -0.444   2.471  0.00  0.00    +0.360 C 
ATOM     19  O   UNL     1      -7.094  -0.567   3.509  0.00  0.00    -0.246 OA
ATOM     20  O   UNL     1      -5.782   0.547   2.286  0.00  0.00    -0.246 OA
ENDBRANCH  15  18
ENDBRANCH   8  11
ENDBRANCH   6   7
BRANCH   4  21
ATOM     21  S   UNL     1      -2.398  -5.479  -2.977  0.00  0.00    +0.061 S 
ATOM     22  O   UNL     1      -3.749  -5.412  -3.412  0.00  0.00    -0.153 OA
ATOM     23  O   UNL     1      -1.314  -5.646  -3.880  0.00  0.00    -0.153 OA
BRANCH  21  24
ATOM     24  N   UNL     1      -2.310  -6.731  -1.896  0.00  0.00    -0.177 NA
ATOM     25  C   UNL     1      -1.033  -7.412  -1.640  0.00  0.00    +0.109 C 
ATOM     26  C   UNL     1      -0.763  -7.403  -0.132  0.00  0.00    +0.017 C 
ATOM     27  C   UNL     1      -1.959  -8.015   0.600  0.00  0.00    +0.003 C 
ATOM     28  C   UNL     1      -3.210  -7.176   0.329  0.00  0.00    +0.017 C 
ATOM     29  C   UNL     1      -3.507  -7.178  -1.169  0.00  0.00    +0.109 C 
ENDBRANCH  21  24
ENDBRANCH   4  21
BRANCH   1  30
ATOM     30  O   UNL     1      -1.333  -0.515   0.014  0.00  0.00    -0.488 OA
BRANCH  30  32
ATOM     31  C   UNL     1      -0.004   1.504   0.011  0.00  0.00    +0.051 C 
ATOM     32  C   UNL     1       0.010  -0.026  -0.001  0.00  0.00    +0.167 C 
ATOM     33  C   UNL     1       0.753  -0.538   1.234  0.00  0.00    +0.051 C 
ENDBRANCH  30  32
ENDBRANCH   1  30
TORSDOF 7
