REMARK  Name = ZINC40170491
REMARK  14 active torsions:
REMARK  status: ('A' for Active; 'I' for Inactive)
REMARK    1  A    between atoms: C_1  and  C_2
REMARK    2  A    between atoms: C_2  and  C_3
REMARK    3  A    between atoms: C_3  and  C_5
REMARK    4  A    between atoms: C_3  and  S_22
REMARK    5  A    between atoms: N_7  and  C_8
REMARK    6  A    between atoms: C_9  and  C_19
REMARK    7  A    between atoms: C_10  and  C_14
REMARK    8  A    between atoms: C_11  and  C_13
REMARK    9  A    between atoms: C_14  and  O_16
REMARK   10  A    between atoms: O_16  and  C_17
REMARK   11  A    between atoms: C_17  and  C_18
REMARK   12  A    between atoms: S_22  and  C_23
REMARK   13  A    between atoms: C_29  and  C_37
REMARK   14  A    between atoms: C_34  and  C_36
REMARK                            x       y       z     vdW  Elec       q    Type
REMARK                         _______ _______ _______ _____ _____    ______ ____
ROOT
ATOM      1  C   UNL     1       0.869  -1.988   0.842  0.00  0.00    +0.233 C 
ATOM      2  O   UNL     1       1.817  -2.529   0.315  0.00  0.00    -0.274 OA
ATOM      3  N   UNL     1      -0.174  -2.724   1.272  0.00  0.00    -0.255 N 
ATOM      4  H   UNL     1      -0.933  -2.291   1.694  0.00  0.00    +0.158 HD
ENDROOT
BRANCH   3   5
ATOM      5  C   UNL     1      -0.164  -4.097   1.113  0.00  0.00    +0.206 A 
ATOM      6  C   UNL     1      -1.167  -4.964   1.502  0.00  0.00    +0.111 A 
ATOM      7  C   UNL     1      -0.688  -6.312   1.118  0.00  0.00    +0.114 A 
ATOM      8  C   UNL     1       0.531  -6.120   0.548  0.00  0.00    +0.119 A 
ATOM      9  O   UNL     1       0.819  -4.813   0.549  0.00  0.00    -0.445 OA
ATOM     10  C   UNL     1       1.417  -7.207  -0.004  0.00  0.00    +0.087 C 
BRANCH   6  11
ATOM     11  C   UNL     1      -2.434  -4.623   2.156  0.00  0.00    +0.247 C 
ATOM     12  O   UNL     1      -3.418  -4.375   1.485  0.00  0.00    -0.270 OA
ATOM     13  N   UNL     1      -2.508  -4.584   3.502  0.00  0.00    -0.325 N 
ATOM     14  H   UNL     1      -1.724  -4.781   4.037  0.00  0.00    +0.145 HD
ATOM     15  H   UNL     1      -3.346  -4.358   3.934  0.00  0.00    +0.145 HD
ENDBRANCH   6  11
BRANCH   7  16
ATOM     16  C   UNL     1      -1.386  -7.593   1.314  0.00  0.00    +0.343 C 
ATOM     17  O   UNL     1      -2.132  -8.016   0.453  0.00  0.00    -0.245 OA
BRANCH  16  18
ATOM     18  O   UNL     1      -1.197  -8.296   2.448  0.00  0.00    -0.461 OA
BRANCH  18  19
ATOM     19  C   UNL     1      -1.907  -9.531   2.571  0.00  0.00    +0.229 C 
ATOM     20  C   UNL     1      -1.569 -10.182   3.913  0.00  0.00    +0.048 C 
ENDBRANCH  18  19
ENDBRANCH  16  18
ENDBRANCH   7  16
ENDBRANCH   3   5
BRANCH   1  21
ATOM     21  C   UNL     1       0.857  -0.491   1.016  0.00  0.00    +0.140 C 
BRANCH  21  23
ATOM     22  C   UNL     1      -0.118   1.648   0.169  0.00  0.00    +0.005 C 
ATOM     23  C   UNL     1       0.005   0.144  -0.084  0.00  0.00    +0.020 C 
ENDBRANCH  21  23
BRANCH  21  24
ATOM     24  S   UNL     1       2.553   0.144   0.909  0.00  0.00    -0.073 S 
BRANCH  24  25
ATOM     25  C   UNL     1       3.361  -0.560   2.308  0.00  0.00    +0.197 A 
ATOM     26  N   UNL     1       2.754  -1.257   3.251  0.00  0.00    -0.122 NA
ATOM     27  N   UNL     1       3.617  -1.730   4.071  0.00  0.00    -0.129 NA
ATOM     28  C   UNL     1       4.829  -1.397   3.671  0.00  0.00    +0.162 A 
ATOM     29  N   UNL     1       4.678  -0.480   2.644  0.00  0.00    -0.270 N 
ATOM     30  C   UNL     1       5.770   0.267   2.243  0.00  0.00    +0.061 A 
ATOM     31  C   UNL     1       5.676   1.518   1.654  0.00  0.00    -0.026 A 
ATOM     32  C   UNL     1       6.788   2.101   1.074  0.00  0.00    +0.005 A 
ATOM     33  C   UNL     1       8.031   1.500   1.165  0.00  0.00    +0.001 A 
ATOM     34  C   UNL     1       8.181   0.350   1.909  0.00  0.00    +0.010 A 
ATOM     35  C   UNL     1       7.067  -0.226   2.521  0.00  0.00    +0.002 A 
ATOM     36  C   UNL     1       7.219  -1.289   3.519  0.00  0.00    -0.038 A 
ATOM     37  C   UNL     1       6.112  -1.808   4.094  0.00  0.00    +0.052 A 
ATOM     38  C   UNL     1       8.580  -1.804   3.911  0.00  0.00    +0.044 C 
ATOM     39  C   UNL     1       4.402   2.323   1.697  0.00  0.00    +0.046 C 
ENDBRANCH  24  25
ENDBRANCH  21  24
ENDBRANCH   1  21
TORSDOF 9
