REMARK  Name = ZINC16949379
REMARK  6 active torsions:
REMARK  status: ('A' for Active; 'I' for Inactive)
REMARK    1  A    between atoms: C_4  and  C_7
REMARK    2  A    between atoms: C_9  and  C_23
REMARK    3  A    between atoms: C_11  and  C_16
REMARK    4  A    between atoms: C_11  and  O_22
REMARK    5  A    between atoms: C_16  and  C_17
REMARK    6  A    between atoms: C_23  and  C_25
REMARK                            x       y       z     vdW  Elec       q    Type
REMARK                         _______ _______ _______ _____ _____    ______ ____
ROOT
ATOM      1  C   UNL     1       2.487  -0.078  -0.113  0.00  0.00    +0.120 C 
ATOM      2  C   UNL     1       1.195  -0.596  -0.756  0.00  0.00    +0.141 C 
ATOM      3  C   UNL     1       0.002  -0.004   0.002  0.00  0.00    +0.216 C 
ATOM      4  N   UNL     1       0.114   1.456   0.009  0.00  0.00    -0.266 N 
ATOM      5  C   UNL     1       1.308   2.064  -0.036  0.00  0.00    +0.302 C 
ATOM      6  O   UNL     1       1.345   3.279  -0.018  0.00  0.00    -0.253 OA
ATOM      7  N   UNL     1       2.463   1.386  -0.100  0.00  0.00    -0.292 N 
ATOM      8  H   UNL     1      -0.693   1.993   0.042  0.00  0.00    +0.153 HD
ATOM      9  H   UNL     1       3.300   1.875  -0.139  0.00  0.00    +0.151 HD
ENDROOT
BRANCH   1  13
ATOM     10  C   UNL     1       5.848  -1.432  -2.374  0.00  0.00    +0.000 A 
ATOM     11  C   UNL     1       5.490  -2.086  -1.210  0.00  0.00    +0.000 A 
ATOM     12  C   UNL     1       4.402  -1.647  -0.478  0.00  0.00    +0.005 A 
ATOM     13  C   UNL     1       3.673  -0.556  -0.911  0.00  0.00    -0.026 A 
ATOM     14  C   UNL     1       4.028   0.095  -2.078  0.00  0.00    +0.005 A 
ATOM     15  C   UNL     1       5.119  -0.341  -2.807  0.00  0.00    +0.000 A 
ENDBRANCH   1  13
BRANCH   3  16
ATOM     16  C   UNL     1      -0.000  -0.523   1.441  0.00  0.00    +0.353 C 
ATOM     17  F   UNL     1       0.254  -1.899   1.441  0.00  0.00    -0.194 F 
ATOM     18  F   UNL     1       0.993   0.134   2.176  0.00  0.00    -0.194 F 
BRANCH  16  19
ATOM     19  C   UNL     1      -1.366  -0.257   2.077  0.00  0.00    +0.414 C 
ATOM     20  F   UNL     1      -2.358  -0.915   1.343  0.00  0.00    -0.203 F 
ATOM     21  F   UNL     1      -1.368  -0.732   3.393  0.00  0.00    -0.203 F 
ENDBRANCH  16  19
ENDBRANCH   3  16
BRANCH   3  22
ATOM     22  O   UNL     1      -1.213  -0.387  -0.646  0.00  0.00    -0.366 OA
ATOM     23  H   UNL     1      -2.010  -0.043  -0.222  0.00  0.00    +0.212 HD
ENDBRANCH   3  22
BRANCH   2  24
ATOM     24  C   UNL     1       1.141  -0.167  -2.199  0.00  0.00    +0.173 C 
ATOM     25  O   UNL     1       0.641   0.896  -2.498  0.00  0.00    -0.292 OA
BRANCH  24  26
ATOM     26  C   UNL     1       1.696  -1.039  -3.247  0.00  0.00    +0.018 A 
ATOM     27  C   UNL     1       2.280  -2.264  -2.906  0.00  0.00    +0.011 A 
ATOM     28  C   UNL     1       2.793  -3.077  -3.894  0.00  0.00    +0.001 A 
ATOM     29  C   UNL     1       2.741  -2.680  -5.219  0.00  0.00    +0.000 A 
ATOM     30  C   UNL     1       2.170  -1.467  -5.564  0.00  0.00    +0.001 A 
ATOM     31  C   UNL     1       1.648  -0.645  -4.588  0.00  0.00    +0.011 A 
ENDBRANCH  24  26
ENDBRANCH   2  24
TORSDOF 6
