REMARK  Name = ZINC63663943
REMARK  9 active torsions:
REMARK  status: ('A' for Active; 'I' for Inactive)
REMARK    1  A    between atoms: C_1  and  C_2
REMARK    2  A    between atoms: C_4  and  C_13
REMARK    3  A    between atoms: C_13  and  C_14
REMARK    4  A    between atoms: C_14  and  N_15
REMARK    5  A    between atoms: N_15  and  C_16
REMARK    6  A    between atoms: C_16  and  N_18
REMARK    7  A    between atoms: N_18  and  C_19
REMARK    8  A    between atoms: C_22  and  O_25
REMARK    9  A    between atoms: O_25  and  C_26
REMARK                            x       y       z     vdW  Elec       q    Type
REMARK                         _______ _______ _______ _____ _____    ______ ____
ROOT
ATOM      1  N   UNL     1       1.097  -0.471  -5.011  0.00  0.00    -0.326 N 
ATOM      2  H   UNL     1       0.225  -0.105  -5.226  0.00  0.00    +0.148 HD
ENDROOT
BRANCH   1   3
ATOM      3  C   UNL     1       1.861  -1.008  -5.983  0.00  0.00    +0.135 C 
ATOM      4  S   UNL     1       3.400  -1.654  -5.603  0.00  0.00    -0.019 S 
BRANCH   3   5
ATOM      5  N   UNL     1       1.414  -1.035  -7.254  0.00  0.00    -0.297 N 
ATOM      6  H   UNL     1       0.511  -0.743  -7.457  0.00  0.00    +0.154 HD
BRANCH   5   7
ATOM      7  C   UNL     1       2.252  -1.486  -8.282  0.00  0.00    +0.033 A 
ATOM      8  C   UNL     1       1.747  -2.308  -9.280  0.00  0.00    +0.027 A 
ATOM      9  C   UNL     1       2.574  -2.751 -10.293  0.00  0.00    +0.048 A 
ATOM     10  C   UNL     1       3.909  -2.376 -10.314  0.00  0.00    +0.130 A 
ATOM     11  C   UNL     1       4.415  -1.554  -9.317  0.00  0.00    +0.048 A 
ATOM     12  C   UNL     1       3.587  -1.105  -8.306  0.00  0.00    +0.027 A 
BRANCH  10  13
ATOM     13  O   UNL     1       4.723  -2.813 -11.312  0.00  0.00    -0.406 OA
BRANCH  13  14
ATOM     14  C   UNL     1       6.086  -2.387 -11.270  0.00  0.00    +0.575 C 
ATOM     15  F   UNL     1       6.677  -2.829 -10.082  0.00  0.00    -0.133 F 
ATOM     16  F   UNL     1       6.776  -2.924 -12.363  0.00  0.00    -0.133 F 
ATOM     17  F   UNL     1       6.140  -0.990 -11.326  0.00  0.00    -0.133 F 
ENDBRANCH  13  14
ENDBRANCH  10  13
ENDBRANCH   5   7
ENDBRANCH   3   5
ENDBRANCH   1   3
BRANCH   1  18
ATOM     18  C   UNL     1       1.583  -0.441  -3.629  0.00  0.00    +0.107 C 
BRANCH  18  19
ATOM     19  C   UNL     1       0.531   0.215  -2.733  0.00  0.00    +0.052 C 
BRANCH  19  22
ATOM     20  C   UNL     1       0.041   2.300  -0.299  0.00  0.00    +0.035 C 
ATOM     21  C   UNL     1       0.310   0.806  -0.106  0.00  0.00    +0.103 C 
ATOM     22  C   UNL     1       1.031   0.246  -1.312  0.00  0.00    -0.037 C 
ATOM     23  C   UNL     1       2.215  -0.222  -0.856  0.00  0.00    +0.002 A 
ATOM     24  C   UNL     1       3.349  -0.874  -1.522  0.00  0.00    +0.048 A 
ATOM     25  C   UNL     1       4.423  -1.238  -0.783  0.00  0.00    +0.124 A 
ATOM     26  C   UNL     1       4.479  -1.008   0.600  0.00  0.00    +0.040 A 
ATOM     27  C   UNL     1       3.477  -0.414   1.281  0.00  0.00    +0.029 A 
ATOM     28  C   UNL     1       2.300   0.009   0.604  0.00  0.00    +0.043 A 
ATOM     29  N   UNL     1       1.208   0.597   1.035  0.00  0.00    -0.378 N 
ATOM     30  F   UNL     1       5.468  -1.839  -1.393  0.00  0.00    -0.205 F 
ATOM     31  H   UNL     1       1.026   0.852   1.953  0.00  0.00    +0.160 HD
ENDBRANCH  19  22
ENDBRANCH  18  19
ENDBRANCH   1  18
TORSDOF 8
