REMARK  Name = ZINC36610450
REMARK  17 active torsions:
REMARK  status: ('A' for Active; 'I' for Inactive)
REMARK    1  A    between atoms: C_1  and  C_2
REMARK    2  A    between atoms: C_2  and  C_3
REMARK    3  A    between atoms: C_2  and  C_4
REMARK    4  A    between atoms: C_2  and  C_5
REMARK    5  A    between atoms: C_5  and  C_6
REMARK    6  A    between atoms: C_6  and  C_7
REMARK    7  A    between atoms: C_6  and  C_8
REMARK    8  A    between atoms: C_6  and  N_9
REMARK    9  A    between atoms: C_10  and  C_12
REMARK   10  A    between atoms: C_12  and  C_14
REMARK   11  A    between atoms: C_12  and  N_22
REMARK   12  A    between atoms: C_17  and  O_20
REMARK   13  A    between atoms: O_20  and  C_21
REMARK   14  A    between atoms: N_22  and  C_23
REMARK   15  A    between atoms: C_29  and  C_31
REMARK   16  A    between atoms: C_35  and  O_38
REMARK   17  A    between atoms: C_36  and  O_37
REMARK                            x       y       z     vdW  Elec       q    Type
REMARK                         _______ _______ _______ _____ _____    ______ ____
ROOT
ATOM      1  C   UNL     1       5.161   0.287  -4.006  0.00  0.00    +0.197 C 
ENDROOT
BRANCH   1   2
ATOM      2  C   UNL     1       4.375   1.227  -4.884  0.00  0.00    -0.018 A 
ATOM      3  C   UNL     1       4.785   2.539  -5.031  0.00  0.00    +0.009 A 
ATOM      4  C   UNL     1       4.066   3.402  -5.835  0.00  0.00    +0.046 A 
ATOM      5  C   UNL     1       2.931   2.952  -6.495  0.00  0.00    +0.120 A 
ATOM      6  C   UNL     1       2.522   1.635  -6.345  0.00  0.00    +0.046 A 
ATOM      7  C   UNL     1       3.248   0.774  -5.545  0.00  0.00    +0.009 A 
BRANCH   5   8
ATOM      8  O   UNL     1       2.222   3.799  -7.285  0.00  0.00    -0.495 OA
ATOM      9  C   UNL     1       1.065   3.266  -7.934  0.00  0.00    +0.277 C 
ENDBRANCH   5   8
ENDBRANCH   1   2
BRANCH   1  11
ATOM     10  N   UNL     1       3.825   0.776  -1.983  0.00  0.00    -0.308 N 
ATOM     11  C   UNL     1       5.037   0.721  -2.568  0.00  0.00    +0.239 C 
ATOM     12  O   UNL     1       6.029   1.022  -1.938  0.00  0.00    -0.273 OA
ATOM     13  H   UNL     1       3.031   0.536  -2.487  0.00  0.00    +0.149 HD
BRANCH  10  14
ATOM     14  C   UNL     1       3.705   1.198  -0.585  0.00  0.00    +0.030 C 
ATOM     15  C   UNL     1       4.553   2.450  -0.355  0.00  0.00    +0.031 C 
ATOM     16  C   UNL     1       4.195   0.075   0.331  0.00  0.00    +0.031 C 
BRANCH  14  17
ATOM     17  C   UNL     1       2.240   1.509  -0.270  0.00  0.00    +0.031 C 
BRANCH  17  19
ATOM     18  C   UNL     1       1.261   1.397  -2.566  0.00  0.00    +0.010 C 
ATOM     19  C   UNL     1       1.636   2.329  -1.412  0.00  0.00    -0.036 C 
ATOM     20  C   UNL     1       2.660   3.356  -1.900  0.00  0.00    +0.010 C 
ATOM     21  C   UNL     1       0.384   3.053  -0.914  0.00  0.00    +0.010 C 
ENDBRANCH  17  19
ENDBRANCH  14  17
ENDBRANCH  10  14
ENDBRANCH   1  11
BRANCH   1  22
ATOM     22  N   UNL     1       6.571   0.312  -4.404  0.00  0.00    -0.251 N 
ATOM     23  C   UNL     1       7.463  -0.474  -3.771  0.00  0.00    +0.255 C 
ATOM     24  O   UNL     1       8.655  -0.300  -3.940  0.00  0.00    -0.269 OA
BRANCH  22  25
ATOM     25  C   UNL     1       6.990   1.151  -5.442  0.00  0.00    +0.038 A 
ATOM     26  C   UNL     1       7.886   2.180  -5.185  0.00  0.00    +0.023 A 
ATOM     27  C   UNL     1       8.298   3.007  -6.212  0.00  0.00    +0.002 A 
ATOM     28  C   UNL     1       7.819   2.811  -7.494  0.00  0.00    +0.000 A 
ATOM     29  C   UNL     1       6.926   1.787  -7.753  0.00  0.00    +0.002 A 
ATOM     30  C   UNL     1       6.515   0.953  -6.732  0.00  0.00    +0.023 A 
ENDBRANCH  22  25
BRANCH  23  31
ATOM     31  C   UNL     1       6.995  -1.547  -2.872  0.00  0.00    +0.082 A 
ATOM     32  C   UNL     1       5.648  -1.618  -2.506  0.00  0.00    +0.017 A 
ATOM     33  C   UNL     1       5.214  -2.621  -1.667  0.00  0.00    +0.005 A 
ATOM     34  C   UNL     1       6.108  -3.562  -1.181  0.00  0.00    +0.049 A 
ATOM     35  C   UNL     1       7.445  -3.505  -1.535  0.00  0.00    +0.159 A 
ATOM     36  C   UNL     1       7.897  -2.501  -2.386  0.00  0.00    +0.171 A 
BRANCH  36  37
ATOM     37  O   UNL     1       9.206  -2.445  -2.740  0.00  0.00    -0.503 OA
ATOM     38  H   UNL     1       9.752  -1.915  -2.143  0.00  0.00    +0.292 HD
ENDBRANCH  36  37
BRANCH  35  39
ATOM     39  O   UNL     1       8.316  -4.432  -1.054  0.00  0.00    -0.503 OA
ATOM     40  H   UNL     1       8.405  -5.215  -1.614  0.00  0.00    +0.292 HD
ENDBRANCH  35  39
ENDBRANCH  23  31
ENDBRANCH   1  22
TORSDOF 11
