REMARK  Name = ZINC09595430
REMARK  6 active torsions:
REMARK  status: ('A' for Active; 'I' for Inactive)
REMARK    1  A    between atoms: C_6  and  S_7
REMARK    2  A    between atoms: S_7  and  N_10
REMARK    3  A    between atoms: C_15  and  C_16
REMARK    4  A    between atoms: C_15  and  N_61
REMARK    5  A    between atoms: N_18  and  C_19
REMARK    6  A    between atoms: C_20  and  C_27
REMARK                            x       y       z     vdW  Elec       q    Type
REMARK                         _______ _______ _______ _____ _____    ______ ____
ROOT
ATOM      1  N   UNL     1      -3.058   0.398   1.609  0.00  0.00    -0.180 NA
ATOM      2  C   UNL     1      -2.835  -0.809   2.421  0.00  0.00    +0.091 C 
ATOM      3  C   UNL     1      -2.164  -0.387   3.738  0.00  0.00    -0.061 C 
ATOM      4  C   UNL     1      -3.045   1.865   3.556  0.00  0.00    -0.061 C 
ATOM      5  C   UNL     1      -3.746   1.538   2.233  0.00  0.00    +0.091 C 
ATOM      6  N   UNL     1      -3.005   0.642   4.387  0.00  0.00    +0.387 N 
ATOM      7  H   UNL     1      -3.959   0.278   4.489  0.00  0.00    -0.081 HD
ENDROOT
BRANCH   1   8
ATOM      8  S   UNL     1      -2.554   0.468   0.034  0.00  0.00    +0.061 S 
ATOM      9  O   UNL     1      -3.368   1.438  -0.610  0.00  0.00    -0.153 OA
ATOM     10  O   UNL     1      -2.463  -0.875  -0.424  0.00  0.00    -0.153 OA
BRANCH   8  16
ATOM     11  C   UNL     1       0.165   0.251   0.131  0.00  0.00    +0.029 A 
ATOM     12  C   UNL     1       1.451   0.756   0.130  0.00  0.00    +0.006 A 
ATOM     13  C   UNL     1       1.663   2.121   0.042  0.00  0.00    -0.044 A 
ATOM     14  C   UNL     1       0.584   2.981  -0.044  0.00  0.00    -0.042 A 
ATOM     15  C   UNL     1      -0.704   2.473  -0.042  0.00  0.00    +0.032 A 
ATOM     16  C   UNL     1      -0.913   1.110   0.040  0.00  0.00    +0.106 A 
ATOM     17  C   UNL     1       1.074   4.410  -0.130  0.00  0.00    +0.036 C 
ATOM     18  C   UNL     1       2.562   4.304  -0.526  0.00  0.00    +0.009 C 
ATOM     19  C   UNL     1       2.952   2.914   0.020  0.00  0.00    +0.036 C 
ENDBRANCH   8  16
ENDBRANCH   1   8
BRANCH   6  20
ATOM     20  C   UNL     1      -2.467   0.961   5.726  0.00  0.00    +0.019 C 
BRANCH  20  21
ATOM     21  C   UNL     1      -1.042   1.441   5.626  0.00  0.00    +0.201 C 
ATOM     22  O   UNL     1      -0.537   1.616   4.537  0.00  0.00    -0.278 OA
ATOM     23  N   UNL     1      -0.329   1.675   6.745  0.00  0.00    -0.281 N 
ATOM     24  H   UNL     1      -0.734   1.535   7.616  0.00  0.00    +0.155 HD
BRANCH  23  25
ATOM     25  C   UNL     1       0.982   2.117   6.652  0.00  0.00    +0.084 A 
ATOM     26  C   UNL     1       1.864   2.414   7.677  0.00  0.00    +0.068 A 
ATOM     27  C   UNL     1       3.206   2.862   7.307  0.00  0.00    -0.023 A 
ATOM     28  C   UNL     1       3.435   2.945   5.984  0.00  0.00    -0.004 A 
ATOM     29  S   UNL     1       1.911   2.437   5.228  0.00  0.00    -0.077 S 
ATOM     30  C   UNL     1       4.833   3.414   5.682  0.00  0.00    +0.043 C 
ATOM     31  C   UNL     1       5.607   3.206   7.003  0.00  0.00    +0.010 C 
ATOM     32  C   UNL     1       4.475   3.287   8.046  0.00  0.00    +0.037 C 
BRANCH  26  33
ATOM     33  C   UNL     1       1.468   2.282   9.083  0.00  0.00    +0.244 C 
ATOM     34  O   UNL     1       1.641   1.228   9.667  0.00  0.00    -0.270 OA
ATOM     35  N   UNL     1       0.913   3.327   9.728  0.00  0.00    -0.325 N 
ATOM     36  H   UNL     1       0.775   4.167   9.262  0.00  0.00    +0.145 HD
ATOM     37  H   UNL     1       0.651   3.240  10.658  0.00  0.00    +0.145 HD
ENDBRANCH  26  33
ENDBRANCH  23  25
ENDBRANCH  20  21
ENDBRANCH   6  20
TORSDOF 6
