REMARK  Name = ZINC36629246
REMARK  12 active torsions:
REMARK  status: ('A' for Active; 'I' for Inactive)
REMARK    1  A    between atoms: C_1  and  C_2
REMARK    2  A    between atoms: C_2  and  C_3
REMARK    3  A    between atoms: C_3  and  N_4
REMARK    4  A    between atoms: C_10  and  N_15
REMARK    5  A    between atoms: C_11  and  C_12
REMARK    6  A    between atoms: C_16  and  C_18
REMARK    7  A    between atoms: C_21  and  O_27
REMARK    8  A    between atoms: C_22  and  O_24
REMARK    9  A    between atoms: O_24  and  C_25
REMARK   10  A    between atoms: C_25  and  C_26
REMARK   11  A    between atoms: O_27  and  C_28
REMARK   12  A    between atoms: C_28  and  C_29
REMARK                            x       y       z     vdW  Elec       q    Type
REMARK                         _______ _______ _______ _____ _____    ______ ____
ROOT
ATOM      1  N   UNL     1       0.738  -1.966  -1.265  0.00  0.00    +0.383 N 
ATOM      2  C   UNL     1       1.532  -2.438  -2.407  0.00  0.00    -0.074 C 
ATOM      3  C   UNL     1       1.828  -3.935  -2.263  0.00  0.00    +0.018 C 
ATOM      4  C   UNL     1       0.507  -4.650  -2.013  0.00  0.00    -0.027 A 
ATOM      5  C   UNL     1      -0.580  -3.951  -1.616  0.00  0.00    -0.021 A 
ATOM      6  S   UNL     1      -1.856  -5.162  -1.455  0.00  0.00    -0.079 S 
ATOM      7  C   UNL     1      -0.999  -6.541  -1.889  0.00  0.00    +0.085 A 
ATOM      8  C   UNL     1       0.279  -6.074  -2.162  0.00  0.00    +0.068 A 
ATOM      9  C   UNL     1      -0.641  -2.475  -1.376  0.00  0.00    -0.035 C 
ATOM     10  H   UNL     1       1.152  -2.301  -0.408  0.00  0.00    -0.081 HD
ENDROOT
BRANCH   8  11
ATOM     11  C   UNL     1       1.351  -6.981  -2.584  0.00  0.00    +0.244 C 
ATOM     12  O   UNL     1       2.066  -7.506  -1.751  0.00  0.00    -0.270 OA
ATOM     13  N   UNL     1       1.544  -7.232  -3.894  0.00  0.00    -0.325 N 
ATOM     14  H   UNL     1       0.974  -6.813  -4.558  0.00  0.00    +0.145 HD
ATOM     15  H   UNL     1       2.253  -7.832  -4.173  0.00  0.00    +0.145 HD
ENDBRANCH   8  11
BRANCH   7  16
ATOM     16  N   UNL     1      -1.462  -7.845  -1.957  0.00  0.00    -0.275 N 
ATOM     17  C   UNL     1      -2.745  -8.121  -1.654  0.00  0.00    +0.249 C 
ATOM     18  O   UNL     1      -3.498  -7.226  -1.320  0.00  0.00    -0.270 OA
ATOM     19  H   UNL     1      -0.862  -8.559  -2.224  0.00  0.00    +0.156 HD
BRANCH  17  20
ATOM     20  C   UNL     1      -3.238  -9.510  -1.727  0.00  0.00    +0.041 A 
ATOM     21  C   UNL     1      -2.374 -10.541  -2.105  0.00  0.00    +0.017 A 
ATOM     22  C   UNL     1      -2.836 -11.837  -2.173  0.00  0.00    +0.050 A 
ATOM     23  C   UNL     1      -4.159 -12.123  -1.867  0.00  0.00    +0.162 A 
ATOM     24  C   UNL     1      -5.027 -11.099  -1.489  0.00  0.00    +0.163 A 
ATOM     25  C   UNL     1      -4.569  -9.798  -1.413  0.00  0.00    +0.062 A 
BRANCH  24  26
ATOM     26  O   UNL     1      -6.323 -11.382  -1.190  0.00  0.00    -0.489 OA
BRANCH  26  27
ATOM     27  C   UNL     1      -7.156 -10.285  -0.811  0.00  0.00    +0.226 C 
ATOM     28  C   UNL     1      -8.568 -10.795  -0.515  0.00  0.00    +0.048 C 
ENDBRANCH  26  27
ENDBRANCH  24  26
BRANCH  23  29
ATOM     29  O   UNL     1      -4.610 -13.402  -1.936  0.00  0.00    -0.489 OA
BRANCH  29  30
ATOM     30  C   UNL     1      -3.667 -14.401  -2.330  0.00  0.00    +0.226 C 
ATOM     31  C   UNL     1      -4.353 -15.769  -2.350  0.00  0.00    +0.048 C 
ENDBRANCH  29  30
ENDBRANCH  23  29
ENDBRANCH  17  20
ENDBRANCH   7  16
BRANCH   1  32
ATOM     32  C   UNL     1       0.718  -0.497  -1.257  0.00  0.00    -0.079 C 
BRANCH  32  34
ATOM     33  C   UNL     1      -0.019   1.526   0.010  0.00  0.00    +0.002 C 
ATOM     34  C   UNL     1       0.002  -0.004   0.002  0.00  0.00    -0.022 C 
ENDBRANCH  32  34
ENDBRANCH   1  32
TORSDOF 9
