REMARK  Name = ZINC02891118
REMARK  8 active torsions:
REMARK  status: ('A' for Active; 'I' for Inactive)
REMARK    1  A    between atoms: C_1  and  O_2
REMARK    2  A    between atoms: O_2  and  C_3
REMARK    3  A    between atoms: C_5  and  C_15
REMARK    4  A    between atoms: C_8  and  O_9
REMARK    5  A    between atoms: O_9  and  C_10
REMARK    6  A    between atoms: C_10  and  C_11
REMARK    7  A    between atoms: C_15  and  N_44
REMARK    8  A    between atoms: C_16  and  N_44
REMARK                            x       y       z     vdW  Elec       q    Type
REMARK                         _______ _______ _______ _____ _____    ______ ____
ROOT
ATOM      1  C   UNL     1      -0.561   0.005   2.998  0.00  0.00    +0.163 A 
ATOM      2  C   UNL     1      -0.011  -0.365   4.215  0.00  0.00    +0.051 A 
ATOM      3  C   UNL     1       0.938   0.440   4.818  0.00  0.00    -0.060 A 
ATOM      4  C   UNL     1       1.344   1.612   4.207  0.00  0.00    +0.020 A 
ATOM      5  C   UNL     1       0.803   1.984   2.991  0.00  0.00    +0.059 A 
ATOM      6  C   UNL     1      -0.148   1.182   2.381  0.00  0.00    +0.176 A 
ATOM      7  I   UNL     1       1.421   3.762   2.070  0.00  0.00    -0.040 I 
ENDROOT
BRANCH   1   9
ATOM      8  C   UNL     1      -1.873  -1.976   3.098  0.00  0.00    +0.277 C 
ATOM      9  O   UNL     1      -1.498  -0.782   2.406  0.00  0.00    -0.491 OA
ENDBRANCH   1   9
BRANCH   6  10
ATOM     10  O   UNL     1      -0.682   1.547   1.184  0.00  0.00    -0.478 OA
BRANCH  10  11
ATOM     11  C   UNL     1      -0.013   1.086   0.008  0.00  0.00    +0.324 C 
BRANCH  11  12
ATOM     12  C   UNL     1      -0.742   1.585  -1.213  0.00  0.00    +0.248 C 
ATOM     13  O   UNL     1      -1.736   2.268  -1.088  0.00  0.00    -0.272 OA
ATOM     14  N   UNL     1      -0.288   1.272  -2.443  0.00  0.00    -0.327 N 
ATOM     15  H   UNL     1       0.507   0.726  -2.543  0.00  0.00    +0.145 HD
ATOM     16  H   UNL     1      -0.758   1.594  -3.229  0.00  0.00    +0.145 HD
ENDBRANCH  11  12
ENDBRANCH  10  11
ENDBRANCH   6  10
BRANCH   3  17
ATOM     17  C   UNL     1       1.530   0.038   6.144  0.00  0.00    -0.046 C 
BRANCH  17  18
ATOM     18  N   UNL     1       0.710   0.605   7.232  0.00  0.00    +0.384 N 
ATOM     19  H   UNL     1      -0.249   0.246   7.155  0.00  0.00    -0.085 HD
ATOM     20  H   UNL     1       0.699   1.629   7.150  0.00  0.00    -0.085 HD
BRANCH  18  21
ATOM     21  C   UNL     1       1.267   0.228   8.544  0.00  0.00    -0.071 C 
ATOM     22  C   UNL     1       0.738  -1.150   8.947  0.00  0.00    -0.016 C 
ATOM     23  C   UNL     1       1.309  -1.537  10.312  0.00  0.00    -0.002 C 
ATOM     24  C   UNL     1       0.883  -0.502  11.355  0.00  0.00    -0.000 C 
ATOM     25  C   UNL     1       1.413   0.876  10.953  0.00  0.00    -0.002 C 
ATOM     26  C   UNL     1       0.841   1.263   9.587  0.00  0.00    -0.016 C 
ENDBRANCH  18  21
ENDBRANCH  17  18
ENDBRANCH   3  17
TORSDOF 7
