REMARK  Name = ZINC33120522
REMARK  4 active torsions:
REMARK  status: ('A' for Active; 'I' for Inactive)
REMARK    1  A    between atoms: C_1  and  C_2
REMARK    2  A    between atoms: C_2  and  C_4
REMARK    3  A    between atoms: C_2  and  N_15
REMARK    4  A    between atoms: C_16  and  C_18
REMARK                            x       y       z     vdW  Elec       q    Type
REMARK                         _______ _______ _______ _____ _____    ______ ____
ROOT
ATOM      1  C   UNL     1      -0.019   1.526   0.010  0.00  0.00    +0.033 C 
ATOM      2  C   UNL     1       0.002  -0.004   0.002  0.00  0.00    +0.100 C 
ENDROOT
BRANCH   2   3
ATOM      3  C   UNL     1       0.731  -0.503   1.223  0.00  0.00    -0.025 A 
ATOM      4  C   UNL     1       2.114  -0.513   1.244  0.00  0.00    +0.009 A 
ATOM      5  C   UNL     1       2.790  -0.968   2.362  0.00  0.00    +0.048 A 
ATOM      6  C   UNL     1       2.081  -1.417   3.462  0.00  0.00    +0.142 A 
ATOM      7  C   UNL     1       0.687  -1.408   3.440  0.00  0.00    +0.076 A 
ATOM      8  C   UNL     1       0.015  -0.945   2.321  0.00  0.00    +0.032 A 
ATOM      9  N   UNL     1      -0.020  -1.868   4.560  0.00  0.00    -0.280 N 
ATOM     10  C   UNL     1       0.634  -2.008   5.734  0.00  0.00    +0.255 C 
ATOM     11  O   UNL     1       0.051  -2.433   6.709  0.00  0.00    -0.272 OA
ATOM     12  C   UNL     1       2.091  -1.634   5.827  0.00  0.00    +0.325 C 
ATOM     13  O   UNL     1       2.729  -1.867   4.569  0.00  0.00    -0.481 OA
ATOM     14  H   UNL     1      -0.964  -2.081   4.494  0.00  0.00    +0.155 HD
ENDBRANCH   2   3
BRANCH   2  15
ATOM     15  N   UNL     1       0.688  -0.476  -1.203  0.00  0.00    -0.305 N 
ATOM     16  C   UNL     1       0.006  -0.608  -2.358  0.00  0.00    +0.245 C 
ATOM     17  O   UNL     1      -1.178  -0.335  -2.400  0.00  0.00    -0.270 OA
ATOM     18  H   UNL     1       1.632  -0.695  -1.170  0.00  0.00    +0.150 HD
BRANCH  16  19
ATOM     19  C   UNL     1       0.697  -1.084  -3.573  0.00  0.00    +0.037 A 
ATOM     20  C   UNL     1       2.057  -1.405  -3.530  0.00  0.00    +0.016 A 
ATOM     21  C   UNL     1       2.697  -1.853  -4.660  0.00  0.00    +0.046 A 
ATOM     22  C   UNL     1       2.000  -1.990  -5.862  0.00  0.00    +0.124 A 
ATOM     23  C   UNL     1       0.648  -1.661  -5.900  0.00  0.00    -0.002 A 
ATOM     24  C   UNL     1      -0.005  -1.223  -4.774  0.00  0.00    +0.020 A 
ATOM     25  C   UNL     1       0.177  -1.885  -7.325  0.00  0.00    +0.080 C 
ATOM     26  C   UNL     1       1.517  -1.983  -8.092  0.00  0.00    +0.234 C 
ATOM     27  O   UNL     1       2.435  -2.421  -7.076  0.00  0.00    -0.491 OA
ENDBRANCH  16  19
ENDBRANCH   2  15
TORSDOF 3
