REMARK  Name = ZINC10041500
REMARK  13 active torsions:
REMARK  status: ('A' for Active; 'I' for Inactive)
REMARK    1  A    between atoms: C_1  and  C_2
REMARK    2  A    between atoms: C_2  and  C_3
REMARK    3  A    between atoms: C_2  and  C_4
REMARK    4  A    between atoms: C_4  and  C_6
REMARK    5  A    between atoms: C_4  and  N_24
REMARK    6  A    between atoms: N_8  and  N_9
REMARK    7  A    between atoms: C_10  and  C_11
REMARK    8  A    between atoms: C_15  and  O_22
REMARK    9  A    between atoms: C_16  and  O_17
REMARK   10  A    between atoms: O_17  and  C_18
REMARK   11  A    between atoms: C_18  and  C_19
REMARK   12  A    between atoms: O_22  and  C_23
REMARK   13  A    between atoms: C_25  and  C_27
REMARK                            x       y       z     vdW  Elec       q    Type
REMARK                         _______ _______ _______ _____ _____    ______ ____
ROOT
ATOM      1  C   UNL     1      -1.424  -1.914  -0.624  0.00  0.00    +0.253 C 
ATOM      2  O   UNL     1      -0.451  -2.234  -1.274  0.00  0.00    -0.272 OA
ATOM      3  N   UNL     1      -2.492  -2.733  -0.562  0.00  0.00    -0.205 N 
ATOM      4  H   UNL     1      -3.295  -2.449  -0.099  0.00  0.00    +0.177 HD
ENDROOT
BRANCH   3   5
ATOM      5  N   UNL     1      -2.443  -3.995  -1.169  0.00  0.00    -0.188 NA
ATOM      6  C   UNL     1      -3.471  -4.784  -1.110  0.00  0.00    +0.142 C 
BRANCH   6   7
ATOM      7  C   UNL     1      -3.420  -6.112  -1.748  0.00  0.00    +0.040 A 
ATOM      8  C   UNL     1      -4.526  -6.965  -1.686  0.00  0.00    +0.013 A 
ATOM      9  C   UNL     1      -4.473  -8.206  -2.284  0.00  0.00    +0.004 A 
ATOM     10  C   UNL     1      -3.328  -8.614  -2.947  0.00  0.00    +0.049 A 
ATOM     11  C   UNL     1      -2.224  -7.779  -3.016  0.00  0.00    +0.162 A 
ATOM     12  C   UNL     1      -2.264  -6.523  -2.423  0.00  0.00    +0.171 A 
BRANCH  11  13
ATOM     13  O   UNL     1      -1.103  -8.188  -3.669  0.00  0.00    -0.491 OA
ATOM     14  C   UNL     1      -1.134  -9.488  -4.261  0.00  0.00    +0.277 C 
ENDBRANCH  11  13
BRANCH  12  15
ATOM     15  O   UNL     1      -1.185  -5.700  -2.493  0.00  0.00    -0.478 OA
BRANCH  15  16
ATOM     16  C   UNL     1      -0.217  -5.808  -1.448  0.00  0.00    +0.324 C 
BRANCH  16  17
ATOM     17  C   UNL     1       0.898  -4.825  -1.692  0.00  0.00    +0.248 C 
ATOM     18  O   UNL     1       0.868  -4.104  -2.667  0.00  0.00    -0.272 OA
ATOM     19  N   UNL     1       1.930  -4.748  -0.829  0.00  0.00    -0.327 N 
ATOM     20  H   UNL     1       1.955  -5.325  -0.050  0.00  0.00    +0.145 HD
ATOM     21  H   UNL     1       2.649  -4.116  -0.987  0.00  0.00    +0.145 HD
ENDBRANCH  16  17
ENDBRANCH  15  16
ENDBRANCH  12  15
ENDBRANCH   6   7
ENDBRANCH   3   5
BRANCH   1  22
ATOM     22  C   UNL     1      -1.438  -0.601   0.115  0.00  0.00    +0.163 C 
BRANCH  22  23
ATOM     23  N   UNL     1      -0.531   0.342  -0.546  0.00  0.00    -0.300 N 
ATOM     24  C   UNL     1      -0.727   1.669  -0.416  0.00  0.00    +0.245 C 
ATOM     25  O   UNL     1      -1.659   2.084   0.245  0.00  0.00    -0.270 OA
ATOM     26  H   UNL     1       0.210   0.010  -1.076  0.00  0.00    +0.150 HD
BRANCH  24  27
ATOM     27  C   UNL     1       0.188   2.619  -1.083  0.00  0.00    +0.038 A 
ATOM     28  C   UNL     1       1.259   2.145  -1.843  0.00  0.00    +0.014 A 
ATOM     29  C   UNL     1       2.106   3.036  -2.467  0.00  0.00    +0.022 A 
ATOM     30  C   UNL     1       1.903   4.399  -2.332  0.00  0.00    +0.059 A 
ATOM     31  C   UNL     1       0.845   4.877  -1.575  0.00  0.00    +0.060 A 
ATOM     32  C   UNL     1      -0.013   3.994  -0.950  0.00  0.00    +0.034 A 
ATOM     33 CL   UNL     1       0.598   6.587  -1.413  0.00  0.00    -0.082 Cl
ATOM     34 CL   UNL     1       2.979   5.514  -3.115  0.00  0.00    -0.082 Cl
ENDBRANCH  24  27
ENDBRANCH  22  23
BRANCH  22  36
ATOM     35  C   UNL     1      -1.059   0.498   2.327  0.00  0.00    +0.009 C 
ATOM     36  C   UNL     1      -0.980  -0.822   1.558  0.00  0.00    +0.012 C 
ATOM     37  C   UNL     1      -1.887  -1.857   2.228  0.00  0.00    +0.009 C 
ENDBRANCH  22  36
ENDBRANCH   1  22
TORSDOF 10
