REMARK  Name = ZINC33326681
REMARK  7 active torsions:
REMARK  status: ('A' for Active; 'I' for Inactive)
REMARK    1  A    between atoms: C_1  and  C_2
REMARK    2  A    between atoms: C_6  and  N_8
REMARK    3  A    between atoms: N_8  and  C_9
REMARK    4  A    between atoms: N_8  and  C_10
REMARK    5  A    between atoms: N_11  and  C_12
REMARK    6  A    between atoms: C_15  and  N_18
REMARK    7  A    between atoms: N_21  and  C_22
REMARK                            x       y       z     vdW  Elec       q    Type
REMARK                         _______ _______ _______ _____ _____    ______ ____
ROOT
ATOM      1  C   UNL     1       5.982  11.216  -0.326  0.00  0.00    +0.032 A 
ATOM      2  C   UNL     1       4.704  11.723  -0.519  0.00  0.00    +0.025 A 
ATOM      3  C   UNL     1       3.637  10.863  -0.680  0.00  0.00    +0.025 A 
ATOM      4  C   UNL     1       3.841   9.490  -0.650  0.00  0.00    +0.035 A 
ATOM      5  C   UNL     1       5.118   8.982  -0.452  0.00  0.00    +0.025 A 
ATOM      6  C   UNL     1       6.187   9.842  -0.295  0.00  0.00    +0.025 A 
ENDROOT
BRANCH   1  14
ATOM      7  C   UNL     1      11.280  13.191   1.837  0.00  0.00    +0.086 C 
ATOM      8  C   UNL     1      10.038  12.337   1.802  0.00  0.00    +0.107 A 
ATOM      9  N   UNL     1       9.129  12.569   0.877  0.00  0.00    -0.332 N 
ATOM     10  C   UNL     1       8.018  11.837   0.812  0.00  0.00    +0.105 A 
ATOM     11  C   UNL     1       7.825  10.819   1.742  0.00  0.00    +0.085 A 
ATOM     12  C   UNL     1       8.813  10.604   2.698  0.00  0.00    +0.126 A 
ATOM     13  N   UNL     1       9.895  11.380   2.696  0.00  0.00    -0.219 NA
ATOM     14  N   UNL     1       7.065  12.088  -0.164  0.00  0.00    -0.301 N 
ATOM     15  H   UNL     1       7.160  12.974  -0.809  0.00  0.00    +0.154 HD
ATOM     16  H   UNL     1       9.281  13.377   0.146  0.00  0.00    +0.168 HD
BRANCH  12  17
ATOM     17  N   UNL     1       8.670   9.599   3.643  0.00  0.00    -0.321 N 
ATOM     18  C   UNL     1       7.530   8.681   3.570  0.00  0.00    +0.130 C 
ATOM     19  C   UNL     1       9.659   9.456   4.714  0.00  0.00    +0.130 C 
ENDBRANCH  12  17
ENDBRANCH   1  14
BRANCH   4  20
ATOM     20  N   UNL     1       2.758   8.616  -0.814  0.00  0.00    -0.269 N 
ATOM     21  C   UNL     1       1.755   8.936  -1.656  0.00  0.00    +0.308 C 
ATOM     22  O   UNL     1       1.834   9.937  -2.342  0.00  0.00    -0.252 OA
ATOM     23  N   UNL     1       0.666   8.147  -1.738  0.00  0.00    -0.269 N 
ATOM     24  H   UNL     1       2.725   7.670  -0.254  0.00  0.00    +0.156 HD
ATOM     25  H   UNL     1       0.556   7.290  -1.058  0.00  0.00    +0.156 HD
BRANCH  23  26
ATOM     26  C   UNL     1      -0.324   8.417  -2.689  0.00  0.00    +0.035 A 
ATOM     27  C   UNL     1       0.042   8.890  -3.955  0.00  0.00    +0.024 A 
ATOM     28  C   UNL     1      -0.898   9.160  -4.898  0.00  0.00    +0.010 A 
ATOM     29  C   UNL     1      -2.260   8.966  -4.606  0.00  0.00    -0.018 A 
ATOM     30  C   UNL     1      -3.253   9.238  -5.562  0.00  0.00    +0.008 A 
ATOM     31  C   UNL     1      -4.563   9.039  -5.248  0.00  0.00    +0.001 A 
ATOM     32  C   UNL     1      -4.936   8.574  -3.988  0.00  0.00    +0.001 A 
ATOM     33  C   UNL     1      -4.002   8.295  -3.039  0.00  0.00    +0.008 A 
ATOM     34  C   UNL     1      -2.639   8.488  -3.327  0.00  0.00    -0.016 A 
ATOM     35  C   UNL     1      -1.648   8.215  -2.370  0.00  0.00    +0.031 A 
ENDBRANCH  23  26
ENDBRANCH   4  20
TORSDOF 4
