REMARK  Name = ZINC27271987
REMARK  17 active torsions:
REMARK  status: ('A' for Active; 'I' for Inactive)
REMARK    1  A    between atoms: C_1  and  C_2
REMARK    2  A    between atoms: C_4  and  S_24
REMARK    3  A    between atoms: C_6  and  N_9
REMARK    4  A    between atoms: C_7  and  C_8
REMARK    5  A    between atoms: C_10  and  C_12
REMARK    6  A    between atoms: C_12  and  N_13
REMARK    7  A    between atoms: N_13  and  C_14
REMARK    8  A    between atoms: N_13  and  C_19
REMARK    9  A    between atoms: C_14  and  C_15
REMARK   10  A    between atoms: C_15  and  C_16
REMARK   11  A    between atoms: C_16  and  C_17
REMARK   12  A    between atoms: C_16  and  C_18
REMARK   13  A    between atoms: C_19  and  C_20
REMARK   14  A    between atoms: C_20  and  C_21
REMARK   15  A    between atoms: C_21  and  C_22
REMARK   16  A    between atoms: C_21  and  C_23
REMARK   17  A    between atoms: S_24  and  N_27
REMARK                            x       y       z     vdW  Elec       q    Type
REMARK                         _______ _______ _______ _____ _____    ______ ____
ROOT
ATOM      1  N   UNL     1      -3.381  -0.834   5.747  0.00  0.00    -0.287 N 
ATOM      2  C   UNL     1      -3.518  -1.791   4.808  0.00  0.00    +0.201 C 
ATOM      3  O   UNL     1      -2.849  -2.801   4.869  0.00  0.00    -0.278 OA
ATOM      4  H   UNL     1      -4.046   0.042   5.742  0.00  0.00    +0.155 HD
ENDROOT
BRANCH   1  10
ATOM      5  C   UNL     1      -0.159   1.289   8.793  0.00  0.00    +0.044 C 
ATOM      6  C   UNL     1      -0.814   0.057   8.224  0.00  0.00    -0.044 A 
ATOM      7  C   UNL     1      -0.441  -1.195   8.677  0.00  0.00    +0.032 A 
ATOM      8  C   UNL     1      -1.035  -2.328   8.153  0.00  0.00    +0.107 A 
ATOM      9  C   UNL     1      -2.011  -2.212   7.183  0.00  0.00    +0.052 A 
ATOM     10  C   UNL     1      -2.392  -0.956   6.730  0.00  0.00    +0.038 A 
ATOM     11  C   UNL     1      -1.789   0.180   7.254  0.00  0.00    -0.026 A 
ATOM     12  C   UNL     1      -2.198   1.546   6.765  0.00  0.00    +0.046 C 
BRANCH   8  13
ATOM     13  S   UNL     1      -0.552  -3.922   8.729  0.00  0.00    +0.056 S 
ATOM     14  O   UNL     1      -1.646  -4.793   8.479  0.00  0.00    -0.153 OA
ATOM     15  O   UNL     1      -0.008  -3.736  10.029  0.00  0.00    -0.153 OA
BRANCH  13  16
ATOM     16  N   UNL     1       0.692  -4.435   7.764  0.00  0.00    -0.204 NA
ATOM     17  H   UNL     1       1.024  -5.431   8.092  0.00  0.00    +0.144 HD
ATOM     18  H   UNL     1       1.530  -3.726   7.838  0.00  0.00    +0.144 HD
ENDBRANCH  13  16
ENDBRANCH   8  13
ENDBRANCH   1  10
BRANCH   2  19
ATOM     19  C   UNL     1      -4.503  -1.606   3.683  0.00  0.00    +0.019 C 
BRANCH  19  20
ATOM     20  N   UNL     1      -4.566  -2.834   2.880  0.00  0.00    +0.385 N 
ATOM     21  H   UNL     1      -3.540  -3.211   2.756  0.00  0.00    -0.081 HD
BRANCH  20  22
ATOM     22  C   UNL     1      -5.347  -3.872   3.567  0.00  0.00    -0.078 C 
BRANCH  22  23
ATOM     23  C   UNL     1      -5.185  -5.203   2.830  0.00  0.00    -0.016 C 
BRANCH  23  24
ATOM     24  C   UNL     1      -5.999  -6.284   3.545  0.00  0.00    -0.019 C 
ATOM     25  C   UNL     1      -5.938  -7.584   2.741  0.00  0.00    +0.007 C 
ATOM     26  C   UNL     1      -5.417  -6.520   4.941  0.00  0.00    +0.007 C 
ENDBRANCH  23  24
ENDBRANCH  22  23
ENDBRANCH  20  22
BRANCH  20  27
ATOM     27  C   UNL     1      -5.112  -2.563   1.544  0.00  0.00    -0.078 C 
BRANCH  27  28
ATOM     28  C   UNL     1      -4.042  -1.889   0.683  0.00  0.00    -0.016 C 
BRANCH  28  29
ATOM     29  C   UNL     1      -4.635  -1.531  -0.681  0.00  0.00    -0.019 C 
ATOM     30  C   UNL     1      -5.731  -0.479  -0.501  0.00  0.00    +0.007 C 
ATOM     31  C   UNL     1      -3.534  -0.972  -1.585  0.00  0.00    +0.007 C 
ENDBRANCH  28  29
ENDBRANCH  27  28
ENDBRANCH  20  27
ENDBRANCH  19  20
ENDBRANCH   2  19
TORSDOF 11
