REMARK  Name = ZINC15447520
REMARK  10 active torsions:
REMARK  status: ('A' for Active; 'I' for Inactive)
REMARK    1  A    between atoms: C_1  and  C_2
REMARK    2  A    between atoms: C_4  and  S_24
REMARK    3  A    between atoms: C_6  and  N_9
REMARK    4  A    between atoms: C_7  and  C_8
REMARK    5  A    between atoms: C_10  and  C_12
REMARK    6  A    between atoms: C_12  and  N_47
REMARK    7  A    between atoms: C_13  and  C_15
REMARK    8  A    between atoms: C_13  and  C_16
REMARK    9  A    between atoms: C_13  and  N_47
REMARK   10  A    between atoms: S_24  and  N_27
REMARK                            x       y       z     vdW  Elec       q    Type
REMARK                         _______ _______ _______ _____ _____    ______ ____
ROOT
ATOM      1  N   UNL     1      -3.492   0.539   3.694  0.00  0.00    -0.287 N 
ATOM      2  C   UNL     1      -3.768  -0.635   3.092  0.00  0.00    +0.200 C 
ATOM      3  O   UNL     1      -3.146  -0.973   2.108  0.00  0.00    -0.278 OA
ATOM      4  H   UNL     1      -3.945   0.780   4.518  0.00  0.00    +0.155 HD
ENDROOT
BRANCH   1  10
ATOM      5  C   UNL     1      -1.998   5.132   2.777  0.00  0.00    +0.044 C 
ATOM      6  C   UNL     1      -1.804   3.641   2.671  0.00  0.00    -0.044 A 
ATOM      7  C   UNL     1      -0.694   3.133   2.021  0.00  0.00    +0.032 A 
ATOM      8  C   UNL     1      -0.516   1.766   1.917  0.00  0.00    +0.107 A 
ATOM      9  C   UNL     1      -1.441   0.903   2.473  0.00  0.00    +0.052 A 
ATOM     10  C   UNL     1      -2.554   1.410   3.131  0.00  0.00    +0.038 A 
ATOM     11  C   UNL     1      -2.733   2.784   3.229  0.00  0.00    -0.026 A 
ATOM     12  C   UNL     1      -3.939   3.339   3.942  0.00  0.00    +0.046 C 
BRANCH   8  13
ATOM     13  S   UNL     1       0.896   1.123   1.082  0.00  0.00    +0.056 S 
ATOM     14  O   UNL     1       1.116  -0.181   1.601  0.00  0.00    -0.153 OA
ATOM     15  O   UNL     1       1.890   2.138   1.126  0.00  0.00    -0.153 OA
BRANCH  13  16
ATOM     16  N   UNL     1       0.480   0.936  -0.510  0.00  0.00    -0.204 NA
ATOM     17  H   UNL     1      -0.412   1.172  -0.809  0.00  0.00    +0.144 HD
ATOM     18  H   UNL     1       1.128   0.590  -1.143  0.00  0.00    +0.144 HD
ENDBRANCH  13  16
ENDBRANCH   8  13
ENDBRANCH   1  10
BRANCH   2  19
ATOM     19  C   UNL     1      -4.851  -1.527   3.642  0.00  0.00    +0.016 C 
BRANCH  19  20
ATOM     20  N   UNL     1      -4.950  -2.739   2.806  0.00  0.00    +0.389 N 
ATOM     21  H   UNL     1      -4.051  -3.233   2.819  0.00  0.00    -0.084 HD
ATOM     22  H   UNL     1      -5.178  -2.467   1.843  0.00  0.00    -0.084 HD
BRANCH  20  23
ATOM     23  C   UNL     1      -6.005  -3.632   3.322  0.00  0.00    -0.042 C 
ATOM     24  C   UNL     1      -5.427  -4.518   4.428  0.00  0.00    -0.009 C 
BRANCH  23  25
ATOM     25  C   UNL     1      -6.512  -4.498   2.198  0.00  0.00    -0.043 A 
ATOM     26  C   UNL     1      -5.705  -4.758   1.107  0.00  0.00    +0.005 A 
ATOM     27  C   UNL     1      -6.168  -5.557   0.078  0.00  0.00    +0.020 A 
ATOM     28  C   UNL     1      -7.444  -6.088   0.136  0.00  0.00    +0.042 A 
ATOM     29  C   UNL     1      -8.255  -5.824   1.225  0.00  0.00    +0.040 A 
ATOM     30  C   UNL     1      -7.789  -5.029   2.257  0.00  0.00    +0.044 A 
ATOM     31 CL   UNL     1      -8.805  -4.697   3.624  0.00  0.00    -0.083 Cl
ATOM     32 CL   UNL     1      -8.028  -7.086  -1.159  0.00  0.00    -0.083 Cl
ENDBRANCH  23  25
ENDBRANCH  20  23
ENDBRANCH  19  20
ENDBRANCH   2  19
TORSDOF 7
