REMARK  Name = ZINC04382060
REMARK  15 active torsions:
REMARK  status: ('A' for Active; 'I' for Inactive)
REMARK    1  A    between atoms: C_1  and  C_2
REMARK    2  A    between atoms: C_2  and  C_4
REMARK    3  A    between atoms: C_2  and  N_16
REMARK    4  A    between atoms: N_16  and  C_17
REMARK    5  A    between atoms: C_17  and  C_18
REMARK    6  A    between atoms: C_18  and  C_19
REMARK    7  A    between atoms: C_19  and  C_20
REMARK    8  A    between atoms: C_20  and  C_21
REMARK    9  A    between atoms: C_21  and  C_22
REMARK   10  A    between atoms: C_22  and  N_62
REMARK   11  A    between atoms: C_23  and  C_25
REMARK   12  A    between atoms: C_25  and  C_26
REMARK   13  A    between atoms: C_26  and  C_27
REMARK   14  A    between atoms: C_26  and  C_28
REMARK   15  A    between atoms: C_26  and  C_29
REMARK                            x       y       z     vdW  Elec       q    Type
REMARK                         _______ _______ _______ _____ _____    ______ ____
ROOT
ATOM      1  N   UNL     1      -0.715   1.994   1.187  0.00  0.00    -0.292 N 
ATOM      2  C   UNL     1      -0.202   1.773   2.413  0.00  0.00    +0.217 C 
ATOM      3  O   UNL     1      -0.827   2.100   3.400  0.00  0.00    -0.276 OA
ENDROOT
BRANCH   1   5
ATOM      4  C   UNL     1      -0.689   2.042  -1.259  0.00  0.00    +0.036 C 
ATOM      5  C   UNL     1      -0.020   1.487   0.000  0.00  0.00    +0.139 C 
BRANCH   5   6
ATOM      6  C   UNL     1      -0.089  -0.018  -0.017  0.00  0.00    +0.131 A 
ATOM      7  N   UNL     1       0.411  -0.674  -1.097  0.00  0.00    -0.309 N 
ATOM      8  H   UNL     1       0.810  -0.153  -1.852  0.00  0.00    +0.170 HD
ATOM      9  C   UNL     1       0.374  -2.025  -1.160  0.00  0.00    +0.259 A 
ATOM     10  O   UNL     1       0.818  -2.626  -2.122  0.00  0.00    -0.267 OA
ATOM     11  C   UNL     1      -0.224  -2.740  -0.023  0.00  0.00    +0.065 A 
ATOM     12  C   UNL     1      -0.310  -4.131   0.011  0.00  0.00    +0.015 A 
ATOM     13  C   UNL     1      -0.880  -4.749   1.102  0.00  0.00    +0.001 A 
ATOM     14  C   UNL     1      -1.367  -3.999   2.165  0.00  0.00    +0.002 A 
ATOM     15  C   UNL     1      -1.291  -2.624   2.151  0.00  0.00    +0.028 A 
ATOM     16  C   UNL     1      -0.718  -1.974   1.056  0.00  0.00    +0.078 A 
ATOM     17  N   UNL     1      -0.618  -0.623   1.003  0.00  0.00    -0.232 NA
ENDBRANCH   5   6
ENDBRANCH   1   5
BRANCH   1  18
ATOM     18  C   UNL     1      -1.966   2.741   1.039  0.00  0.00    +0.108 C 
BRANCH  18  19
ATOM     19  C   UNL     1      -3.147   1.769   1.078  0.00  0.00    +0.019 C 
BRANCH  19  20
ATOM     20  C   UNL     1      -4.455   2.549   0.924  0.00  0.00    +0.001 C 
BRANCH  20  21
ATOM     21  C   UNL     1      -5.636   1.578   0.963  0.00  0.00    -0.002 C 
BRANCH  21  22
ATOM     22  C   UNL     1      -6.943   2.358   0.809  0.00  0.00    -0.020 C 
BRANCH  22  23
ATOM     23  C   UNL     1      -8.124   1.386   0.848  0.00  0.00    -0.086 C 
BRANCH  23  26
ATOM     24  H   UNL     1      -9.374   2.687  -0.145  0.00  0.00    -0.090 HD
ATOM     25  H   UNL     1     -10.175   1.515   0.722  0.00  0.00    -0.090 HD
ATOM     26  N   UNL     1      -9.378   2.150   0.721  0.00  0.00    +0.378 N 
ATOM     27  H   UNL     1      -9.462   2.795   1.515  0.00  0.00    -0.090 HD
ENDBRANCH  23  26
ENDBRANCH  22  23
ENDBRANCH  21  22
ENDBRANCH  20  21
ENDBRANCH  19  20
ENDBRANCH  18  19
ENDBRANCH   1  18
BRANCH   2  28
ATOM     28  C   UNL     1       1.148   1.120   2.559  0.00  0.00    +0.102 C 
BRANCH  28  29
ATOM     29  C   UNL     1       1.544   1.091   4.037  0.00  0.00    -0.029 C 
ATOM     30  C   UNL     1       0.504   0.294   4.827  0.00  0.00    +0.011 C 
ATOM     31  C   UNL     1       2.914   0.428   4.185  0.00  0.00    +0.011 C 
ATOM     32  C   UNL     1       1.608   2.521   4.576  0.00  0.00    +0.011 C 
ENDBRANCH  28  29
ENDBRANCH   2  28
TORSDOF 11
