REMARK  Name = ZINC52094471
REMARK  4 active torsions:
REMARK  status: ('A' for Active; 'I' for Inactive)
REMARK    1  A    between atoms: C_1  and  N_2
REMARK    2  A    between atoms: N_2  and  C_3
REMARK    3  A    between atoms: C_3  and  C_5
REMARK    4  A    between atoms: C_3  and  C_18
REMARK                            x       y       z     vdW  Elec       q    Type
REMARK                         _______ _______ _______ _____ _____    ______ ____
ROOT
ATOM      1  C   UNL     1      -2.067  -0.116  -1.267  0.00  0.00    -0.043 A 
ATOM      2  C   UNL     1      -1.322   0.130  -2.404  0.00  0.00    +0.031 A 
ATOM      3  C   UNL     1      -1.958   0.494  -3.580  0.00  0.00    +0.067 A 
ATOM      4  C   UNL     1      -3.350   0.612  -3.611  0.00  0.00    +0.068 A 
ATOM      5  C   UNL     1      -4.090   0.363  -2.466  0.00  0.00    +0.043 A 
ATOM      6  C   UNL     1      -3.447  -0.005  -1.299  0.00  0.00    +0.022 A 
ATOM      7 BR   UNL     1      -4.457  -0.352   0.262  0.00  0.00    -0.050 Br
ATOM      8  N   UNL     1      -3.693   0.986  -4.909  0.00  0.00    -0.306 N 
ATOM      9  H   UNL     1      -4.593   1.144  -5.234  0.00  0.00    +0.170 HD
ATOM     10  C   UNL     1      -2.563   1.091  -5.633  0.00  0.00    +0.325 A 
ATOM     11  O   UNL     1      -2.510   1.402  -6.808  0.00  0.00    -0.247 OA
ATOM     12  N   UNL     1      -1.500   0.800  -4.860  0.00  0.00    -0.306 N 
ATOM     13  H   UNL     1      -0.573   0.804  -5.144  0.00  0.00    +0.170 HD
ENDROOT
BRANCH   1  14
ATOM     14  C   UNL     1      -1.376  -0.512   0.012  0.00  0.00    -0.011 C 
BRANCH  14  15
ATOM     15  C   UNL     1      -1.356  -2.038   0.130  0.00  0.00    +0.109 C 
ATOM     16  C   UNL     1      -0.653  -2.441   1.429  0.00  0.00    +0.030 C 
ATOM     17  C   UNL     1      -0.584  -3.969   1.510  0.00  0.00    +0.005 C 
ATOM     18  C   UNL     1       0.138  -4.503   0.269  0.00  0.00    +0.028 C 
ATOM     19  C   UNL     1      -0.596  -4.020  -0.986  0.00  0.00    +0.160 C 
ATOM     20  O   UNL     1      -0.652  -2.592  -0.983  0.00  0.00    -0.378 OA
ENDBRANCH  14  15
BRANCH  14  22
ATOM     21  C   UNL     1      -0.018   1.465   0.010  0.00  0.00    -0.100 C 
ATOM     22  N   UNL     1       0.002  -0.004   0.002  0.00  0.00    +0.383 N 
ATOM     23  H   UNL     1       0.474  -0.330  -0.828  0.00  0.00    -0.085 HD
ATOM     24  H   UNL     1       0.490  -0.338   0.820  0.00  0.00    -0.085 HD
ENDBRANCH  14  22
ENDBRANCH   1  14
TORSDOF 3
