REMARK  Name = ZINC48094107
REMARK  9 active torsions:
REMARK  status: ('A' for Active; 'I' for Inactive)
REMARK    1  A    between atoms: C_1  and  C_2
REMARK    2  A    between atoms: C_5  and  C_8
REMARK    3  A    between atoms: C_8  and  S_9
REMARK    4  A    between atoms: S_9  and  C_10
REMARK    5  A    between atoms: C_10  and  C_11
REMARK    6  A    between atoms: C_11  and  N_12
REMARK    7  A    between atoms: N_15  and  C_16
REMARK    8  A    between atoms: C_16  and  C_17
REMARK    9  A    between atoms: N_26  and  C_29
REMARK                            x       y       z     vdW  Elec       q    Type
REMARK                         _______ _______ _______ _____ _____    ______ ____
ROOT
ATOM      1  N   UNL     1       2.987  -8.732  -0.087  0.00  0.00    -0.299 N 
ATOM      2  C   UNL     1       4.084  -9.516  -0.086  0.00  0.00    +0.300 C 
ATOM      3  O   UNL     1       5.191  -9.014  -0.081  0.00  0.00    -0.253 OA
ATOM      4  N   UNL     1       3.953 -10.858  -0.091  0.00  0.00    -0.295 N 
ATOM      5  H   UNL     1       2.104  -9.133  -0.091  0.00  0.00    +0.150 HD
ATOM      6  H   UNL     1       3.069 -11.259  -0.095  0.00  0.00    +0.151 HD
ENDROOT
BRANCH   1   7
ATOM      7  C   UNL     1       3.130  -7.274  -0.082  0.00  0.00    +0.116 C 
BRANCH   7   8
ATOM      8  C   UNL     1       1.744  -6.626  -0.085  0.00  0.00    +0.088 C 
BRANCH   8   9
ATOM      9  S   UNL     1       1.920  -4.821  -0.079  0.00  0.00    -0.155 S 
BRANCH   9  10
ATOM     10  C   UNL     1       0.211  -4.213  -0.082  0.00  0.00    +0.104 C 
BRANCH  10  15
ATOM     11  C   UNL     1       0.219   1.566  -0.065  0.00  0.00    +0.044 C 
ATOM     12  C   UNL     1       0.217   0.059  -0.069  0.00  0.00    -0.050 A 
ATOM     13  C   UNL     1       0.221  -0.629  -1.268  0.00  0.00    +0.003 A 
ATOM     14  C   UNL     1       0.219  -2.011  -1.273  0.00  0.00    +0.005 A 
ATOM     15  C   UNL     1       0.214  -2.706  -0.078  0.00  0.00    -0.038 A 
ATOM     16  C   UNL     1       0.211  -2.018   1.122  0.00  0.00    +0.005 A 
ATOM     17  C   UNL     1       0.217  -0.636   1.126  0.00  0.00    +0.003 A 
ENDBRANCH  10  15
ENDBRANCH   9  10
ENDBRANCH   8   9
ENDBRANCH   7   8
ENDBRANCH   1   7
BRANCH   4  18
ATOM     18  C   UNL     1       5.144 -11.710  -0.090  0.00  0.00    +0.141 C 
BRANCH  18  19
ATOM     19  C   UNL     1       4.726 -13.158  -0.095  0.00  0.00    -0.026 A 
ATOM     20  C   UNL     1       4.520 -13.842   1.095  0.00  0.00    +0.023 A 
ATOM     21  C   UNL     1       4.137 -15.168   1.056  0.00  0.00    +0.084 A 
ATOM     22  N   UNL     1       3.965 -15.789  -0.096  0.00  0.00    -0.350 N 
ATOM     23  C   UNL     1       4.152 -15.171  -1.252  0.00  0.00    +0.099 A 
ATOM     24  C   UNL     1       4.534 -13.834  -1.287  0.00  0.00    +0.047 A 
ATOM     25  N   UNL     1       3.961 -15.864  -2.442  0.00  0.00    -0.320 N 
ATOM     26  C   UNL     1       4.039 -15.175  -3.739  0.00  0.00    +0.088 C 
ATOM     27  C   UNL     1       4.985 -15.964  -4.651  0.00  0.00    -0.060 C 
ATOM     28  N   UNL     1       4.535 -17.359  -4.732  0.00  0.00    +0.380 N 
ATOM     29  C   UNL     1       4.638 -17.995  -3.413  0.00  0.00    -0.060 C 
ATOM     30  C   UNL     1       3.680 -17.308  -2.439  0.00  0.00    +0.088 C 
ATOM     31  C   UNL     1       5.375 -18.088  -5.692  0.00  0.00    -0.096 C 
ATOM     32  H   UNL     1       3.696 -16.720  -0.095  0.00  0.00    +0.166 HD
ATOM     33  H   UNL     1       3.575 -17.384  -5.043  0.00  0.00    -0.082 HD
ENDBRANCH  18  19
ENDBRANCH   4  18
TORSDOF 7
