REMARK  Name = ZINC27520788
REMARK  8 active torsions:
REMARK  status: ('A' for Active; 'I' for Inactive)
REMARK    1  A    between atoms: C_5  and  C_7
REMARK    2  A    between atoms: N_9  and  C_10
REMARK    3  A    between atoms: C_10  and  C_11
REMARK    4  A    between atoms: C_11  and  C_12
REMARK    5  A    between atoms: C_12  and  C_13
REMARK    6  A    between atoms: C_13  and  C_14
REMARK    7  A    between atoms: C_14  and  C_15
REMARK    8  A    between atoms: N_17  and  N_18
REMARK                            x       y       z     vdW  Elec       q    Type
REMARK                         _______ _______ _______ _____ _____    ______ ____
ROOT
ATOM      1  C   UNL     1      -4.087  -8.996   0.127  0.00  0.00    +0.232 C 
ATOM      2  O   UNL     1      -5.003  -8.250   0.399  0.00  0.00    -0.274 OA
ATOM      3  N   UNL     1      -4.324 -10.305  -0.090  0.00  0.00    -0.206 N 
ATOM      4  H   UNL     1      -3.591 -10.901  -0.308  0.00  0.00    +0.177 HD
ENDROOT
BRANCH   3   5
ATOM      5  N   UNL     1      -5.630 -10.803  -0.001  0.00  0.00    -0.175 NA
ATOM      6  C   UNL     1      -5.848 -12.092  -0.105  0.00  0.00    +0.153 C 
ATOM      7  C   UNL     1      -4.841 -13.178  -0.133  0.00  0.00    +0.030 A 
ATOM      8  C   UNL     1      -3.453 -13.190  -0.064  0.00  0.00    +0.032 A 
ATOM      9  C   UNL     1      -2.775 -14.393  -0.117  0.00  0.00    +0.042 A 
ATOM     10  C   UNL     1      -3.478 -15.581  -0.238  0.00  0.00    +0.022 A 
ATOM     11  C   UNL     1      -4.856 -15.578  -0.308  0.00  0.00    +0.025 A 
ATOM     12  C   UNL     1      -5.555 -14.377  -0.255  0.00  0.00    +0.043 A 
ATOM     13  N   UNL     1      -6.917 -14.098  -0.304  0.00  0.00    -0.280 N 
ATOM     14  C   UNL     1      -7.152 -12.778  -0.214  0.00  0.00    +0.269 C 
ATOM     15  O   UNL     1      -8.245 -12.242  -0.224  0.00  0.00    -0.268 OA
ATOM     16 CL   UNL     1      -1.041 -14.416  -0.031  0.00  0.00    -0.084 Cl
ATOM     17  H   UNL     1      -7.610 -14.771  -0.388  0.00  0.00    +0.155 HD
ENDBRANCH   3   5
BRANCH   1  18
ATOM     18  C   UNL     1      -2.682  -8.459   0.032  0.00  0.00    +0.097 C 
BRANCH  18  19
ATOM     19  C   UNL     1      -2.689  -6.957   0.320  0.00  0.00    +0.009 C 
BRANCH  19  20
ATOM     20  C   UNL     1      -1.262  -6.412   0.224  0.00  0.00    +0.002 C 
BRANCH  20  21
ATOM     21  C   UNL     1      -1.270  -4.909   0.512  0.00  0.00    +0.019 C 
BRANCH  21  22
ATOM     22  C   UNL     1       0.157  -4.365   0.415  0.00  0.00    +0.104 C 
BRANCH  22  25
ATOM     23  C   UNL     1       1.303  -2.229   0.663  0.00  0.00    +0.245 C 
ATOM     24  O   UNL     1       2.349  -2.793   0.407  0.00  0.00    -0.270 OA
ATOM     25  N   UNL     1       0.150  -2.926   0.692  0.00  0.00    -0.311 N 
ATOM     26  H   UNL     1      -0.684  -2.475   0.896  0.00  0.00    +0.149 HD
BRANCH  23  31
ATOM     27  C   UNL     1       0.097   1.229   1.494  0.00  0.00    +0.001 A 
ATOM     28  C   UNL     1       1.283   1.943   1.463  0.00  0.00    +0.001 A 
ATOM     29  C   UNL     1       2.474   1.305   1.173  0.00  0.00    +0.016 A 
ATOM     30  C   UNL     1       2.489  -0.051   0.912  0.00  0.00    +0.030 A 
ATOM     31  C   UNL     1       1.296  -0.777   0.942  0.00  0.00    +0.051 A 
ATOM     32  C   UNL     1       0.097  -0.125   1.235  0.00  0.00    +0.014 A 
ATOM     33 BR   UNL     1       4.119  -0.923   0.515  0.00  0.00    -0.050 Br
ENDBRANCH  23  31
ENDBRANCH  22  25
ENDBRANCH  21  22
ENDBRANCH  20  21
ENDBRANCH  19  20
ENDBRANCH  18  19
ENDBRANCH   1  18
TORSDOF 8
