REMARK  Name = ZINC19801742
REMARK  7 active torsions:
REMARK  status: ('A' for Active; 'I' for Inactive)
REMARK    1  A    between atoms: C_1  and  C_2
REMARK    2  A    between atoms: C_2  and  C_3
REMARK    3  A    between atoms: C_2  and  C_4
REMARK    4  A    between atoms: C_10  and  N_21
REMARK    5  A    between atoms: N_24  and  C_27
REMARK    6  A    between atoms: C_27  and  C_28
REMARK    7  A    between atoms: C_28  and  O_29
REMARK                            x       y       z     vdW  Elec       q    Type
REMARK                         _______ _______ _______ _____ _____    ______ ____
ROOT
ATOM      1  C   UNL     1       0.332   0.012  -0.168  0.00  0.00    -0.045 A 
ATOM      2  C   UNL     1       1.527  -0.675  -0.293  0.00  0.00    +0.005 A 
ATOM      3  C   UNL     1       2.691   0.036  -0.445  0.00  0.00    +0.015 A 
ATOM      4  C   UNL     1       2.702   1.444  -0.476  0.00  0.00    +0.014 A 
ATOM      5  C   UNL     1       1.521   2.126  -0.335  0.00  0.00    -0.047 A 
ATOM      6  C   UNL     1       0.338   1.384  -0.189  0.00  0.00    +0.007 A 
ATOM      7  C   UNL     1       1.275   3.609  -0.290  0.00  0.00    -0.032 C 
ATOM      8  C   UNL     1       2.413   4.485  -0.702  0.00  0.00    +0.025 C 
ATOM      9  C   UNL     1       3.513   4.526   0.307  0.00  0.00    -0.034 A 
ATOM     10  C   UNL     1       3.630   5.629   1.144  0.00  0.00    +0.019 A 
ATOM     11  C   UNL     1       4.625   5.659   2.103  0.00  0.00    +0.014 A 
ATOM     12  C   UNL     1       5.502   4.596   2.239  0.00  0.00    +0.015 A 
ATOM     13  C   UNL     1       5.393   3.504   1.398  0.00  0.00    +0.016 A 
ATOM     14  C   UNL     1       4.399   3.495   0.426  0.00  0.00    +0.016 A 
ATOM     15  S   UNL     1       4.285   2.166  -0.719  0.00  0.00    -0.089 S 
ATOM     16  I   UNL     1       4.809   7.325   3.360  0.00  0.00    -0.044 I 
ENDROOT
BRANCH   7  17
ATOM     17  N   UNL     1       0.131   3.907  -1.162  0.00  0.00    +0.386 N 
ATOM     18  C   UNL     1       0.470   3.673  -2.573  0.00  0.00    -0.062 C 
ATOM     19  C   UNL     1      -0.768   3.917  -3.439  0.00  0.00    +0.066 C 
ATOM     20  N   UNL     1      -1.240   5.294  -3.236  0.00  0.00    -0.304 NA
ATOM     21  C   UNL     1      -1.579   5.528  -1.825  0.00  0.00    +0.066 C 
ATOM     22  C   UNL     1      -0.342   5.283  -0.959  0.00  0.00    -0.062 C 
ATOM     23  H   UNL     1      -0.687   3.223  -0.891  0.00  0.00    -0.081 HD
BRANCH  20  24
ATOM     24  C   UNL     1      -2.384   5.592  -4.109  0.00  0.00    +0.112 C 
BRANCH  24  25
ATOM     25  C   UNL     1      -2.540   7.108  -4.244  0.00  0.00    +0.171 C 
BRANCH  25  26
ATOM     26  O   UNL     1      -1.391   7.648  -4.900  0.00  0.00    -0.394 OA
ATOM     27  H   UNL     1      -1.323   8.730  -5.088  0.00  0.00    +0.209 HD
ENDBRANCH  25  26
ENDBRANCH  24  25
ENDBRANCH  20  24
ENDBRANCH   7  17
BRANCH   1  29
ATOM     28  C   UNL     1      -1.185  -1.638  -1.228  0.00  0.00    +0.012 C 
ATOM     29  C   UNL     1      -0.964  -0.741  -0.009  0.00  0.00    +0.013 C 
ATOM     30  C   UNL     1      -0.902  -1.602   1.254  0.00  0.00    +0.012 C 
ENDBRANCH   1  29
TORSDOF 5
