REMARK  Name = ZINC10138411
REMARK  12 active torsions:
REMARK  status: ('A' for Active; 'I' for Inactive)
REMARK    1  A    between atoms: C_1  and  C_2
REMARK    2  A    between atoms: C_2  and  C_3
REMARK    3  A    between atoms: C_3  and  N_4
REMARK    4  A    between atoms: C_5  and  N_28
REMARK    5  A    between atoms: C_6  and  C_13
REMARK    6  A    between atoms: C_13  and  C_15
REMARK    7  A    between atoms: C_15  and  N_51
REMARK    8  A    between atoms: C_16  and  C_18
REMARK    9  A    between atoms: C_16  and  C_25
REMARK   10  A    between atoms: C_16  and  N_51
REMARK   11  A    between atoms: C_25  and  C_26
REMARK   12  A    between atoms: C_25  and  C_27
REMARK                            x       y       z     vdW  Elec       q    Type
REMARK                         _______ _______ _______ _____ _____    ______ ____
ROOT
ATOM      1  C   UNL     1      -1.721   2.376  -0.075  0.00  0.00    +0.155 C 
ATOM      2  O   UNL     1      -1.846   3.580  -0.174  0.00  0.00    -0.294 OA
ENDROOT
BRANCH   1   5
ATOM      3  N   UNL     1       1.690   1.860  -1.374  0.00  0.00    -0.281 N 
ATOM      4  C   UNL     1       0.564   2.510  -0.956  0.00  0.00    +0.116 A 
ATOM      5  C   UNL     1      -0.533   1.751  -0.512  0.00  0.00    +0.118 A 
ATOM      6  C   UNL     1      -0.406   0.288  -0.523  0.00  0.00    +0.266 A 
ATOM      7  O   UNL     1      -1.324  -0.418  -0.150  0.00  0.00    -0.267 OA
ATOM      8  N   UNL     1       0.750  -0.256  -0.956  0.00  0.00    -0.274 N 
ATOM      9  H   UNL     1       0.852  -1.251  -0.970  0.00  0.00    +0.173 HD
ATOM     10  C   UNL     1       1.765   0.520  -1.369  0.00  0.00    +0.331 A 
ATOM     11  O   UNL     1       2.789  -0.010  -1.752  0.00  0.00    -0.246 OA
BRANCH   4  12
ATOM     12  N   UNL     1       0.505   3.869  -0.968  0.00  0.00    -0.344 N 
ATOM     13  H   UNL     1      -0.113   4.333  -0.382  0.00  0.00    +0.144 HD
ATOM     14  H   UNL     1       1.081   4.374  -1.564  0.00  0.00    +0.144 HD
ENDBRANCH   4  12
BRANCH   3  15
ATOM     15  C   UNL     1       2.839   2.642  -1.839  0.00  0.00    +0.128 C 
BRANCH  15  17
ATOM     16  C   UNL     1       3.917   3.696  -3.831  0.00  0.00    +0.005 C 
ATOM     17  C   UNL     1       2.718   2.879  -3.346  0.00  0.00    +0.018 C 
ENDBRANCH  15  17
ENDBRANCH   3  15
ENDBRANCH   1   5
BRANCH   1  18
ATOM     18  C   UNL     1      -2.834   1.548   0.515  0.00  0.00    -0.000 C 
BRANCH  18  19
ATOM     19  N   UNL     1      -3.951   2.436   0.888  0.00  0.00    +0.389 N 
ATOM     20  H   UNL     1      -4.232   2.990   0.070  0.00  0.00    -0.084 HD
ATOM     21  H   UNL     1      -3.646   3.067   1.639  0.00  0.00    -0.084 HD
BRANCH  19  22
ATOM     22  C   UNL     1      -5.102   1.642   1.357  0.00  0.00    -0.038 C 
BRANCH  22  23
ATOM     23  C   UNL     1      -5.940   1.226   0.176  0.00  0.00    -0.061 A 
ATOM     24  C   UNL     1      -6.160   2.112  -0.862  0.00  0.00    +0.003 A 
ATOM     25  C   UNL     1      -6.924   1.729  -1.948  0.00  0.00    +0.020 A 
ATOM     26  C   UNL     1      -7.478   0.462  -1.992  0.00  0.00    +0.041 A 
ATOM     27  C   UNL     1      -7.262  -0.423  -0.950  0.00  0.00    +0.020 A 
ATOM     28  C   UNL     1      -6.493  -0.041   0.133  0.00  0.00    +0.003 A 
ATOM     29 CL   UNL     1      -8.444  -0.018  -3.352  0.00  0.00    -0.084 Cl
ENDBRANCH  22  23
BRANCH  22  30
ATOM     30  C   UNL     1      -5.947   2.494   2.307  0.00  0.00    -0.027 C 
ATOM     31  C   UNL     1      -5.141   2.800   3.571  0.00  0.00    +0.006 C 
ATOM     32  C   UNL     1      -6.327   3.804   1.614  0.00  0.00    +0.006 C 
ENDBRANCH  22  30
ENDBRANCH  19  22
ENDBRANCH  18  19
ENDBRANCH   1  18
TORSDOF 9
