REMARK  Name = ZINC35091962
REMARK  9 active torsions:
REMARK  status: ('A' for Active; 'I' for Inactive)
REMARK    1  A    between atoms: C_1  and  C_2
REMARK    2  A    between atoms: C_2  and  O_3
REMARK    3  A    between atoms: O_3  and  C_4
REMARK    4  A    between atoms: C_7  and  N_10
REMARK    5  A    between atoms: C_20  and  C_21
REMARK    6  A    between atoms: C_21  and  C_23
REMARK    7  A    between atoms: C_21  and  N_24
REMARK    8  A    between atoms: C_28  and  C_31
REMARK    9  A    between atoms: N_34  and  C_35
REMARK                            x       y       z     vdW  Elec       q    Type
REMARK                         _______ _______ _______ _____ _____    ______ ____
ROOT
ATOM      1  C   UNL     1      -4.552  -5.450   0.773  0.00  0.00    -0.003 C 
ATOM      2  C   UNL     1      -3.984  -4.718   1.990  0.00  0.00    -0.005 C 
ENDROOT
BRANCH   1   3
ATOM      3  N   UNL     1      -5.675  -6.300   1.192  0.00  0.00    +0.388 N 
ATOM      4  C   UNL     1      -6.234  -6.983   0.018  0.00  0.00    -0.058 C 
ATOM      5  C   UNL     1      -7.329  -7.956   0.468  0.00  0.00    +0.091 C 
ATOM      6  N   UNL     1      -8.316  -7.210   1.264  0.00  0.00    -0.286 N 
ATOM      7  C   UNL     1      -7.825  -6.366   2.364  0.00  0.00    +0.058 C 
ATOM      8  C   UNL     1      -6.706  -5.468   1.824  0.00  0.00    -0.055 C 
ATOM      9  C   UNL     1      -8.969  -5.503   2.900  0.00  0.00    +0.026 C 
ATOM     10  C   UNL     1      -9.633  -7.299   0.994  0.00  0.00    +0.307 C 
ATOM     11  O   UNL     1     -10.426  -6.602   1.598  0.00  0.00    -0.252 OA
ATOM     12  N   UNL     1     -10.072  -8.159   0.053  0.00  0.00    -0.267 N 
ATOM     13  H   UNL     1      -9.454  -8.782  -0.360  0.00  0.00    +0.156 HD
ATOM     14  H   UNL     1      -5.346  -6.987   1.853  0.00  0.00    -0.081 HD
BRANCH  12  15
ATOM     15  C   UNL     1     -11.420  -8.153  -0.327  0.00  0.00    +0.070 A 
ATOM     16  C   UNL     1     -12.227  -7.067  -0.014  0.00  0.00    +0.026 A 
ATOM     17  C   UNL     1     -13.556  -7.064  -0.390  0.00  0.00    +0.002 A 
ATOM     18  C   UNL     1     -14.084  -8.140  -1.079  0.00  0.00    +0.003 A 
ATOM     19  C   UNL     1     -13.285  -9.224  -1.393  0.00  0.00    +0.040 A 
ATOM     20  C   UNL     1     -11.952  -9.231  -1.025  0.00  0.00    +0.145 A 
ATOM     21  F   UNL     1     -11.170 -10.287  -1.337  0.00  0.00    -0.204 F 
ENDBRANCH  12  15
ENDBRANCH   1   3
BRANCH   1  32
ATOM     22  N   UNL     1      -2.739  -5.784  -0.861  0.00  0.00    -0.266 N 
ATOM     23  C   UNL     1      -1.758  -6.511  -1.445  0.00  0.00    +0.266 A 
ATOM     24  O   UNL     1      -1.086  -6.054  -2.351  0.00  0.00    -0.267 OA
ATOM     25  C   UNL     1      -1.534  -7.874  -0.941  0.00  0.00    +0.065 A 
ATOM     26  C   UNL     1      -0.549  -8.704  -1.473  0.00  0.00    +0.015 A 
ATOM     27  C   UNL     1      -0.382  -9.972  -0.962  0.00  0.00    +0.001 A 
ATOM     28  C   UNL     1      -1.186 -10.428   0.075  0.00  0.00    +0.002 A 
ATOM     29  C   UNL     1      -2.165  -9.624   0.614  0.00  0.00    +0.028 A 
ATOM     30  C   UNL     1      -2.354  -8.334   0.114  0.00  0.00    +0.078 A 
ATOM     31  N   UNL     1      -3.305  -7.508   0.616  0.00  0.00    -0.235 NA
ATOM     32  C   UNL     1      -3.477  -6.307   0.155  0.00  0.00    +0.104 A 
BRANCH  22  36
ATOM     33  C   UNL     1      -3.495  -1.900  -2.180  0.00  0.00    +0.121 A 
ATOM     34  C   UNL     1      -2.350  -2.173  -1.446  0.00  0.00    +0.047 A 
ATOM     35  C   UNL     1      -2.099  -3.458  -1.009  0.00  0.00    +0.030 A 
ATOM     36  C   UNL     1      -2.993  -4.479  -1.304  0.00  0.00    +0.051 A 
ATOM     37  C   UNL     1      -4.140  -4.205  -2.038  0.00  0.00    +0.030 A 
ATOM     38  C   UNL     1      -4.392  -2.918  -2.470  0.00  0.00    +0.047 A 
BRANCH  33  39
ATOM     39  O   UNL     1      -3.742  -0.634  -2.610  0.00  0.00    -0.492 OA
BRANCH  39  41
ATOM     40  C   UNL     1      -3.221   1.714  -2.840  0.00  0.00    +0.048 C 
ATOM     41  C   UNL     1      -2.776   0.364  -2.275  0.00  0.00    +0.225 C 
ENDBRANCH  39  41
ENDBRANCH  33  39
ENDBRANCH  22  36
ENDBRANCH   1  32
TORSDOF 6
