REMARK  Name = ZINC46545105
REMARK  2 active torsions:
REMARK  status: ('A' for Active; 'I' for Inactive)
REMARK    1  A    between atoms: C_10  and  C_12
REMARK    2  A    between atoms: C_18  and  C_20
REMARK                            x       y       z     vdW  Elec       q    Type
REMARK                         _______ _______ _______ _____ _____    ______ ____
ROOT
ATOM      1  C   UNL     1       4.675   0.038   0.886  0.00  0.00    +0.224 C 
ATOM      2  O   UNL     1       5.100  -0.533   1.868  0.00  0.00    -0.275 OA
ATOM      3  N   UNL     1       5.042   1.310   0.635  0.00  0.00    -0.291 N 
ATOM      4  C   UNL     1       4.519   2.157  -0.453  0.00  0.00    +0.108 C 
ATOM      5  C   UNL     1       5.628   3.209  -0.705  0.00  0.00    +0.021 C 
ATOM      6  C   UNL     1       6.139   3.473   0.736  0.00  0.00    +0.032 C 
ATOM      7  C   UNL     1       6.025   2.087   1.405  0.00  0.00    +0.144 C 
ENDROOT
BRANCH   1  17
ATOM      8  C   UNL     1       1.088  -3.081   2.291  0.00  0.00    +0.000 A 
ATOM      9  C   UNL     1       1.429  -1.804   2.696  0.00  0.00    +0.000 A 
ATOM     10  C   UNL     1       2.287  -1.047   1.925  0.00  0.00    +0.004 A 
ATOM     11  C   UNL     1       2.812  -1.558   0.745  0.00  0.00    -0.032 A 
ATOM     12  C   UNL     1       2.476  -2.831   0.344  0.00  0.00    -0.043 A 
ATOM     13  C   UNL     1       1.609  -3.590   1.120  0.00  0.00    +0.004 A 
ATOM     14  C   UNL     1       3.019  -3.455  -0.914  0.00  0.00    +0.035 C 
ATOM     15  C   UNL     1       3.582  -2.384  -1.846  0.00  0.00    +0.006 C 
ATOM     16  C   UNL     1       4.549  -1.504  -1.044  0.00  0.00    +0.018 C 
ATOM     17  C   UNL     1       3.736  -0.675  -0.052  0.00  0.00    +0.105 C 
ENDBRANCH   1  17
BRANCH   7  18
ATOM     18  C   UNL     1       5.556   2.239   2.829  0.00  0.00    +0.158 A 
ATOM     19  N   UNL     1       4.346   2.551   3.216  0.00  0.00    -0.132 NA
ATOM     20  N   UNL     1       4.285   2.597   4.500  0.00  0.00    -0.129 NA
ATOM     21  C   UNL     1       5.473   2.313   5.008  0.00  0.00    +0.161 A 
ATOM     22  N   UNL     1       6.312   2.072   3.948  0.00  0.00    -0.285 N 
ATOM     23  C   UNL     1       7.619   1.744   4.160  0.00  0.00    +0.094 A 
ATOM     24  C   UNL     1       8.106   1.648   5.415  0.00  0.00    +0.018 A 
ATOM     25  C   UNL     1       7.271   1.886   6.521  0.00  0.00    +0.005 A 
ATOM     26  C   UNL     1       5.968   2.222   6.324  0.00  0.00    +0.048 A 
ENDBRANCH   7  18
TORSDOF 2
