REMARK  Name = ZINC19892823
REMARK  8 active torsions:
REMARK  status: ('A' for Active; 'I' for Inactive)
REMARK    1  A    between atoms: C_5  and  C_7
REMARK    2  A    between atoms: C_7  and  N_8
REMARK    3  A    between atoms: N_11  and  C_14
REMARK    4  A    between atoms: C_14  and  C_15
REMARK    5  A    between atoms: N_17  and  N_18
REMARK    6  A    between atoms: C_19  and  C_20
REMARK    7  A    between atoms: C_23  and  O_27
REMARK    8  A    between atoms: C_25  and  O_26
REMARK                            x       y       z     vdW  Elec       q    Type
REMARK                         _______ _______ _______ _____ _____    ______ ____
ROOT
ATOM      1  C   UNL     1      -1.391   3.312   0.245  0.00  0.00    +0.020 C 
ENDROOT
BRANCH   1   5
ATOM      2  N   UNL     1      -4.849   5.483  -0.840  0.00  0.00    -0.302 NA
ATOM      3  C   UNL     1      -4.167   5.853   0.408  0.00  0.00    +0.066 C 
ATOM      4  C   UNL     1      -2.730   5.325   0.377  0.00  0.00    -0.063 C 
ATOM      5  N   UNL     1      -2.751   3.866   0.204  0.00  0.00    +0.387 N 
ATOM      6  C   UNL     1      -3.433   3.496  -1.044  0.00  0.00    -0.063 C 
ATOM      7  C   UNL     1      -4.869   4.024  -1.013  0.00  0.00    +0.066 C 
ATOM      8  H   UNL     1      -3.317   3.433   1.042  0.00  0.00    -0.081 HD
BRANCH   2   9
ATOM      9  C   UNL     1      -6.208   6.038  -0.881  0.00  0.00    +0.120 C 
BRANCH   9  14
ATOM     10  C   UNL     1      -8.535   4.147  -3.177  0.00  0.00    +0.000 A 
ATOM     11  C   UNL     1      -8.195   4.674  -4.409  0.00  0.00    +0.001 A 
ATOM     12  C   UNL     1      -7.213   5.642  -4.501  0.00  0.00    +0.020 A 
ATOM     13  C   UNL     1      -6.569   6.084  -3.358  0.00  0.00    +0.045 A 
ATOM     14  C   UNL     1      -6.909   5.557  -2.126  0.00  0.00    -0.015 A 
ATOM     15  C   UNL     1      -7.888   4.585  -2.036  0.00  0.00    +0.006 A 
ATOM     16 CL   UNL     1      -5.335   7.300  -3.473  0.00  0.00    -0.083 Cl
ENDBRANCH   9  14
ENDBRANCH   2   9
ENDBRANCH   1   5
BRANCH   1  17
ATOM     17  C   UNL     1      -1.464   1.808   0.311  0.00  0.00    +0.216 C 
ATOM     18  O   UNL     1      -2.542   1.252   0.324  0.00  0.00    -0.276 OA
ATOM     19  N   UNL     1      -0.330   1.080   0.358  0.00  0.00    -0.209 N 
ATOM     20  H   UNL     1       0.648   1.584   0.346  0.00  0.00    +0.177 HD
BRANCH  19  21
ATOM     21  N   UNL     1      -0.398  -0.318   0.420  0.00  0.00    -0.188 NA
ATOM     22  C   UNL     1       0.694  -1.019   0.459  0.00  0.00    +0.142 C 
BRANCH  22  23
ATOM     23  C   UNL     1       0.624  -2.489   0.524  0.00  0.00    +0.036 A 
ATOM     24  C   UNL     1       1.797  -3.247   0.566  0.00  0.00    +0.016 A 
ATOM     25  C   UNL     1       1.726  -4.621   0.627  0.00  0.00    +0.046 A 
ATOM     26  C   UNL     1       0.491  -5.258   0.647  0.00  0.00    +0.120 A 
ATOM     27  C   UNL     1      -0.680  -4.515   0.606  0.00  0.00    +0.091 A 
ATOM     28  C   UNL     1      -0.622  -3.134   0.550  0.00  0.00    +0.129 A 
BRANCH  28  29
ATOM     29  O   UNL     1      -1.767  -2.405   0.515  0.00  0.00    -0.506 OA
ATOM     30  H   UNL     1      -2.743  -2.912   0.536  0.00  0.00    +0.292 HD
ENDBRANCH  28  29
BRANCH  26  31
ATOM     31  O   UNL     1       0.430  -6.614   0.708  0.00  0.00    -0.507 OA
ATOM     32  H   UNL     1      -0.546  -7.120   0.724  0.00  0.00    +0.292 HD
ENDBRANCH  26  31
ENDBRANCH  22  23
ENDBRANCH  19  21
ENDBRANCH   1  17
TORSDOF 8
