REMARK  Name = ZINC35779161
REMARK  13 active torsions:
REMARK  status: ('A' for Active; 'I' for Inactive)
REMARK    1  A    between atoms: C_1  and  C_2
REMARK    2  A    between atoms: C_2  and  C_3
REMARK    3  A    between atoms: C_3  and  C_4
REMARK    4  A    between atoms: C_4  and  C_6
REMARK    5  A    between atoms: C_4  and  O_34
REMARK    6  A    between atoms: C_6  and  N_7
REMARK    7  A    between atoms: N_7  and  C_8
REMARK    8  A    between atoms: N_7  and  C_12
REMARK    9  A    between atoms: C_8  and  C_9
REMARK   10  A    between atoms: C_12  and  C_13
REMARK   11  A    between atoms: C_23  and  C_25
REMARK   12  A    between atoms: C_25  and  O_26
REMARK   13  A    between atoms: O_26  and  C_27
REMARK                            x       y       z     vdW  Elec       q    Type
REMARK                         _______ _______ _______ _____ _____    ______ ____
ROOT
ATOM      1  C   UNL     1       2.659  -6.238   2.748  0.00  0.00    +0.200 C 
ATOM      2  O   UNL     1       2.042  -6.664   1.795  0.00  0.00    -0.278 OA
ATOM      3  N   UNL     1       3.411  -7.072   3.492  0.00  0.00    -0.292 N 
ATOM      4  C   UNL     1       4.158  -6.568   4.653  0.00  0.00    +0.113 C 
ATOM      5  C   UNL     1       3.581  -7.221   5.919  0.00  0.00    +0.061 C 
ATOM      6  C   UNL     1       3.351  -8.671   5.647  0.00  0.00    -0.004 A 
ATOM      7  C   UNL     1       3.296  -9.298   4.440  0.00  0.00    -0.014 A 
ATOM      8  C   UNL     1       3.058 -10.671   4.458  0.00  0.00    +0.013 A 
ATOM      9  C   UNL     1       2.900 -11.315   5.637  0.00  0.00    +0.046 A 
ATOM     10  S   UNL     1       3.084  -9.982   6.812  0.00  0.00    -0.101 S 
ATOM     11  C   UNL     1       3.492  -8.501   3.157  0.00  0.00    +0.144 C 
ENDROOT
BRANCH   1  12
ATOM     12  C   UNL     1       2.583  -4.775   3.101  0.00  0.00    +0.019 C 
BRANCH  12  13
ATOM     13  N   UNL     1       1.706  -4.085   2.146  0.00  0.00    +0.387 N 
ATOM     14  H   UNL     1       2.031  -4.256   1.206  0.00  0.00    -0.081 HD
BRANCH  13  15
ATOM     15  C   UNL     1       1.726  -2.641   2.416  0.00  0.00    -0.047 C 
BRANCH  15  16
ATOM     16  C   UNL     1       3.125  -2.089   2.133  0.00  0.00    +0.098 C 
BRANCH  16  17
ATOM     17  O   UNL     1       3.458  -2.316   0.762  0.00  0.00    -0.394 OA
ATOM     18  H   UNL     1       2.898  -1.834   0.137  0.00  0.00    +0.210 HD
ENDBRANCH  16  17
BRANCH  16  19
ATOM     19  C   UNL     1       3.149  -0.587   2.423  0.00  0.00    +0.029 C 
BRANCH  19  21
ATOM     20  C   UNL     1       4.599   1.443   2.550  0.00  0.00    +0.004 C 
ATOM     21  C   UNL     1       4.576  -0.059   2.260  0.00  0.00    -0.001 C 
ENDBRANCH  19  21
ENDBRANCH  16  19
ENDBRANCH  15  16
ENDBRANCH  13  15
BRANCH  13  22
ATOM     22  C   UNL     1       0.334  -4.590   2.289  0.00  0.00    -0.075 C 
BRANCH  22  23
ATOM     23  C   UNL     1      -0.551  -3.976   1.202  0.00  0.00    -0.028 C 
ATOM     24  C   UNL     1      -1.690  -3.058   1.653  0.00  0.00    +0.002 C 
ATOM     25  C   UNL     1      -2.002  -4.457   1.117  0.00  0.00    +0.002 C 
ENDBRANCH  22  23
ENDBRANCH  13  22
ENDBRANCH  12  13
ENDBRANCH   1  12
BRANCH  11  26
ATOM     26  C   UNL     1       4.865  -8.816   2.560  0.00  0.00    +0.256 C 
BRANCH  26  27
ATOM     27  O   UNL     1       5.874  -8.606   3.550  0.00  0.00    -0.490 OA
BRANCH  27  28
ATOM     28  C   UNL     1       7.160  -8.843   3.179  0.00  0.00    +0.121 A 
ATOM     29  C   UNL     1       7.445  -9.264   1.889  0.00  0.00    +0.048 A 
ATOM     30  C   UNL     1       8.753  -9.505   1.514  0.00  0.00    +0.042 A 
ATOM     31  C   UNL     1       9.779  -9.327   2.426  0.00  0.00    +0.124 A 
ATOM     32  C   UNL     1       9.496  -8.908   3.715  0.00  0.00    +0.042 A 
ATOM     33  C   UNL     1       8.190  -8.660   4.090  0.00  0.00    +0.048 A 
ATOM     34  F   UNL     1      11.057  -9.563   2.058  0.00  0.00    -0.205 F 
ENDBRANCH  27  28
ENDBRANCH  26  27
ENDBRANCH  11  26
TORSDOF 12
