REMARK  Name = ZINC63818821
REMARK  8 active torsions:
REMARK  status: ('A' for Active; 'I' for Inactive)
REMARK    1  A    between atoms: C_1  and  C_2
REMARK    2  A    between atoms: C_4  and  N_10
REMARK    3  A    between atoms: C_5  and  C_9
REMARK    4  A    between atoms: N_7  and  C_8
REMARK    5  A    between atoms: C_11  and  C_13
REMARK    6  A    between atoms: N_15  and  C_16
REMARK    7  A    between atoms: C_16  and  C_17
REMARK    8  A    between atoms: C_17  and  C_18
REMARK                            x       y       z     vdW  Elec       q    Type
REMARK                         _______ _______ _______ _____ _____    ______ ____
ROOT
ATOM      1  C   UNL     1      -4.634  -0.884  -1.812  0.00  0.00    +0.299 C 
ATOM      2  O   UNL     1      -4.420  -0.206  -2.796  0.00  0.00    -0.265 OA
ATOM      3  N   UNL     1      -5.811  -1.527  -1.680  0.00  0.00    -0.307 N 
ATOM      4  H   UNL     1      -5.982  -2.069  -0.893  0.00  0.00    +0.149 HD
ENDROOT
BRANCH   1   6
ATOM      5  N   UNL     1      -2.417  -0.363  -0.882  0.00  0.00    -0.278 N 
ATOM      6  C   UNL     1      -3.594  -1.006  -0.750  0.00  0.00    +0.303 C 
ATOM      7  O   UNL     1      -3.808  -1.685   0.234  0.00  0.00    -0.265 OA
ATOM      8  H   UNL     1      -2.273   0.236  -1.631  0.00  0.00    +0.155 HD
BRANCH   5  11
ATOM      9  C   UNL     1      -0.114  -2.541  -0.755  0.00  0.00    +0.032 C 
ATOM     10  C   UNL     1      -0.784  -1.883   0.453  0.00  0.00    +0.118 C 
ATOM     11  C   UNL     1      -1.405  -0.560   0.058  0.00  0.00    +0.047 C 
ATOM     12  C   UNL     1      -0.800   0.376   0.776  0.00  0.00    +0.034 C 
ATOM     13  N   UNL     1       0.161  -0.170   1.614  0.00  0.00    -0.280 N 
ATOM     14  N   UNL     1       0.223  -1.529   1.472  0.00  0.00    -0.224 NA
ATOM     15  C   UNL     1       1.566  -1.955   1.055  0.00  0.00    +0.128 C 
ATOM     16  C   UNL     1      -1.117   1.847   0.694  0.00  0.00    +0.063 C 
ATOM     17  H   UNL     1       0.716   0.344   2.221  0.00  0.00    +0.166 HD
ENDBRANCH   5  11
ENDBRANCH   1   6
BRANCH   3  18
ATOM     18  C   UNL     1      -6.833  -1.407  -2.723  0.00  0.00    +0.109 C 
BRANCH  18  19
ATOM     19  C   UNL     1      -8.062  -2.228  -2.329  0.00  0.00    +0.052 C 
BRANCH  19  20
ATOM     20  C   UNL     1      -9.113  -2.105  -3.402  0.00  0.00    -0.040 C 
ATOM     21  C   UNL     1      -9.328  -2.957  -4.431  0.00  0.00    -0.001 A 
ATOM     22  C   UNL     1      -8.673  -4.203  -4.844  0.00  0.00    +0.010 A 
ATOM     23  C   UNL     1      -9.122  -4.847  -5.945  0.00  0.00    +0.001 A 
ATOM     24  C   UNL     1     -10.194  -4.354  -6.702  0.00  0.00    +0.002 A 
ATOM     25  C   UNL     1     -10.846  -3.215  -6.386  0.00  0.00    +0.026 A 
ATOM     26  C   UNL     1     -10.459  -2.457  -5.246  0.00  0.00    +0.043 A 
ATOM     27  N   UNL     1     -10.924  -1.341  -4.741  0.00  0.00    -0.380 N 
ATOM     28  C   UNL     1     -10.145  -1.008  -3.543  0.00  0.00    +0.144 C 
ATOM     29  H   UNL     1     -11.663  -0.823  -5.097  0.00  0.00    +0.160 HD
ENDBRANCH  19  20
ENDBRANCH  18  19
ENDBRANCH   3  18
TORSDOF 5
