REMARK  Name = ZINC43553786
REMARK  12 active torsions:
REMARK  status: ('A' for Active; 'I' for Inactive)
REMARK    1  A    between atoms: C_1  and  C_2
REMARK    2  A    between atoms: C_5  and  O_30
REMARK    3  A    between atoms: C_7  and  C_27
REMARK    4  A    between atoms: C_7  and  C_28
REMARK    5  A    between atoms: C_12  and  O_26
REMARK    6  A    between atoms: C_14  and  C_16
REMARK    7  A    between atoms: C_16  and  C_17
REMARK    8  A    between atoms: N_19  and  C_20
REMARK    9  A    between atoms: C_20  and  C_21
REMARK   10  A    between atoms: C_28  and  O_29
REMARK   11  A    between atoms: O_30  and  C_31
REMARK   12  A    between atoms: N_33  and  C_34
REMARK                            x       y       z     vdW  Elec       q    Type
REMARK                         _______ _______ _______ _____ _____    ______ ____
ROOT
ATOM      1  C   UNL     1       0.046   1.480  -0.360  0.00  0.00    +0.012 C 
ATOM      2  C   UNL     1      -0.123  -0.046  -0.300  0.00  0.00    -0.023 C 
ATOM      3  C   UNL     1      -1.593  -0.373  -0.569  0.00  0.00    +0.011 C 
ATOM      4  C   UNL     1      -2.456   0.201   0.556  0.00  0.00    +0.046 C 
ATOM      5  C   UNL     1      -2.078  -0.454   1.879  0.00  0.00    +0.186 C 
ATOM      6  C   UNL     1      -0.599  -0.267   2.212  0.00  0.00    +0.031 C 
ATOM      7  C   UNL     1       0.305  -0.608   1.044  0.00  0.00    +0.007 C 
ATOM      8  C   UNL     1       1.764  -0.245   1.323  0.00  0.00    +0.007 C 
ATOM      9  C   UNL     1       2.640  -0.886   0.241  0.00  0.00    +0.032 C 
ATOM     10  C   UNL     1       2.231  -0.383  -1.140  0.00  0.00    +0.119 C 
ATOM     11  C   UNL     1       0.750  -0.634  -1.415  0.00  0.00    +0.032 C 
ATOM     12  C   UNL     1      -0.362   1.144   2.749  0.00  0.00    +0.017 C 
ENDROOT
BRANCH  10  13
ATOM     13  O   UNL     1       3.009  -1.067  -2.133  0.00  0.00    -0.391 OA
ATOM     14  H   UNL     1       3.962  -0.933  -2.046  0.00  0.00    +0.210 HD
ENDBRANCH  10  13
BRANCH  11  15
ATOM     15  C   UNL     1       0.501  -2.128  -1.600  0.00  0.00    +0.102 C 
BRANCH  15  16
ATOM     16  C   UNL     1       1.096  -2.578  -2.910  0.00  0.00    +0.214 C 
ATOM     17  O   UNL     1       1.524  -1.759  -3.695  0.00  0.00    -0.276 OA
ATOM     18  N   UNL     1       1.151  -3.891  -3.209  0.00  0.00    -0.308 N 
ATOM     19  H   UNL     1       0.808  -4.546  -2.581  0.00  0.00    +0.149 HD
BRANCH  18  20
ATOM     20  C   UNL     1       1.729  -4.329  -4.482  0.00  0.00    +0.178 C 
BRANCH  20  21
ATOM     21  C   UNL     1       1.671  -5.832  -4.570  0.00  0.00    +0.122 A 
ATOM     22  C   UNL     1       0.659  -6.551  -5.089  0.00  0.00    +0.046 A 
ATOM     23  C   UNL     1       1.020  -7.912  -4.968  0.00  0.00    +0.041 A 
ATOM     24  C   UNL     1       2.231  -7.944  -4.381  0.00  0.00    +0.195 A 
ATOM     25  O   UNL     1       2.622  -6.681  -4.148  0.00  0.00    -0.466 OA
ENDBRANCH  20  21
ENDBRANCH  18  20
ENDBRANCH  15  16
ENDBRANCH  11  15
BRANCH   6  26
ATOM     26  C   UNL     1      -0.281  -1.251   3.365  0.00  0.00    +0.166 C 
BRANCH  26  27
ATOM     27  O   UNL     1      -1.102  -0.944   4.493  0.00  0.00    -0.394 OA
ATOM     28  H   UNL     1      -0.956  -1.522   5.255  0.00  0.00    +0.209 HD
ENDBRANCH  26  27
ENDBRANCH   6  26
BRANCH   5  29
ATOM     29  O   UNL     1      -2.377  -1.853   1.823  0.00  0.00    -0.446 OA
BRANCH  29  30
ATOM     30  C   UNL     1      -3.605  -2.233   2.221  0.00  0.00    +0.401 C 
ATOM     31  O   UNL     1      -4.403  -1.401   2.606  0.00  0.00    -0.226 OA
ATOM     32  N   UNL     1      -3.950  -3.535   2.193  0.00  0.00    -0.278 N 
ATOM     33  H   UNL     1      -3.313  -4.199   1.886  0.00  0.00    +0.152 HD
BRANCH  32  34
ATOM     34  C   UNL     1      -5.287  -3.948   2.627  0.00  0.00    +0.076 C 
ATOM     35  C   UNL     1      -5.297  -4.129   4.147  0.00  0.00    +0.022 C 
ATOM     36  C   UNL     1      -6.693  -4.561   4.600  0.00  0.00    +0.002 C 
ATOM     37  C   UNL     1      -7.062  -5.884   3.926  0.00  0.00    +0.000 C 
ATOM     38  C   UNL     1      -7.052  -5.703   2.407  0.00  0.00    +0.002 C 
ATOM     39  C   UNL     1      -5.656  -5.272   1.954  0.00  0.00    +0.022 C 
ENDBRANCH  32  34
ENDBRANCH  29  30
ENDBRANCH   5  29
TORSDOF 10
