REMARK  Name = ZINC39652626
REMARK  8 active torsions:
REMARK  status: ('A' for Active; 'I' for Inactive)
REMARK    1  A    between atoms: C_1  and  C_2
REMARK    2  A    between atoms: C_2  and  O_3
REMARK    3  A    between atoms: O_3  and  C_4
REMARK    4  A    between atoms: C_9  and  C_10
REMARK    5  A    between atoms: C_10  and  C_11
REMARK    6  A    between atoms: C_11  and  N_12
REMARK    7  A    between atoms: C_13  and  C_15
REMARK    8  A    between atoms: C_26  and  C_28
REMARK                            x       y       z     vdW  Elec       q    Type
REMARK                         _______ _______ _______ _____ _____    ______ ____
ROOT
ATOM      1  C   UNL     1       1.272   0.607   7.647  0.00  0.00    +0.100 C 
ATOM      2  C   UNL     1       2.468   0.139   8.507  0.00  0.00    +0.121 C 
ATOM      3  N   UNL     1       2.246   0.767   9.831  0.00  0.00    -0.296 N 
ATOM      4  C   UNL     1       0.783   0.667  10.046  0.00  0.00    +0.115 C 
ATOM      5  C   UNL     1       0.168   0.952   8.661  0.00  0.00    -0.004 C 
ATOM      6  C   UNL     1      -0.213   2.425   8.546  0.00  0.00    -0.010 C 
ATOM      7  C   UNL     1      -1.351   2.730   9.524  0.00  0.00    -0.082 C 
ATOM      8  N   UNL     1      -2.506   1.879   9.214  0.00  0.00    +0.379 N 
ATOM      9  C   UNL     1      -2.158   0.468   9.416  0.00  0.00    -0.082 C 
ATOM     10  C   UNL     1      -1.053   0.067   8.434  0.00  0.00    -0.010 C 
ATOM     11  C   UNL     1       3.167   1.307  10.653  0.00  0.00    +0.247 C 
ATOM     12  O   UNL     1       4.318   1.430  10.280  0.00  0.00    -0.270 OA
ATOM     13  H   UNL     1      -3.275   2.125   9.820  0.00  0.00    -0.086 HD
ATOM     14  H   UNL     1      -2.780   2.022   8.253  0.00  0.00    -0.086 HD
ENDROOT
BRANCH  11  15
ATOM     15  C   UNL     1       2.778   1.751  12.008  0.00  0.00    +0.037 A 
ATOM     16  C   UNL     1       1.621   1.224  12.610  0.00  0.00    +0.013 A 
ATOM     17  C   UNL     1       1.243   1.615  13.853  0.00  0.00    +0.009 A 
ATOM     18  C   UNL     1       2.011   2.561  14.557  0.00  0.00    -0.018 A 
ATOM     19  C   UNL     1       1.640   2.982  15.845  0.00  0.00    +0.008 A 
ATOM     20  C   UNL     1       2.404   3.897  16.502  0.00  0.00    +0.001 A 
ATOM     21  C   UNL     1       3.552   4.428  15.916  0.00  0.00    +0.001 A 
ATOM     22  C   UNL     1       3.943   4.045  14.671  0.00  0.00    +0.008 A 
ATOM     23  C   UNL     1       3.180   3.100  13.961  0.00  0.00    -0.017 A 
ATOM     24  C   UNL     1       3.558   2.679  12.678  0.00  0.00    +0.021 A 
ENDBRANCH  11  15
BRANCH   1  26
ATOM     25  N   UNL     1       0.260  -0.206   5.542  0.00  0.00    -0.315 N 
ATOM     26  C   UNL     1       0.817  -0.501   6.733  0.00  0.00    +0.218 C 
ATOM     27  O   UNL     1       0.953  -1.659   7.069  0.00  0.00    -0.275 OA
ATOM     28  H   UNL     1       0.152   0.719   5.273  0.00  0.00    +0.149 HD
BRANCH  25  29
ATOM     29  C   UNL     1      -0.182  -1.284   4.653  0.00  0.00    +0.109 C 
BRANCH  29  30
ATOM     30  C   UNL     1      -0.774  -0.682   3.377  0.00  0.00    +0.057 C 
BRANCH  30  36
ATOM     31  C   UNL     1      -2.488  -2.350   2.623  0.00  0.00    +0.124 A 
ATOM     32  C   UNL     1      -2.906  -3.366   1.777  0.00  0.00    +0.046 A 
ATOM     33  C   UNL     1      -2.066  -3.822   0.780  0.00  0.00    +0.004 A 
ATOM     34  C   UNL     1      -0.809  -3.267   0.625  0.00  0.00    +0.000 A 
ATOM     35  C   UNL     1      -0.390  -2.254   1.468  0.00  0.00    +0.007 A 
ATOM     36  C   UNL     1      -1.229  -1.790   2.463  0.00  0.00    -0.004 A 
BRANCH  31  37
ATOM     37  O   UNL     1      -3.313  -1.899   3.605  0.00  0.00    -0.492 OA
BRANCH  37  39
ATOM     38  C   UNL     1      -5.376  -1.886   4.864  0.00  0.00    +0.048 C 
ATOM     39  C   UNL     1      -4.595  -2.521   3.711  0.00  0.00    +0.225 C 
ENDBRANCH  37  39
ENDBRANCH  31  37
ENDBRANCH  30  36
ENDBRANCH  29  30
ENDBRANCH  25  29
ENDBRANCH   1  26
TORSDOF 7
