REMARK  Name = ZINC28296729
REMARK  12 active torsions:
REMARK  status: ('A' for Active; 'I' for Inactive)
REMARK    1  A    between atoms: C_1  and  C_2
REMARK    2  A    between atoms: C_2  and  CA_3
REMARK    3  A    between atoms: CA_3  and  C_5
REMARK    4  A    between atoms: CA_3  and  N_7
REMARK    5  A    between atoms: C_5  and  O_6
REMARK    6  A    between atoms: N_7  and  C_8
REMARK    7  A    between atoms: C_8  and  C_9
REMARK    8  A    between atoms: C_9  and  C_11
REMARK    9  A    between atoms: C_9  and  O_24
REMARK   10  A    between atoms: C_11  and  N_12
REMARK   11  A    between atoms: C_13  and  C_23
REMARK   12  A    between atoms: C_14  and  C_22
REMARK                            x       y       z     vdW  Elec       q    Type
REMARK                         _______ _______ _______ _____ _____    ______ ____
ROOT
ATOM      1  C   UNL     1       4.059   0.696  -1.476  0.00  0.00    +0.117 C 
ENDROOT
BRANCH   1   2
ATOM      2  O   UNL     1       3.698   1.927  -2.105  0.00  0.00    -0.392 OA
ATOM      3  H   UNL     1       2.639   2.213  -2.187  0.00  0.00    +0.210 HD
ENDBRANCH   1   2
BRANCH   1   4
ATOM      4  C   UNL     1       5.581   0.541  -1.494  0.00  0.00    -0.049 C 
BRANCH   4   5
ATOM      5  N   UNL     1       6.057   0.540  -2.884  0.00  0.00    +0.384 N 
ATOM      6  H1  UNL     1       5.765   1.489  -3.357  0.00  0.00    -0.085 HD
ATOM      7  H2  UNL     1       5.583  -0.297  -3.418  0.00  0.00    -0.085 HD
BRANCH   5   8
ATOM      8  CA  UNL     1       7.517   0.393  -2.940  0.00  0.00    -0.046 C 
BRANCH   8  10
ATOM      9  C   UNL     1       7.363  -1.638  -4.387  0.00  0.00    +0.002 C 
ATOM     10  C   UNL     1       7.917  -0.216  -4.285  0.00  0.00    -0.017 C 
ENDBRANCH   8  10
BRANCH   8  11
ATOM     11  C   UNL     1       8.174   1.766  -2.785  0.00  0.00    +0.140 C 
BRANCH  11  12
ATOM     12  O   UNL     1       7.834   2.585  -3.905  0.00  0.00    -0.397 OA
ATOM     13  H   UNL     1       8.217   3.614  -3.970  0.00  0.00    +0.209 HD
ENDBRANCH  11  12
ENDBRANCH   8  11
ENDBRANCH   5   8
ENDBRANCH   4   5
ENDBRANCH   1   4
BRANCH   1  14
ATOM     14  C   UNL     1       3.563   0.698  -0.029  0.00  0.00    +0.151 C 
BRANCH  14  15
ATOM     15  N   UNL     1       2.098   0.726  -0.014  0.00  0.00    -0.340 N 
ATOM     16  C   UNL     1       1.291  -0.379  -0.012  0.00  0.00    +0.020 A 
ATOM     17  C   UNL     1       0.002  -0.004   0.002  0.00  0.00    -0.022 A 
ATOM     18  C   UNL     1      -0.018   1.461   0.010  0.00  0.00    +0.004 A 
ATOM     19  C   UNL     1       1.329   1.868  -0.001  0.00  0.00    +0.068 A 
ATOM     20  C   UNL     1       1.630   3.227   0.003  0.00  0.00    +0.065 A 
ATOM     21  C   UNL     1       0.610   4.154   0.018  0.00  0.00    +0.022 A 
ATOM     22  C   UNL     1      -0.717   3.746   0.028  0.00  0.00    +0.002 A 
ATOM     23  C   UNL     1      -1.035   2.417   0.030  0.00  0.00    +0.010 A 
ATOM     24 CL   UNL     1       3.285   3.752  -0.010  0.00  0.00    -0.081 Cl
ATOM     25  C   UNL     1      -1.197  -0.917   0.009  0.00  0.00    +0.046 C 
ATOM     26  C   UNL     1       1.777  -1.806  -0.024  0.00  0.00    +0.064 C 
ENDBRANCH  14  15
ENDBRANCH   1  14
TORSDOF 9
