REMARK  Name = ZINC35954611
REMARK  14 active torsions:
REMARK  status: ('A' for Active; 'I' for Inactive)
REMARK    1  A    between atoms: C_1  and  C_2
REMARK    2  A    between atoms: C_2  and  N_3
REMARK    3  A    between atoms: N_6  and  C_9
REMARK    4  A    between atoms: C_10  and  C_22
REMARK    5  A    between atoms: C_11  and  C_21
REMARK    6  A    between atoms: N_13  and  C_14
REMARK    7  A    between atoms: C_22  and  N_23
REMARK    8  A    between atoms: N_23  and  C_24
REMARK    9  A    between atoms: N_23  and  C_32
REMARK   10  A    between atoms: C_24  and  C_25
REMARK   11  A    between atoms: C_25  and  C_26
REMARK   12  A    between atoms: C_32  and  C_33
REMARK   13  A    between atoms: C_33  and  O_34
REMARK   14  A    between atoms: O_34  and  C_35
REMARK                            x       y       z     vdW  Elec       q    Type
REMARK                         _______ _______ _______ _____ _____    ______ ____
ROOT
ATOM      1  C   UNL     1      -4.078  -2.607  -1.421  0.00  0.00    +0.126 A 
ATOM      2  C   UNL     1      -4.087  -3.968  -1.479  0.00  0.00    -0.001 A 
ATOM      3  C   UNL     1      -5.025  -4.350  -2.443  0.00  0.00    +0.064 A 
ATOM      4  N   UNL     1      -5.563  -3.270  -2.949  0.00  0.00    -0.170 NA
ATOM      5  N   UNL     1      -4.992  -2.155  -2.322  0.00  0.00    -0.218 N 
ATOM      6  C   UNL     1      -5.359  -5.767  -2.833  0.00  0.00    +0.068 C 
ENDROOT
BRANCH   1  10
ATOM      7  N   UNL     1      -1.370  -1.132   1.326  0.00  0.00    +0.382 N 
ATOM      8  C   UNL     1      -0.932  -1.669   0.032  0.00  0.00    -0.060 C 
ATOM      9  C   UNL     1      -1.974  -1.329  -1.040  0.00  0.00    +0.088 C 
ATOM     10  N   UNL     1      -3.284  -1.824  -0.589  0.00  0.00    -0.318 N 
ATOM     11  C   UNL     1      -3.732  -1.467   0.766  0.00  0.00    +0.088 C 
ATOM     12  C   UNL     1      -2.607  -1.800   1.752  0.00  0.00    -0.060 C 
ATOM     13  H   UNL     1      -1.538  -0.141   1.238  0.00  0.00    -0.082 HD
BRANCH   7  15
ATOM     14  C   UNL     1       0.929  -0.565   1.951  0.00  0.00    -0.017 C 
ATOM     15  C   UNL     1      -0.322  -1.361   2.329  0.00  0.00    -0.082 C 
ENDBRANCH   7  15
ENDBRANCH   1  10
BRANCH   5  16
ATOM     16  C   UNL     1      -5.305  -0.812  -2.579  0.00  0.00    +0.068 A 
ATOM     17  C   UNL     1      -5.452   0.081  -1.527  0.00  0.00    +0.030 A 
ATOM     18  C   UNL     1      -5.759   1.403  -1.782  0.00  0.00    +0.040 A 
ATOM     19  C   UNL     1      -5.920   1.838  -3.087  0.00  0.00    +0.124 A 
ATOM     20  C   UNL     1      -5.774   0.949  -4.138  0.00  0.00    +0.040 A 
ATOM     21  C   UNL     1      -5.461  -0.373  -3.887  0.00  0.00    +0.030 A 
ATOM     22  F   UNL     1      -6.222   3.131  -3.334  0.00  0.00    -0.205 F 
ENDBRANCH   5  16
BRANCH   2  23
ATOM     23  C   UNL     1      -3.237  -4.897  -0.652  0.00  0.00    -0.038 C 
BRANCH  23  24
ATOM     24  N   UNL     1      -3.912  -5.175   0.622  0.00  0.00    +0.384 N 
ATOM     25  H   UNL     1      -4.092  -4.307   1.104  0.00  0.00    -0.081 HD
BRANCH  24  26
ATOM     26  C   UNL     1      -3.055  -6.029   1.455  0.00  0.00    -0.074 C 
BRANCH  26  27
ATOM     27  C   UNL     1      -1.799  -5.254   1.856  0.00  0.00    +0.016 C 
BRANCH  27  28
ATOM     28  C   UNL     1      -0.863  -6.167   2.606  0.00  0.00    -0.049 A 
ATOM     29  C   UNL     1      -0.959  -6.279   3.980  0.00  0.00    +0.003 A 
ATOM     30  C   UNL     1      -0.101  -7.116   4.668  0.00  0.00    +0.000 A 
ATOM     31  C   UNL     1       0.854  -7.843   3.980  0.00  0.00    +0.000 A 
ATOM     32  C   UNL     1       0.949  -7.732   2.606  0.00  0.00    +0.000 A 
ATOM     33  C   UNL     1       0.088  -6.898   1.918  0.00  0.00    +0.003 A 
ENDBRANCH  27  28
ENDBRANCH  26  27
ENDBRANCH  24  26
BRANCH  24  34
ATOM     34  C   UNL     1      -5.184  -5.863   0.362  0.00  0.00    -0.050 C 
BRANCH  34  35
ATOM     35  C   UNL     1      -5.956  -6.020   1.674  0.00  0.00    +0.141 C 
BRANCH  35  36
ATOM     36  O   UNL     1      -6.297  -4.729   2.184  0.00  0.00    -0.385 OA
ATOM     37  C   UNL     1      -7.024  -4.764   3.413  0.00  0.00    +0.193 C 
ENDBRANCH  35  36
ENDBRANCH  34  35
ENDBRANCH  24  34
ENDBRANCH  23  24
ENDBRANCH   2  23
TORSDOF 11
