REMARK  Name = ZINC08739660
REMARK  8 active torsions:
REMARK  status: ('A' for Active; 'I' for Inactive)
REMARK    1  A    between atoms: C_1  and  O_2
REMARK    2  A    between atoms: O_2  and  C_3
REMARK    3  A    between atoms: C_6  and  N_9
REMARK    4  A    between atoms: C_13  and  C_14
REMARK    5  A    between atoms: C_17  and  C_19
REMARK    6  A    between atoms: C_22  and  N_27
REMARK    7  A    between atoms: C_24  and  O_25
REMARK    8  A    between atoms: O_25  and  C_26
REMARK                            x       y       z     vdW  Elec       q    Type
REMARK                         _______ _______ _______ _____ _____    ______ ____
ROOT
ATOM      1  N   UNL     1      -4.865  -2.598  -0.405  0.00  0.00    -0.188 N 
ATOM      2  C   UNL     1      -4.956  -3.916  -0.121  0.00  0.00    +0.264 C 
ATOM      3  O   UNL     1      -4.016  -4.519   0.364  0.00  0.00    -0.269 OA
ATOM      4  C   UNL     1      -6.226  -4.598  -0.414  0.00  0.00    +0.105 C 
ATOM      5  C   UNL     1      -6.395  -5.960  -0.147  0.00  0.00    +0.064 C 
ATOM      6  C   UNL     1      -7.274  -3.821  -0.979  0.00  0.00    +0.277 C 
ATOM      7  O   UNL     1      -8.465  -4.388  -1.271  0.00  0.00    -0.268 OA
ATOM      8  N   UNL     1      -7.069  -2.536  -1.214  0.00  0.00    -0.123 NA
ATOM      9  C   UNL     1      -5.911  -1.942  -0.933  0.00  0.00    +0.340 C 
ATOM     10  O   UNL     1      -5.794  -0.753  -1.171  0.00  0.00    -0.250 OA
ENDROOT
BRANCH   1  14
ATOM     11  C   UNL     1      -1.318  -0.550   0.382  0.00  0.00    +0.120 A 
ATOM     12  C   UNL     1      -2.507  -0.120   0.951  0.00  0.00    +0.047 A 
ATOM     13  C   UNL     1      -3.682  -0.798   0.692  0.00  0.00    +0.027 A 
ATOM     14  C   UNL     1      -3.672  -1.909  -0.141  0.00  0.00    +0.046 A 
ATOM     15  C   UNL     1      -2.482  -2.338  -0.711  0.00  0.00    +0.027 A 
ATOM     16  C   UNL     1      -1.308  -1.657  -0.454  0.00  0.00    +0.047 A 
BRANCH  11  18
ATOM     17  C   UNL     1      -0.244   1.249   1.507  0.00  0.00    +0.277 C 
ATOM     18  O   UNL     1      -0.162   0.118   0.638  0.00  0.00    -0.495 OA
ENDBRANCH  11  18
ENDBRANCH   1  14
BRANCH   5  19
ATOM     19  C   UNL     1      -7.665  -6.537  -0.237  0.00  0.00    +0.129 A 
ATOM     20  C   UNL     1      -7.963  -7.771  -0.809  0.00  0.00    +0.050 A 
ATOM     21  C   UNL     1      -9.336  -7.951  -0.683  0.00  0.00    +0.050 A 
ATOM     22  C   UNL     1      -9.835  -6.831  -0.043  0.00  0.00    +0.139 A 
ATOM     23  O   UNL     1      -8.816  -5.997   0.221  0.00  0.00    -0.455 OA
BRANCH  22  24
ATOM     24  C   UNL     1     -11.249  -6.595   0.298  0.00  0.00    +0.059 A 
ATOM     25  C   UNL     1     -12.243  -6.762  -0.671  0.00  0.00    +0.017 A 
ATOM     26  C   UNL     1     -13.563  -6.539  -0.346  0.00  0.00    +0.033 A 
ATOM     27  C   UNL     1     -13.911  -6.150   0.938  0.00  0.00    +0.130 A 
ATOM     28  C   UNL     1     -12.939  -5.981   1.905  0.00  0.00    +0.079 A 
ATOM     29  C   UNL     1     -11.606  -6.207   1.597  0.00  0.00    +0.133 A 
BRANCH  27  30
ATOM     30  N   UNL     1     -15.332  -5.914   1.275  0.00  0.00    +0.057 N 
ATOM     31  O   UNL     1     -16.186  -6.060   0.431  0.00  0.00    -0.126 OA
ATOM     32  O   UNL     1     -15.640  -5.574   2.393  0.00  0.00    -0.126 OA
ENDBRANCH  27  30
BRANCH  29  33
ATOM     33  O   UNL     1     -10.651  -6.048   2.549  0.00  0.00    -0.494 OA
ATOM     34  C   UNL     1     -11.090  -5.651   3.849  0.00  0.00    +0.277 C 
ENDBRANCH  29  33
ENDBRANCH  22  24
ENDBRANCH   5  19
TORSDOF 6
