REMARK  Name = ZINC47540653
REMARK  9 active torsions:
REMARK  status: ('A' for Active; 'I' for Inactive)
REMARK    1  A    between atoms: C_1  and  C_2
REMARK    2  A    between atoms: C_2  and  C_3
REMARK    3  A    between atoms: C_3  and  C_5
REMARK    4  A    between atoms: C_3  and  N_6
REMARK    5  A    between atoms: C_7  and  C_9
REMARK    6  A    between atoms: C_9  and  C_10
REMARK    7  A    between atoms: C_10  and  N_11
REMARK    8  A    between atoms: N_14  and  C_15
REMARK    9  A    between atoms: C_20  and  N_21
REMARK                            x       y       z     vdW  Elec       q    Type
REMARK                         _______ _______ _______ _____ _____    ______ ____
ROOT
ATOM      1  N   UNL     1       6.240   0.938  -3.677  0.00  0.00    -0.299 N 
ATOM      2  C   UNL     1       6.934   1.095  -4.822  0.00  0.00    +0.304 C 
ATOM      3  O   UNL     1       6.396   0.890  -5.892  0.00  0.00    -0.253 OA
ATOM      4  N   UNL     1       8.226   1.479  -4.780  0.00  0.00    -0.267 N 
ATOM      5  H   UNL     1       6.670   1.102  -2.823  0.00  0.00    +0.150 HD
ATOM      6  H   UNL     1       8.632   1.722  -3.933  0.00  0.00    +0.156 HD
ENDROOT
BRANCH   4   7
ATOM      7  C   UNL     1       8.982   1.526  -5.959  0.00  0.00    +0.073 A 
ATOM      8  C   UNL     1       8.634   0.741  -7.051  0.00  0.00    +0.028 A 
ATOM      9  C   UNL     1       9.413   0.822  -8.198  0.00  0.00    +0.019 A 
ATOM     10  C   UNL     1      10.500   1.673  -8.220  0.00  0.00    +0.084 A 
ATOM     11  N   UNL     1      10.809   2.408  -7.168  0.00  0.00    -0.348 N 
ATOM     12  C   UNL     1      10.092   2.367  -6.056  0.00  0.00    +0.121 A 
ATOM     13  H   UNL     1      11.579   2.996  -7.212  0.00  0.00    +0.167 HD
BRANCH  12  14
ATOM     14  N   UNL     1      10.451   3.165  -4.974  0.00  0.00    -0.315 N 
ATOM     15  C   UNL     1       9.891   4.488  -4.661  0.00  0.00    +0.106 C 
ATOM     16  C   UNL     1      10.606   5.000  -3.392  0.00  0.00    +0.020 C 
ATOM     17  C   UNL     1      11.927   4.186  -3.386  0.00  0.00    +0.020 C 
ATOM     18  C   UNL     1      11.452   2.821  -3.947  0.00  0.00    +0.106 C 
ENDBRANCH  12  14
ENDBRANCH   4   7
BRANCH   1  19
ATOM     19  C   UNL     1       4.837   0.521  -3.723  0.00  0.00    +0.115 C 
BRANCH  19  20
ATOM     20  C   UNL     1       4.288   0.419  -2.298  0.00  0.00    +0.114 C 
BRANCH  20  22
ATOM     21  N   UNL     1       2.150  -0.166  -1.200  0.00  0.00    -0.313 N 
ATOM     22  C   UNL     1       2.844  -0.010  -2.345  0.00  0.00    +0.215 C 
ATOM     23  O   UNL     1       2.307  -0.214  -3.413  0.00  0.00    -0.276 OA
ATOM     24  H   UNL     1       2.580  -0.003  -0.346  0.00  0.00    +0.149 HD
BRANCH  21  25
ATOM     25  C   UNL     1       0.747  -0.584  -1.246  0.00  0.00    +0.070 C 
ATOM     26  C   UNL     1       0.671  -2.110  -1.329  0.00  0.00    +0.028 C 
BRANCH  25  28
ATOM     27  C   UNL     1      -0.002   1.424   0.038  0.00  0.00    +0.005 C 
ATOM     28  C   UNL     1       0.031  -0.105   0.019  0.00  0.00    +0.018 C 
ENDBRANCH  25  28
ENDBRANCH  21  25
ENDBRANCH  20  22
ENDBRANCH  19  20
ENDBRANCH   1  19
TORSDOF 7
