REMARK  Name = ZINC59187829
REMARK  13 active torsions:
REMARK  status: ('A' for Active; 'I' for Inactive)
REMARK    1  A    between atoms: C_1  and  C_2
REMARK    2  A    between atoms: C_5  and  C_29
REMARK    3  A    between atoms: C_6  and  N_8
REMARK    4  A    between atoms: N_8  and  C_9
REMARK    5  A    between atoms: C_9  and  N_11
REMARK    6  A    between atoms: N_11  and  C_12
REMARK    7  A    between atoms: N_11  and  C_19
REMARK    8  A    between atoms: C_12  and  C_13
REMARK    9  A    between atoms: C_16  and  C_18
REMARK   10  A    between atoms: C_21  and  C_27
REMARK   11  A    between atoms: C_21  and  C_28
REMARK   12  A    between atoms: C_23  and  C_25
REMARK   13  A    between atoms: C_23  and  C_26
REMARK                            x       y       z     vdW  Elec       q    Type
REMARK                         _______ _______ _______ _____ _____    ______ ____
ROOT
ATOM      1  N   UNL     1       0.283  -2.859   4.724  0.00  0.00    -0.302 N 
ENDROOT
BRANCH   1   2
ATOM      2  C   UNL     1       0.397  -4.323   4.692  0.00  0.00    +0.073 C 
ATOM      3  C   UNL     1      -0.880  -4.913   4.092  0.00  0.00    +0.009 C 
ATOM      4  C   UNL     1      -0.772  -6.437   4.042  0.00  0.00    -0.072 C 
ATOM      5  N   UNL     1       0.428  -6.878   3.345  0.00  0.00    +0.386 N 
ATOM      6  C   UNL     1       1.685  -6.234   3.691  0.00  0.00    -0.072 C 
ATOM      7  C   UNL     1       1.573  -4.717   3.800  0.00  0.00    +0.009 C 
ATOM      8  C   UNL     1       2.280  -6.808   4.980  0.00  0.00    -0.010 C 
ATOM      9  C   UNL     1       2.690  -6.540   2.555  0.00  0.00    -0.010 C 
ATOM     10  C   UNL     1      -1.991  -6.957   3.246  0.00  0.00    -0.010 C 
ATOM     11  C   UNL     1      -0.868  -7.021   5.450  0.00  0.00    -0.010 C 
ATOM     12  H   UNL     1       0.531  -7.886   3.490  0.00  0.00    -0.084 HD
ATOM     13  H   UNL     1       0.275  -6.767   2.340  0.00  0.00    -0.084 HD
ENDBRANCH   1   2
BRANCH   1  14
ATOM     14  C   UNL     1       0.244  -2.161   3.571  0.00  0.00    +0.138 C 
ATOM     15  S   UNL     1       0.144  -0.453   3.608  0.00  0.00    -0.018 S 
BRANCH  14  16
ATOM     16  N   UNL     1       0.285  -2.809   2.390  0.00  0.00    -0.297 N 
ATOM     17  H   UNL     1       0.218  -3.776   2.365  0.00  0.00    +0.154 HD
BRANCH  16  23
ATOM     18  C   UNL     1      -1.333   0.715  -0.633  0.00  0.00    +0.044 C 
ATOM     19  C   UNL     1      -0.347  -0.372  -0.290  0.00  0.00    -0.049 A 
ATOM     20  C   UNL     1       0.697  -0.655  -1.152  0.00  0.00    +0.004 A 
ATOM     21  C   UNL     1       1.603  -1.651  -0.841  0.00  0.00    +0.005 A 
ATOM     22  C   UNL     1       1.470  -2.367   0.333  0.00  0.00    -0.029 A 
ATOM     23  C   UNL     1       0.423  -2.086   1.200  0.00  0.00    +0.036 A 
ATOM     24  C   UNL     1      -0.483  -1.080   0.888  0.00  0.00    +0.027 A 
ATOM     25  C   UNL     1       2.458  -3.453   0.670  0.00  0.00    +0.045 C 
ENDBRANCH  16  23
ENDBRANCH  14  16
ENDBRANCH   1  14
BRANCH   1  26
ATOM     26  C   UNL     1       0.211  -2.157   6.008  0.00  0.00    +0.181 C 
BRANCH  26  27
ATOM     27  C   UNL     1      -1.230  -2.027   6.429  0.00  0.00    +0.122 A 
ATOM     28  C   UNL     1      -1.914  -2.910   7.178  0.00  0.00    +0.046 A 
ATOM     29  C   UNL     1      -3.222  -2.394   7.329  0.00  0.00    +0.045 A 
ATOM     30  C   UNL     1      -3.259  -1.226   6.662  0.00  0.00    +0.102 A 
ATOM     31  O   UNL     1      -2.048  -1.006   6.124  0.00  0.00    -0.463 OA
ATOM     32  C   UNL     1      -4.454  -0.316   6.544  0.00  0.00    +0.086 C 
ENDBRANCH  26  27
ENDBRANCH   1  26
TORSDOF 6
