REMARK  Name = ZINC44594296
REMARK  6 active torsions:
REMARK  status: ('A' for Active; 'I' for Inactive)
REMARK    1  A    between atoms: C_3  and  S_10
REMARK    2  A    between atoms: C_6  and  C_7
REMARK    3  A    between atoms: C_7  and  C_8
REMARK    4  A    between atoms: C_8  and  N_9
REMARK    5  A    between atoms: S_10  and  N_13
REMARK    6  A    between atoms: N_13  and  C_14
REMARK                            x       y       z     vdW  Elec       q    Type
REMARK                         _______ _______ _______ _____ _____    ______ ____
ROOT
ATOM      1  C   UNL     1       0.627  -0.411   2.110  0.00  0.00    +0.005 A 
ATOM      2  C   UNL     1       1.363   0.538   1.425  0.00  0.00    +0.029 A 
ATOM      3  C   UNL     1       2.732   0.396   1.304  0.00  0.00    +0.109 A 
ATOM      4  C   UNL     1       3.367  -0.694   1.869  0.00  0.00    +0.029 A 
ATOM      5  C   UNL     1       2.631  -1.643   2.555  0.00  0.00    +0.005 A 
ATOM      6  C   UNL     1       1.261  -1.502   2.675  0.00  0.00    -0.049 A 
ENDROOT
BRANCH   3   7
ATOM      7  S   UNL     1       3.670   1.605   0.430  0.00  0.00    +0.072 S 
ATOM      8  O   UNL     1       4.795   0.930  -0.116  0.00  0.00    -0.150 OA
ATOM      9  O   UNL     1       2.749   2.327  -0.377  0.00  0.00    -0.150 OA
BRANCH   7  10
ATOM     10  N   UNL     1       4.257   2.674   1.550  0.00  0.00    -0.216 N 
ATOM     11  H   UNL     1       5.214   2.768   1.676  0.00  0.00    +0.174 HD
BRANCH  10  12
ATOM     12  C   UNL     1       3.373   3.441   2.314  0.00  0.00    +0.048 A 
ATOM     13  C   UNL     1       2.717   4.523   1.742  0.00  0.00    +0.025 A 
ATOM     14  C   UNL     1       1.844   5.279   2.500  0.00  0.00    +0.017 A 
ATOM     15  C   UNL     1       1.624   4.960   3.828  0.00  0.00    +0.018 A 
ATOM     16  C   UNL     1       2.276   3.882   4.401  0.00  0.00    +0.017 A 
ATOM     17  C   UNL     1       3.145   3.119   3.646  0.00  0.00    +0.025 A 
ATOM     18 BR   UNL     1       0.429   5.998   4.862  0.00  0.00    -0.050 Br
ENDBRANCH  10  12
ENDBRANCH   7  10
ENDBRANCH   3   7
BRANCH   6  19
ATOM     19  C   UNL     1       0.460  -2.536   3.422  0.00  0.00    +0.015 C 
BRANCH  19  20
ATOM     20  C   UNL     1       0.003  -3.627   2.451  0.00  0.00    -0.082 C 
BRANCH  20  21
ATOM     21  N   UNL     1      -0.778  -4.635   3.179  0.00  0.00    +0.378 N 
ATOM     22  H   UNL     1      -0.207  -5.046   3.902  0.00  0.00    -0.090 HD
ATOM     23  H   UNL     1      -1.586  -4.197   3.597  0.00  0.00    -0.090 HD
ATOM     24  H   UNL     1      -1.080  -5.354   2.539  0.00  0.00    -0.090 HD
ENDBRANCH  20  21
ENDBRANCH  19  20
ENDBRANCH   6  19
TORSDOF 6
