REMARK  Name = ZINC67332416
REMARK  10 active torsions:
REMARK  status: ('A' for Active; 'I' for Inactive)
REMARK    1  A    between atoms: C_1  and  S_2
REMARK    2  A    between atoms: S_2  and  C_3
REMARK    3  A    between atoms: C_3  and  C_4
REMARK    4  A    between atoms: C_4  and  C_5
REMARK    5  A    between atoms: C_5  and  C_7
REMARK    6  A    between atoms: C_5  and  N_24
REMARK    7  A    between atoms: N_9  and  C_10
REMARK    8  A    between atoms: C_10  and  C_11
REMARK    9  A    between atoms: N_16  and  C_17
REMARK   10  A    between atoms: C_17  and  C_18
REMARK                            x       y       z     vdW  Elec       q    Type
REMARK                         _______ _______ _______ _____ _____    ______ ____
ROOT
ATOM      1  C   UNL     1       1.908  -3.402   2.755  0.00  0.00    +0.233 C 
ATOM      2  O   UNL     1       1.127  -3.993   3.470  0.00  0.00    -0.274 OA
ATOM      3  N   UNL     1       2.891  -4.077   2.127  0.00  0.00    -0.315 N 
ATOM      4  H   UNL     1       3.515  -3.604   1.555  0.00  0.00    +0.149 HD
ENDROOT
BRANCH   1   5
ATOM      5  C   UNL     1       1.779  -1.912   2.569  0.00  0.00    +0.161 C 
BRANCH   5   6
ATOM      6  N   UNL     1       0.993  -1.348   3.669  0.00  0.00    -0.288 N 
ATOM      7  C   UNL     1      -0.273  -1.762   3.874  0.00  0.00    +0.298 C 
ATOM      8  O   UNL     1      -0.764  -2.603   3.145  0.00  0.00    -0.253 OA
ATOM      9  N   UNL     1      -0.996  -1.243   4.886  0.00  0.00    -0.313 N 
ATOM     10  H   UNL     1       1.384  -0.678   4.251  0.00  0.00    +0.151 HD
ATOM     11  H   UNL     1      -0.605  -0.573   5.468  0.00  0.00    +0.146 HD
ATOM     12  H   UNL     1      -1.908  -1.541   5.033  0.00  0.00    +0.146 HD
ENDBRANCH   5   6
BRANCH   5  13
ATOM     13  C   UNL     1       1.077  -1.623   1.240  0.00  0.00    +0.042 C 
BRANCH  13  14
ATOM     14  C   UNL     1       1.057  -0.113   0.992  0.00  0.00    +0.071 C 
BRANCH  14  16
ATOM     15  C   UNL     1       0.284   2.037  -0.727  0.00  0.00    +0.084 C 
ATOM     16  S   UNL     1       0.224   0.229  -0.583  0.00  0.00    -0.164 S 
ENDBRANCH  14  16
ENDBRANCH  13  14
ENDBRANCH   5  13
ENDBRANCH   1   5
BRANCH   3  17
ATOM     17  C   UNL     1       3.016  -5.525   2.308  0.00  0.00    +0.089 C 
BRANCH  17  18
ATOM     18  C   UNL     1       4.204  -6.040   1.492  0.00  0.00    -0.051 C 
ATOM     19  C   UNL     1       4.244  -7.582   1.540  0.00  0.00    -0.016 C 
ATOM     20  C   UNL     1       3.540  -7.991   0.219  0.00  0.00    -0.020 C 
ATOM     21  C   UNL     1       4.014  -6.877  -0.747  0.00  0.00    -0.078 C 
ATOM     22  N   UNL     1       4.050  -5.647   0.080  0.00  0.00    +0.383 N 
ATOM     23  H   UNL     1       3.189  -5.133  -0.038  0.00  0.00    -0.081 HD
BRANCH  22  24
ATOM     24  C   UNL     1       5.185  -4.808  -0.327  0.00  0.00    -0.075 C 
BRANCH  24  25
ATOM     25  C   UNL     1       4.953  -4.288  -1.747  0.00  0.00    -0.028 C 
ATOM     26  C   UNL     1       6.194  -3.531  -2.222  0.00  0.00    +0.002 C 
ATOM     27  C   UNL     1       5.962  -3.011  -3.643  0.00  0.00    +0.000 C 
ATOM     28  C   UNL     1       4.756  -2.070  -3.651  0.00  0.00    +0.000 C 
ATOM     29  C   UNL     1       3.514  -2.828  -3.175  0.00  0.00    +0.000 C 
ATOM     30  C   UNL     1       3.747  -3.347  -1.755  0.00  0.00    +0.002 C 
ENDBRANCH  24  25
ENDBRANCH  22  24
ENDBRANCH  17  18
ENDBRANCH   3  17
TORSDOF 9
