REMARK  Name = ZINC40701134
REMARK  5 active torsions:
REMARK  status: ('A' for Active; 'I' for Inactive)
REMARK    1  A    between atoms: C_4  and  C_7
REMARK    2  A    between atoms: C_7  and  N_8
REMARK    3  A    between atoms: C_16  and  N_30
REMARK    4  A    between atoms: C_17  and  N_21
REMARK    5  A    between atoms: N_21  and  C_22
REMARK                            x       y       z     vdW  Elec       q    Type
REMARK                         _______ _______ _______ _____ _____    ______ ____
ROOT
ATOM      1  N   UNL     1       4.641  -1.958   2.394  0.00  0.00    -0.264 N 
ATOM      2  C   UNL     1       4.774  -3.223   2.959  0.00  0.00    +0.127 A 
ATOM      3  C   UNL     1       4.063  -4.294   2.426  0.00  0.00    +0.044 A 
ATOM      4  C   UNL     1       4.204  -5.546   2.998  0.00  0.00    +0.005 A 
ATOM      5  C   UNL     1       5.056  -5.685   4.086  0.00  0.00    +0.020 A 
ATOM      6  C   UNL     1       5.730  -4.579   4.562  0.00  0.00    +0.113 A 
ATOM      7  N   UNL     1       5.580  -3.398   3.994  0.00  0.00    -0.240 NA
ATOM      8  C   UNL     1       5.475  -0.923   2.803  0.00  0.00    +0.153 A 
ATOM      9  C   UNL     1       6.648  -0.638   2.101  0.00  0.00    +0.104 A 
ATOM     10  C   UNL     1       7.449   0.411   2.554  0.00  0.00    +0.126 A 
ATOM     11  N   UNL     1       7.067   1.096   3.630  0.00  0.00    -0.333 N 
ATOM     12  C   UNL     1       5.952   0.794   4.263  0.00  0.00    +0.200 A 
ATOM     13  N   UNL     1       5.165  -0.185   3.865  0.00  0.00    -0.220 NA
ATOM     14  H   UNL     1       7.617   1.827   3.952  0.00  0.00    +0.168 HD
ENDROOT
BRANCH   9  15
ATOM     15  N   UNL     1       7.013  -1.388   0.972  0.00  0.00    -0.353 N 
ATOM     16  H   UNL     1       6.407  -2.058   0.618  0.00  0.00    +0.143 HD
ATOM     17  H   UNL     1       7.871  -1.236   0.545  0.00  0.00    +0.143 HD
ENDBRANCH   9  15
BRANCH  10  18
ATOM     18  N   UNL     1       8.628   0.737   1.893  0.00  0.00    -0.299 N 
ATOM     19  H   UNL     1       8.855   0.294   1.060  0.00  0.00    +0.154 HD
BRANCH  18  20
ATOM     20  C   UNL     1       9.487   1.701   2.428  0.00  0.00    +0.035 A 
ATOM     21  C   UNL     1       9.726   1.737   3.796  0.00  0.00    +0.043 A 
ATOM     22  C   UNL     1      10.576   2.691   4.323  0.00  0.00    +0.044 A 
ATOM     23  C   UNL     1      11.188   3.610   3.489  0.00  0.00    +0.040 A 
ATOM     24  C   UNL     1      10.952   3.576   2.126  0.00  0.00    +0.044 A 
ATOM     25  C   UNL     1      10.107   2.621   1.593  0.00  0.00    +0.043 A 
ATOM     26 CL   UNL     1      11.721   4.732   1.083  0.00  0.00    -0.083 Cl
ATOM     27 CL   UNL     1      10.875   2.737   6.032  0.00  0.00    -0.083 Cl
ENDBRANCH  18  20
ENDBRANCH  10  18
BRANCH   1  28
ATOM     28  C   UNL     1       3.623  -1.718   1.368  0.00  0.00    +0.149 C 
BRANCH  28  32
ATOM     29  C   UNL     1      -0.015  -0.481   3.233  0.00  0.00    +0.000 A 
ATOM     30  C   UNL     1       0.922   0.461   2.855  0.00  0.00    +0.000 A 
ATOM     31  C   UNL     1       2.100   0.061   2.252  0.00  0.00    +0.005 A 
ATOM     32  C   UNL     1       2.340  -1.282   2.027  0.00  0.00    -0.030 A 
ATOM     33  C   UNL     1       1.403  -2.224   2.406  0.00  0.00    +0.005 A 
ATOM     34  C   UNL     1       0.224  -1.824   3.008  0.00  0.00    +0.000 A 
ENDBRANCH  28  32
ENDBRANCH   1  28
TORSDOF 5
