REMARK  Name = ZINC12988028
REMARK  5 active torsions:
REMARK  status: ('A' for Active; 'I' for Inactive)
REMARK    1  A    between atoms: C_1  and  C_2
REMARK    2  A    between atoms: C_2  and  C_3
REMARK    3  A    between atoms: C_2  and  C_4
REMARK    4  A    between atoms: C_12  and  C_14
REMARK    5  A    between atoms: C_28  and  C_29
REMARK                            x       y       z     vdW  Elec       q    Type
REMARK                         _______ _______ _______ _____ _____    ______ ____
ROOT
ATOM      1  C   UNL     1       8.620  -1.564   0.766  0.00  0.00    +0.051 A 
ATOM      2  C   UNL     1       9.543  -0.434   0.649  0.00  0.00    +0.013 A 
ATOM      3  C   UNL     1      10.917  -0.588   0.856  0.00  0.00    +0.011 A 
ATOM      4  C   UNL     1      11.742   0.491   0.735  0.00  0.00    +0.001 A 
ATOM      5  C   UNL     1      11.233   1.746   0.408  0.00  0.00    +0.002 A 
ATOM      6  C   UNL     1       9.901   1.931   0.201  0.00  0.00    +0.028 A 
ATOM      7  C   UNL     1       9.018   0.840   0.318  0.00  0.00    +0.072 A 
ATOM      8  N   UNL     1       7.709   0.990   0.121  0.00  0.00    -0.247 NA
ATOM      9  C   UNL     1       6.854  -0.015   0.216  0.00  0.00    +0.072 A 
ATOM     10  C   UNL     1       7.272  -1.320   0.543  0.00  0.00    -0.009 A 
ATOM     11  C   UNL     1       6.301  -2.463   0.649  0.00  0.00    +0.038 C 
ATOM     12  C   UNL     1       4.885  -1.962   0.919  0.00  0.00    +0.009 C 
ATOM     13  C   UNL     1       4.495  -0.940  -0.157  0.00  0.00    +0.038 C 
ATOM     14  C   UNL     1       5.418   0.251  -0.007  0.00  0.00    -0.018 C 
ATOM     15  C   UNL     1       4.946   1.513  -0.082  0.00  0.00    +0.052 C 
ENDROOT
BRANCH   1  24
ATOM     16  C   UNL     1       8.282  -4.792   5.988  0.00  0.00    +0.218 C 
ATOM     17  O   UNL     1       8.782  -5.859   6.276  0.00  0.00    -0.275 OA
ATOM     18  N   UNL     1       8.205  -4.410   4.698  0.00  0.00    -0.298 N 
ATOM     19  C   UNL     1       8.601  -5.329   3.621  0.00  0.00    +0.127 C 
ATOM     20  C   UNL     1       9.664  -4.641   2.756  0.00  0.00    +0.127 C 
ATOM     21  N   UNL     1       9.182  -3.299   2.400  0.00  0.00    -0.295 N 
ATOM     22  C   UNL     1       8.792  -2.378   3.476  0.00  0.00    +0.127 C 
ATOM     23  C   UNL     1       7.724  -3.068   4.342  0.00  0.00    +0.127 C 
ATOM     24  C   UNL     1       9.106  -2.918   1.109  0.00  0.00    +0.248 C 
ATOM     25  O   UNL     1       9.437  -3.686   0.228  0.00  0.00    -0.270 OA
BRANCH  16  27
ATOM     26  C   UNL     1       7.367  -4.734   8.292  0.00  0.00    +0.017 C 
ATOM     27  C   UNL     1       7.748  -3.892   7.073  0.00  0.00    +0.069 C 
ATOM     28  C   UNL     1       8.823  -2.878   7.469  0.00  0.00    +0.017 C 
ENDBRANCH  16  27
ENDBRANCH   1  24
BRANCH  15  29
ATOM     29  C   UNL     1       3.556   1.753  -0.472  0.00  0.00    +0.128 A 
ATOM     30  C   UNL     1       2.917   2.961  -0.468  0.00  0.00    +0.049 A 
ATOM     31  C   UNL     1       1.605   2.726  -0.912  0.00  0.00    +0.042 A 
ATOM     32  C   UNL     1       1.501   1.403  -1.164  0.00  0.00    +0.195 A 
ATOM     33  O   UNL     1       2.680   0.819  -0.897  0.00  0.00    -0.464 OA
ENDBRANCH  15  29
TORSDOF 3
