REMARK  Name = ZINC35427152
REMARK  8 active torsions:
REMARK  status: ('A' for Active; 'I' for Inactive)
REMARK    1  A    between atoms: C_1  and  C_2
REMARK    2  A    between atoms: C_2  and  O_3
REMARK    3  A    between atoms: O_3  and  C_4
REMARK    4  A    between atoms: C_9  and  N_10
REMARK    5  A    between atoms: C_25  and  C_27
REMARK    6  A    between atoms: C_30  and  O_33
REMARK    7  A    between atoms: O_33  and  C_34
REMARK    8  A    between atoms: N_36  and  C_39
REMARK                            x       y       z     vdW  Elec       q    Type
REMARK                         _______ _______ _______ _____ _____    ______ ____
ROOT
ATOM      1  N   UNL     1      -3.978  -2.624   0.036  0.00  0.00    -0.266 N 
ATOM      2  C   UNL     1      -5.316  -2.780  -0.020  0.00  0.00    +0.308 C 
ATOM      3  O   UNL     1      -5.803  -3.889   0.079  0.00  0.00    -0.252 OA
ATOM      4  N   UNL     1      -6.113  -1.706  -0.186  0.00  0.00    -0.268 N 
ATOM      5  C   UNL     1      -5.560  -0.346  -0.315  0.00  0.00    +0.148 C 
ATOM      6  C   UNL     1      -6.289   0.487  -1.346  0.00  0.00    +0.004 A 
ATOM      7  C   UNL     1      -5.715   0.873  -2.571  0.00  0.00    -0.034 A 
ATOM      8  C   UNL     1      -6.462   1.642  -3.409  0.00  0.00    -0.021 A 
ATOM      9  S   UNL     1      -7.992   1.852  -2.539  0.00  0.00    -0.077 S 
ATOM     10  C   UNL     1      -7.565   0.899  -1.113  0.00  0.00    +0.090 A 
ATOM     11  N   UNL     1      -8.296   0.570   0.022  0.00  0.00    -0.312 N 
ATOM     12  C   UNL     1      -9.066   1.322   0.842  0.00  0.00    +0.092 A 
ATOM     13  C   UNL     1      -9.501   0.531   1.849  0.00  0.00    +0.020 A 
ATOM     14  C   UNL     1      -8.990  -0.766   1.622  0.00  0.00    +0.025 A 
ATOM     15  C   UNL     1      -8.277  -0.724   0.488  0.00  0.00    +0.049 A 
ATOM     16  C   UNL     1      -7.588  -1.837  -0.252  0.00  0.00    +0.155 C 
ATOM     17  C   UNL     1      -6.053   2.171  -4.744  0.00  0.00    -0.036 C 
ATOM     18  N   UNL     1      -4.589   2.041  -4.866  0.00  0.00    +0.381 N 
ATOM     19  C   UNL     1      -4.189   0.674  -4.507  0.00  0.00    -0.074 C 
ATOM     20  C   UNL     1      -4.305   0.467  -2.994  0.00  0.00    +0.018 C 
ATOM     21  C   UNL     1      -4.186   2.322  -6.251  0.00  0.00    -0.096 C 
ATOM     22  H   UNL     1      -3.593  -1.733   0.032  0.00  0.00    +0.156 HD
ATOM     23  H   UNL     1      -4.140   2.697  -4.245  0.00  0.00    -0.082 HD
ENDROOT
BRANCH   1  29
ATOM     24  C   UNL     1      -1.835  -3.621   0.561  0.00  0.00    +0.142 A 
ATOM     25  C   UNL     1      -1.016  -4.737   0.627  0.00  0.00    +0.047 A 
ATOM     26  C   UNL     1      -1.496  -5.971   0.229  0.00  0.00    +0.004 A 
ATOM     27  C   UNL     1      -2.792  -6.096  -0.236  0.00  0.00    +0.002 A 
ATOM     28  C   UNL     1      -3.616  -4.988  -0.304  0.00  0.00    +0.027 A 
ATOM     29  C   UNL     1      -3.143  -3.748   0.099  0.00  0.00    +0.077 A 
BRANCH  24  30
ATOM     30  O   UNL     1      -1.365  -2.407   0.951  0.00  0.00    -0.490 OA
BRANCH  30  32
ATOM     31  C   UNL     1       0.333  -0.915   1.806  0.00  0.00    +0.048 C 
ATOM     32  C   UNL     1      -0.014  -2.352   1.414  0.00  0.00    +0.226 C 
ENDBRANCH  30  32
ENDBRANCH  24  30
ENDBRANCH   1  29
BRANCH  16  33
ATOM     33  C   UNL     1      -8.019  -1.812  -1.696  0.00  0.00    -0.021 A 
ATOM     34  C   UNL     1      -7.119  -2.151  -2.690  0.00  0.00    +0.009 A 
ATOM     35  C   UNL     1      -7.511  -2.130  -4.015  0.00  0.00    +0.046 A 
ATOM     36  C   UNL     1      -8.809  -1.768  -4.347  0.00  0.00    +0.120 A 
ATOM     37  C   UNL     1      -9.709  -1.429  -3.348  0.00  0.00    +0.046 A 
ATOM     38  C   UNL     1      -9.314  -1.457  -2.025  0.00  0.00    +0.009 A 
BRANCH  36  39
ATOM     39  O   UNL     1      -9.197  -1.745  -5.649  0.00  0.00    -0.495 OA
ATOM     40  C   UNL     1     -10.547  -1.363  -5.918  0.00  0.00    +0.277 C 
ENDBRANCH  36  39
ENDBRANCH  16  33
TORSDOF 5
