REMARK  Name = ZINC38845846
REMARK  10 active torsions:
REMARK  status: ('A' for Active; 'I' for Inactive)
REMARK    1  A    between atoms: C_1  and  C_2
REMARK    2  A    between atoms: C_3  and  C_14
REMARK    3  A    between atoms: C_4  and  C_7
REMARK    4  A    between atoms: N_16  and  C_17
REMARK    5  A    between atoms: C_17  and  C_18
REMARK    6  A    between atoms: C_18  and  N_19
REMARK    7  A    between atoms: N_19  and  C_20
REMARK    8  A    between atoms: N_19  and  C_21
REMARK    9  A    between atoms: C_30  and  S_31
REMARK   10  A    between atoms: S_31  and  C_34
REMARK                            x       y       z     vdW  Elec       q    Type
REMARK                         _______ _______ _______ _____ _____    ______ ____
ROOT
ATOM      1  C   UNL     1      -2.548  -0.614  -0.161  0.00  0.00    +0.258 C 
ATOM      2  O   UNL     1      -3.061  -0.580  -1.264  0.00  0.00    -0.269 OA
ATOM      3  N   UNL     1      -3.179  -0.061   0.893  0.00  0.00    -0.248 N 
ATOM      4  C   UNL     1      -4.457   0.450   0.744  0.00  0.00    +0.168 A 
ATOM      5  N   UNL     1      -5.212   0.481  -0.330  0.00  0.00    -0.222 NA
ATOM      6  C   UNL     1      -6.452   1.016  -0.330  0.00  0.00    +0.105 A 
ATOM      7  C   UNL     1      -6.893   1.542   0.906  0.00  0.00    +0.043 A 
ATOM      8  S   UNL     1      -5.504   1.226   1.968  0.00  0.00    -0.052 S 
ATOM      9  C   UNL     1      -8.127   2.118   1.067  0.00  0.00    +0.017 A 
ATOM     10  C   UNL     1      -8.991   2.196  -0.010  0.00  0.00    +0.003 A 
ATOM     11  C   UNL     1      -8.592   1.689  -1.238  0.00  0.00    +0.029 A 
ATOM     12  C   UNL     1      -7.361   1.112  -1.409  0.00  0.00    +0.114 A 
ENDROOT
BRANCH   1  15
ATOM     13  C   UNL     1      -2.070  -3.583   0.690  0.00  0.00    +0.090 C 
ATOM     14  C   UNL     1      -1.012  -2.553   0.392  0.00  0.00    +0.147 A 
ATOM     15  C   UNL     1      -1.237  -1.259   0.021  0.00  0.00    +0.107 A 
ATOM     16  C   UNL     1       0.082  -0.634  -0.161  0.00  0.00    +0.127 A 
ATOM     17  N   UNL     1       0.977  -1.552   0.101  0.00  0.00    -0.077 NA
ATOM     18  O   UNL     1       0.308  -2.747   0.452  0.00  0.00    -0.359 OA
BRANCH  16  19
ATOM     19  C   UNL     1       0.346   0.768  -0.564  0.00  0.00    +0.023 A 
ATOM     20  C   UNL     1      -0.715   1.639  -0.807  0.00  0.00    +0.011 A 
ATOM     21  C   UNL     1      -0.463   2.942  -1.182  0.00  0.00    +0.001 A 
ATOM     22  C   UNL     1       0.841   3.387  -1.318  0.00  0.00    +0.001 A 
ATOM     23  C   UNL     1       1.898   2.529  -1.079  0.00  0.00    +0.020 A 
ATOM     24  C   UNL     1       1.658   1.222  -0.697  0.00  0.00    +0.050 A 
ATOM     25 CL   UNL     1       2.987   0.148  -0.390  0.00  0.00    -0.083 Cl
ENDBRANCH  16  19
ENDBRANCH   1  15
BRANCH  12  26
ATOM     26  S   UNL     1      -6.905   0.484  -2.991  0.00  0.00    -0.004 S 
ATOM     27  O   UNL     1      -6.454  -0.840  -2.739  0.00  0.00    -0.170 OA
ATOM     28  O   UNL     1      -8.038   0.719  -3.815  0.00  0.00    -0.170 OA
ATOM     29  C   UNL     1      -5.518   1.525  -3.524  0.00  0.00    +0.200 C 
ENDBRANCH  12  26
BRANCH   3  30
ATOM     30  C   UNL     1      -2.513   0.001   2.196  0.00  0.00    +0.097 C 
BRANCH  30  31
ATOM     31  C   UNL     1      -1.851   1.369   2.367  0.00  0.00    -0.060 C 
BRANCH  31  32
ATOM     32  N   UNL     1      -1.075   1.386   3.614  0.00  0.00    +0.377 N 
ATOM     33  C   UNL     1      -0.343   2.656   3.718  0.00  0.00    -0.097 C 
ATOM     34  C   UNL     1      -1.985   1.250   4.759  0.00  0.00    -0.097 C 
ATOM     35  H   UNL     1      -0.419   0.619   3.612  0.00  0.00    -0.083 HD
ENDBRANCH  31  32
ENDBRANCH  30  31
ENDBRANCH   3  30
TORSDOF 6
