REMARK  Name = ZINC52067733
REMARK  11 active torsions:
REMARK  status: ('A' for Active; 'I' for Inactive)
REMARK    1  A    between atoms: C_1  and  C_2
REMARK    2  A    between atoms: C_2  and  C_3
REMARK    3  A    between atoms: C_3  and  N_4
REMARK    4  A    between atoms: N_4  and  C_5
REMARK    5  A    between atoms: C_5  and  C_7
REMARK    6  A    between atoms: C_5  and  C_8
REMARK    7  A    between atoms: C_13  and  O_14
REMARK    8  A    between atoms: O_14  and  C_15
REMARK    9  A    between atoms: C_15  and  C_16
REMARK   10  A    between atoms: N_18  and  C_19
REMARK   11  A    between atoms: C_19  and  C_20
REMARK                            x       y       z     vdW  Elec       q    Type
REMARK                         _______ _______ _______ _____ _____    ______ ____
ROOT
ATOM      1  C   UNL     1       1.555  -3.941  -2.422  0.00  0.00    -0.019 A 
ATOM      2  C   UNL     1       0.660  -4.687  -1.680  0.00  0.00    +0.020 A 
ATOM      3  C   UNL     1       0.778  -6.064  -1.632  0.00  0.00    +0.018 A 
ATOM      4  C   UNL     1       1.792  -6.698  -2.329  0.00  0.00    +0.019 A 
ATOM      5  C   UNL     1       2.688  -5.956  -3.073  0.00  0.00    +0.047 A 
ATOM      6  C   UNL     1       2.568  -4.574  -3.126  0.00  0.00    +0.123 A 
ATOM      7 BR   UNL     1      -0.448  -7.082  -0.614  0.00  0.00    -0.050 Br
ENDROOT
BRANCH   1   8
ATOM      8  C   UNL     1       1.426  -2.440  -2.474  0.00  0.00    -0.040 C 
ATOM      9  C   UNL     1       0.618  -2.039  -3.710  0.00  0.00    -0.009 C 
BRANCH   8  10
ATOM     10  N   UNL     1       0.738  -1.966  -1.265  0.00  0.00    +0.383 N 
ATOM     11  H   UNL     1       1.226  -2.301  -0.447  0.00  0.00    -0.085 HD
ATOM     12  H   UNL     1      -0.208  -2.316  -1.258  0.00  0.00    -0.085 HD
BRANCH  10  13
ATOM     13  C   UNL     1       0.718  -0.497  -1.257  0.00  0.00    -0.082 C 
BRANCH  13  15
ATOM     14  C   UNL     1      -0.019   1.526   0.010  0.00  0.00    +0.002 C 
ATOM     15  C   UNL     1       0.002  -0.004   0.002  0.00  0.00    -0.022 C 
ENDBRANCH  13  15
ENDBRANCH  10  13
ENDBRANCH   8  10
ENDBRANCH   1   8
BRANCH   6  16
ATOM     16  O   UNL     1       3.447  -3.843  -3.861  0.00  0.00    -0.483 OA
BRANCH  16  17
ATOM     17  C   UNL     1       4.465  -4.562  -4.560  0.00  0.00    +0.324 C 
BRANCH  17  18
ATOM     18  C   UNL     1       5.337  -3.592  -5.314  0.00  0.00    +0.251 C 
ATOM     19  O   UNL     1       5.110  -2.402  -5.259  0.00  0.00    -0.272 OA
ATOM     20  N   UNL     1       6.371  -4.047  -6.050  0.00  0.00    -0.300 N 
ATOM     21  H   UNL     1       6.553  -4.999  -6.094  0.00  0.00    +0.150 HD
BRANCH  20  22
ATOM     22  C   UNL     1       7.219  -3.104  -6.784  0.00  0.00    +0.223 C 
BRANCH  22  23
ATOM     23  C   UNL     1       8.268  -3.845  -7.503  0.00  0.00    +0.081 C 
ATOM     24  N   UNL     1       9.078  -4.417  -8.058  0.00  0.00    -0.195 NA
ENDBRANCH  22  23
ENDBRANCH  20  22
ENDBRANCH  17  18
ENDBRANCH  16  17
ENDBRANCH   6  16
TORSDOF 9
