REMARK  Name = ZINC22798794
REMARK  8 active torsions:
REMARK  status: ('A' for Active; 'I' for Inactive)
REMARK    1  A    between atoms: C_1  and  N_2
REMARK    2  A    between atoms: N_2  and  C_3
REMARK    3  A    between atoms: C_3  and  C_4
REMARK    4  A    between atoms: N_6  and  C_7
REMARK    5  A    between atoms: C_14  and  C_16
REMARK    6  A    between atoms: C_16  and  N_17
REMARK    7  A    between atoms: N_20  and  C_23
REMARK    8  A    between atoms: C_23  and  C_24
REMARK                            x       y       z     vdW  Elec       q    Type
REMARK                         _______ _______ _______ _____ _____    ______ ____
ROOT
ATOM      1  C   UNL     1       2.966   0.584  -1.267  0.00  0.00    +0.132 C 
ATOM      2  N   UNL     1       2.406   1.042   0.007  0.00  0.00    -0.297 N 
ATOM      3  C   UNL     1       2.927   0.601   1.169  0.00  0.00    +0.199 C 
ATOM      4  O   UNL     1       2.464   0.979   2.224  0.00  0.00    -0.278 OA
ENDROOT
BRANCH   2   5
ATOM      5  C   UNL     1       1.280   1.979   0.018  0.00  0.00    +0.203 C 
BRANCH   5   6
ATOM      6  C   UNL     1      -0.015   1.208   0.015  0.00  0.00    +0.235 C 
ATOM      7  O   UNL     1       0.001  -0.004   0.004  0.00  0.00    -0.274 OA
ATOM      8  N   UNL     1      -1.191   1.867   0.018  0.00  0.00    -0.283 N 
ATOM      9  H   UNL     1      -1.207   2.963   0.102  0.00  0.00    +0.155 HD
BRANCH   8  10
ATOM     10  C   UNL     1      -2.391   1.155  -0.086  0.00  0.00    +0.047 A 
ATOM     11  C   UNL     1      -2.510  -0.099   0.499  0.00  0.00    +0.024 A 
ATOM     12  C   UNL     1      -3.698  -0.796   0.399  0.00  0.00    +0.002 A 
ATOM     13  C   UNL     1      -4.765  -0.252  -0.291  0.00  0.00    +0.001 A 
ATOM     14  C   UNL     1      -4.649   0.994  -0.880  0.00  0.00    +0.017 A 
ATOM     15  C   UNL     1      -3.465   1.699  -0.779  0.00  0.00    +0.039 A 
ATOM     16 BR   UNL     1      -3.307   3.402  -1.585  0.00  0.00    -0.048 Br
ENDBRANCH   8  10
ENDBRANCH   5   6
ENDBRANCH   2   5
BRANCH   3  17
ATOM     17  C   UNL     1       4.086  -0.364   1.158  0.00  0.00    +0.019 C 
BRANCH  17  18
ATOM     18  N   UNL     1       4.465  -0.689   2.539  0.00  0.00    +0.387 N 
ATOM     19  C   UNL     1       5.004   0.492   3.229  0.00  0.00    -0.063 C 
ATOM     20  C   UNL     1       5.313   0.132   4.684  0.00  0.00    +0.066 C 
ATOM     21  N   UNL     1       6.274  -0.979   4.718  0.00  0.00    -0.302 NA
ATOM     22  C   UNL     1       5.736  -2.159   4.028  0.00  0.00    +0.066 C 
ATOM     23  C   UNL     1       5.427  -1.800   2.573  0.00  0.00    -0.063 C 
ATOM     24  H   UNL     1       3.558  -1.009   3.072  0.00  0.00    -0.081 HD
BRANCH  21  25
ATOM     25  C   UNL     1       6.654  -1.304   6.099  0.00  0.00    +0.119 C 
BRANCH  25  26
ATOM     26  C   UNL     1       6.968  -0.033   6.847  0.00  0.00    -0.032 A 
ATOM     27  C   UNL     1       8.259   0.461   6.859  0.00  0.00    +0.005 A 
ATOM     28  C   UNL     1       8.546   1.629   7.540  0.00  0.00    +0.002 A 
ATOM     29  C   UNL     1       7.544   2.298   8.218  0.00  0.00    +0.020 A 
ATOM     30  C   UNL     1       6.253   1.801   8.211  0.00  0.00    +0.041 A 
ATOM     31  C   UNL     1       5.965   0.634   7.525  0.00  0.00    +0.025 A 
ATOM     32 CL   UNL     1       4.995   2.640   9.063  0.00  0.00    -0.084 Cl
ENDBRANCH  25  26
ENDBRANCH  21  25
ENDBRANCH  17  18
ENDBRANCH   3  17
TORSDOF 7
