REMARK  Name = ZINC09767067
REMARK  6 active torsions:
REMARK  status: ('A' for Active; 'I' for Inactive)
REMARK    1  A    between atoms: C_1  and  C_2
REMARK    2  A    between atoms: C_3  and  C_28
REMARK    3  A    between atoms: C_7  and  N_12
REMARK    4  A    between atoms: C_9  and  C_11
REMARK    5  A    between atoms: C_17  and  C_18
REMARK    6  A    between atoms: C_17  and  N_51
REMARK                            x       y       z     vdW  Elec       q    Type
REMARK                         _______ _______ _______ _____ _____    ______ ____
ROOT
ATOM      1  N   UNL     1      -4.753   3.576   3.974  0.00  0.00    -0.318 N 
ATOM      2  C   UNL     1      -4.242   4.388   2.861  0.00  0.00    +0.088 C 
ATOM      3  C   UNL     1      -4.246   3.552   1.579  0.00  0.00    -0.059 C 
ATOM      4  C   UNL     1      -3.930   1.542   2.889  0.00  0.00    -0.059 C 
ATOM      5  C   UNL     1      -3.926   2.378   4.171  0.00  0.00    +0.088 C 
ATOM      6  N   UNL     1      -3.393   2.363   1.783  0.00  0.00    +0.385 N 
ATOM      7  H   UNL     1      -2.444   2.671   2.026  0.00  0.00    -0.081 HD
ENDROOT
BRANCH   1  14
ATOM      8  C   UNL     1      -7.593   3.199   4.179  0.00  0.00    +0.045 C 
ATOM      9  C   UNL     1      -7.404   4.040   5.415  0.00  0.00    -0.028 A 
ATOM     10  C   UNL     1      -8.453   4.356   6.188  0.00  0.00    -0.008 A 
ATOM     11  S   UNL     1      -7.731   5.337   7.491  0.00  0.00    -0.074 S 
ATOM     12  C   UNL     1      -6.039   5.296   6.962  0.00  0.00    +0.114 A 
ATOM     13  C   UNL     1      -6.082   4.518   5.783  0.00  0.00    +0.051 A 
ATOM     14  C   UNL     1      -4.831   4.322   5.137  0.00  0.00    +0.133 A 
ATOM     15  N   UNL     1      -3.742   4.856   5.664  0.00  0.00    -0.217 NA
ATOM     16  C   UNL     1      -3.776   5.579   6.769  0.00  0.00    +0.129 A 
ATOM     17  N   UNL     1      -4.907   5.796   7.414  0.00  0.00    -0.225 NA
ATOM     18  C   UNL     1      -2.496   6.162   7.309  0.00  0.00    +0.088 C 
ATOM     19  C   UNL     1      -9.899   3.974   6.000  0.00  0.00    +0.052 C 
ENDBRANCH   1  14
BRANCH   6  20
ATOM     20  C   UNL     1      -3.336   1.562   0.542  0.00  0.00    -0.022 C 
BRANCH  20  21
ATOM     21  C   UNL     1      -2.294   0.486   0.704  0.00  0.00    +0.033 A 
ATOM     22  C   UNL     1      -2.652  -0.845   0.693  0.00  0.00    +0.092 A 
ATOM     23  C   UNL     1      -1.673  -1.827   0.844  0.00  0.00    +0.259 A 
ATOM     24  O   UNL     1      -1.985  -3.008   0.835  0.00  0.00    -0.267 OA
ATOM     25  N   UNL     1      -0.365  -1.467   1.003  0.00  0.00    -0.262 N 
ATOM     26  C   UNL     1       0.707  -2.312   1.164  0.00  0.00    +0.104 A 
ATOM     27  C   UNL     1       1.943  -1.835   1.311  0.00  0.00    +0.067 A 
ATOM     28  S   UNL     1       1.667  -0.072   1.228  0.00  0.00    -0.058 S 
ATOM     29  C   UNL     1      -0.097  -0.123   1.002  0.00  0.00    +0.180 A 
ATOM     30  N   UNL     1      -1.012   0.804   0.865  0.00  0.00    -0.229 NA
ENDBRANCH  20  21
ENDBRANCH   6  20
TORSDOF 3
