REMARK  Name = ZINC51359310
REMARK  3 active torsions:
REMARK  status: ('A' for Active; 'I' for Inactive)
REMARK    1  A    between atoms: C_2  and  S_11
REMARK    2  A    between atoms: S_11  and  N_14
REMARK    3  A    between atoms: C_18  and  C_20
REMARK                            x       y       z     vdW  Elec       q    Type
REMARK                         _______ _______ _______ _____ _____    ______ ____
ROOT
ATOM      1  S   UNL     1       1.251   3.917  -0.157  0.00  0.00    +0.068 S 
ATOM      2  O   UNL     1      -0.034   3.350   0.055  0.00  0.00    -0.153 OA
ATOM      3  O   UNL     1       2.290   3.218  -0.830  0.00  0.00    -0.153 OA
ENDROOT
BRANCH   1   5
ATOM      4  C   UNL     1       1.845   5.779  -2.033  0.00  0.00    +0.121 A 
ATOM      5  C   UNL     1       1.000   5.419  -1.044  0.00  0.00    +0.185 A 
ATOM      6  C   UNL     1      -0.091   6.263  -0.728  0.00  0.00    +0.280 A 
ATOM      7  O   UNL     1      -0.867   5.960   0.161  0.00  0.00    -0.266 OA
ATOM      8  N   UNL     1      -0.264   7.408  -1.420  0.00  0.00    -0.273 N 
ATOM      9  H   UNL     1      -1.009   7.992  -1.210  0.00  0.00    +0.173 HD
ATOM     10  C   UNL     1       0.594   7.743  -2.402  0.00  0.00    +0.327 A 
ATOM     11  O   UNL     1       0.425   8.778  -3.018  0.00  0.00    -0.247 OA
ATOM     12  N   UNL     1       1.635   6.949  -2.711  0.00  0.00    -0.312 N 
ATOM     13  H   UNL     1       2.242   7.208  -3.422  0.00  0.00    +0.170 HD
ENDBRANCH   1   5
BRANCH   1  14
ATOM     14  N   UNL     1       1.843   4.322   1.335  0.00  0.00    -0.175 NA
ATOM     15  C   UNL     1       1.042   4.476   2.564  0.00  0.00    +0.110 C 
ATOM     16  C   UNL     1       1.877   5.419   3.466  0.00  0.00    +0.019 C 
ATOM     17  C   UNL     1       3.323   4.949   3.154  0.00  0.00    +0.020 C 
ATOM     18  C   UNL     1       3.254   4.582   1.657  0.00  0.00    +0.066 C 
BRANCH  18  19
ATOM     19  C   UNL     1       4.088   3.328   1.386  0.00  0.00    -0.053 C 
ATOM     20  C   UNL     1       3.523   2.138   2.190  0.00  0.00    -0.016 C 
ATOM     21  C   UNL     1       4.801   1.384   2.643  0.00  0.00    -0.021 C 
ATOM     22  C   UNL     1       5.782   2.556   2.897  0.00  0.00    -0.082 C 
ATOM     23  N   UNL     1       5.476   3.543   1.835  0.00  0.00    +0.382 N 
ATOM     24  H   UNL     1       6.108   3.415   1.058  0.00  0.00    -0.085 HD
ATOM     25  H   UNL     1       5.574   4.478   2.201  0.00  0.00    -0.085 HD
ENDBRANCH  18  19
ENDBRANCH   1  14
TORSDOF 3
