REMARK  Name = ZINC05291020
REMARK  7 active torsions:
REMARK  status: ('A' for Active; 'I' for Inactive)
REMARK    1  A    between atoms: C_1  and  C_2
REMARK    2  A    between atoms: C_2  and  C_4
REMARK    3  A    between atoms: C_2  and  N_14
REMARK    4  A    between atoms: C_7  and  S_10
REMARK    5  A    between atoms: S_10  and  N_13
REMARK    6  A    between atoms: C_15  and  C_16
REMARK    7  A    between atoms: C_21  and  O_22
REMARK                            x       y       z     vdW  Elec       q    Type
REMARK                         _______ _______ _______ _____ _____    ______ ____
ROOT
ATOM      1  C   UNL     1      -0.036   1.534  -0.002  0.00  0.00    +0.035 C 
ATOM      2  C   UNL     1      -0.003   0.005  -0.003  0.00  0.00    +0.106 C 
ENDROOT
BRANCH   2   3
ATOM      3  C   UNL     1       0.733  -0.483   1.218  0.00  0.00    -0.025 A 
ATOM      4  C   UNL     1       2.115  -0.482   1.239  0.00  0.00    +0.007 A 
ATOM      5  C   UNL     1       2.789  -0.930   2.359  0.00  0.00    +0.029 A 
ATOM      6  C   UNL     1       2.082  -1.378   3.459  0.00  0.00    +0.105 A 
ATOM      7  C   UNL     1       0.700  -1.377   3.439  0.00  0.00    +0.029 A 
ATOM      8  C   UNL     1       0.025  -0.926   2.320  0.00  0.00    +0.007 A 
BRANCH   6   9
ATOM      9  S   UNL     1       2.942  -1.949   4.887  0.00  0.00    +0.056 S 
ATOM     10  O   UNL     1       2.056  -2.824   5.572  0.00  0.00    -0.153 OA
ATOM     11  O   UNL     1       4.230  -2.359   4.448  0.00  0.00    -0.153 OA
BRANCH   9  12
ATOM     12  N   UNL     1       3.173  -0.641   5.876  0.00  0.00    -0.204 NA
ATOM     13  H   UNL     1       2.848   0.233   5.608  0.00  0.00    +0.144 HD
ATOM     14  H   UNL     1       3.634  -0.749   6.723  0.00  0.00    +0.144 HD
ENDBRANCH   9  12
ENDBRANCH   6   9
ENDBRANCH   2   3
BRANCH   2  15
ATOM     15  N   UNL     1       0.684  -0.468  -1.208  0.00  0.00    -0.383 N 
ATOM     16  C   UNL     1       0.061  -1.224  -2.053  0.00  0.00    +0.090 C 
ATOM     17  H   UNL     1       1.605  -0.213  -1.372  0.00  0.00    +0.160 HD
BRANCH  16  18
ATOM     18  C   UNL     1       0.713  -1.609  -3.318  0.00  0.00    +0.033 A 
ATOM     19  C   UNL     1       0.004  -2.328  -4.284  0.00  0.00    +0.033 A 
ATOM     20  C   UNL     1       0.620  -2.684  -5.465  0.00  0.00    +0.042 A 
ATOM     21  C   UNL     1       1.940  -2.332  -5.699  0.00  0.00    +0.023 A 
ATOM     22  C   UNL     1       2.651  -1.621  -4.752  0.00  0.00    +0.047 A 
ATOM     23  C   UNL     1       2.046  -1.250  -3.561  0.00  0.00    +0.125 A 
ATOM     24 CL   UNL     1      -0.261  -3.578  -6.664  0.00  0.00    -0.084 Cl
BRANCH  23  25
ATOM     25  O   UNL     1       2.742  -0.547  -2.632  0.00  0.00    -0.506 OA
ATOM     26  H   UNL     1       3.215  -1.099  -1.994  0.00  0.00    +0.292 HD
ENDBRANCH  23  25
ENDBRANCH  16  18
ENDBRANCH   2  15
TORSDOF 6
