REMARK  Name = ZINC38002544
REMARK  8 active torsions:
REMARK  status: ('A' for Active; 'I' for Inactive)
REMARK    1  A    between atoms: C_1  and  C_2
REMARK    2  A    between atoms: C_2  and  C_4
REMARK    3  A    between atoms: C_2  and  N_14
REMARK    4  A    between atoms: C_7  and  S_10
REMARK    5  A    between atoms: S_10  and  N_13
REMARK    6  A    between atoms: N_14  and  C_15
REMARK    7  A    between atoms: C_15  and  C_17
REMARK    8  A    between atoms: C_15  and  C_18
REMARK                            x       y       z     vdW  Elec       q    Type
REMARK                         _______ _______ _______ _____ _____    ______ ____
ROOT
ATOM      1  C   UNL     1       0.316   1.619  -0.025  0.00  0.00    -0.009 C 
ATOM      2  C   UNL     1       0.084   0.107  -0.009  0.00  0.00    -0.043 C 
ENDROOT
BRANCH   2   3
ATOM      3  C   UNL     1       0.819  -0.502   1.157  0.00  0.00    -0.062 A 
ATOM      4  C   UNL     1       2.178  -0.740   1.069  0.00  0.00    +0.004 A 
ATOM      5  C   UNL     1       2.852  -1.298   2.139  0.00  0.00    +0.029 A 
ATOM      6  C   UNL     1       2.168  -1.617   3.297  0.00  0.00    +0.105 A 
ATOM      7  C   UNL     1       0.809  -1.378   3.385  0.00  0.00    +0.029 A 
ATOM      8  C   UNL     1       0.136  -0.816   2.317  0.00  0.00    +0.004 A 
BRANCH   6   9
ATOM      9  S   UNL     1       3.027  -2.330   4.660  0.00  0.00    +0.056 S 
ATOM     10  O   UNL     1       2.061  -3.039   5.424  0.00  0.00    -0.153 OA
ATOM     11  O   UNL     1       4.186  -2.956   4.127  0.00  0.00    -0.153 OA
BRANCH   9  12
ATOM     12  N   UNL     1       3.558  -1.082   5.611  0.00  0.00    -0.204 NA
ATOM     13  H   UNL     1       3.368  -0.165   5.358  0.00  0.00    +0.144 HD
ATOM     14  H   UNL     1       4.059  -1.268   6.420  0.00  0.00    +0.144 HD
ENDBRANCH   9  12
ENDBRANCH   6   9
ENDBRANCH   2   3
BRANCH   2  15
ATOM     15  N   UNL     1       0.583  -0.478  -1.261  0.00  0.00    +0.388 N 
ATOM     16  H   UNL     1       1.544  -0.207  -1.400  0.00  0.00    -0.084 HD
ATOM     17  H   UNL     1       0.521  -1.484  -1.211  0.00  0.00    -0.084 HD
BRANCH  15  18
ATOM     18  C   UNL     1      -0.230   0.006  -2.386  0.00  0.00    -0.036 C 
ATOM     19  C   UNL     1       0.374  -0.489  -3.701  0.00  0.00    -0.008 C 
BRANCH  18  20
ATOM     20  C   UNL     1      -1.637  -0.517  -2.251  0.00  0.00    -0.023 A 
ATOM     21  C   UNL     1      -2.809   0.114  -2.501  0.00  0.00    +0.010 A 
ATOM     22  C   UNL     1      -3.995  -0.570  -2.305  0.00  0.00    +0.023 A 
ATOM     23  C   UNL     1      -3.948  -1.853  -1.867  0.00  0.00    +0.055 A 
ATOM     24  S   UNL     1      -2.190  -2.131  -1.727  0.00  0.00    -0.088 S 
ATOM     25 BR   UNL     1      -5.375  -3.041  -1.506  0.00  0.00    -0.043 Br
ENDBRANCH  18  20
ENDBRANCH  15  18
ENDBRANCH   2  15
TORSDOF 6
