REMARK  Name = ZINC02749603
REMARK  10 active torsions:
REMARK  status: ('A' for Active; 'I' for Inactive)
REMARK    1  A    between atoms: C_1  and  C_2
REMARK    2  A    between atoms: C_2  and  C_3
REMARK    3  A    between atoms: C_2  and  O_4
REMARK    4  A    between atoms: O_4  and  C_5
REMARK    5  A    between atoms: C_5  and  C_7
REMARK    6  A    between atoms: C_8  and  C_23
REMARK    7  A    between atoms: C_11  and  N_12
REMARK    8  A    between atoms: C_13  and  C_15
REMARK    9  A    between atoms: C_26  and  O_29
REMARK   10  A    between atoms: O_29  and  C_30
REMARK                            x       y       z     vdW  Elec       q    Type
REMARK                         _______ _______ _______ _____ _____    ______ ____
ROOT
ATOM      1  C   UNL     1       2.299  -2.892  -0.041  0.00  0.00    +0.095 A 
ATOM      2  C   UNL     1       2.028  -4.317  -0.042  0.00  0.00    +0.005 A 
ATOM      3  C   UNL     1       0.723  -4.690  -0.031  0.00  0.00    +0.056 A 
ATOM      4  S   UNL     1      -0.147  -3.137  -0.014  0.00  0.00    -0.080 S 
ATOM      5  C   UNL     1       1.197  -2.046  -0.020  0.00  0.00    +0.087 A 
ENDROOT
BRANCH   2   6
ATOM      6  C   UNL     1       3.123  -5.317  -0.057  0.00  0.00    -0.016 A 
ATOM      7  C   UNL     1       4.150  -5.213  -0.994  0.00  0.00    +0.012 A 
ATOM      8  C   UNL     1       5.169  -6.142  -1.003  0.00  0.00    +0.046 A 
ATOM      9  C   UNL     1       5.167  -7.186  -0.087  0.00  0.00    +0.120 A 
ATOM     10  C   UNL     1       4.143  -7.295   0.843  0.00  0.00    +0.046 A 
ATOM     11  C   UNL     1       3.124  -6.366   0.861  0.00  0.00    +0.012 A 
BRANCH   9  12
ATOM     12  O   UNL     1       6.170  -8.103  -0.102  0.00  0.00    -0.495 OA
ATOM     13  C   UNL     1       7.192  -7.931  -1.087  0.00  0.00    +0.277 C 
ENDBRANCH   9  12
ENDBRANCH   2   6
BRANCH   5  14
ATOM     14  N   UNL     1       1.178  -0.662  -0.013  0.00  0.00    -0.275 N 
ATOM     15  C   UNL     1       0.002  -0.004   0.002  0.00  0.00    +0.250 C 
ATOM     16  O   UNL     1      -1.042  -0.626   0.009  0.00  0.00    -0.270 OA
ATOM     17  H   UNL     1       2.123  -0.099  -0.019  0.00  0.00    +0.156 HD
BRANCH  15  18
ATOM     18  C   UNL     1      -0.018   1.473   0.010  0.00  0.00    +0.057 A 
ATOM     19  C   UNL     1       1.180   2.191   0.003  0.00  0.00    +0.014 A 
ATOM     20  C   UNL     1       1.155   3.570   0.010  0.00  0.00    +0.002 A 
ATOM     21  C   UNL     1      -0.054   4.244   0.025  0.00  0.00    +0.021 A 
ATOM     22  C   UNL     1      -1.246   3.541   0.033  0.00  0.00    +0.060 A 
ATOM     23  C   UNL     1      -1.235   2.158   0.020  0.00  0.00    +0.071 A 
ATOM     24 CL   UNL     1      -2.731   1.276   0.022  0.00  0.00    -0.081 Cl
ATOM     25 CL   UNL     1      -2.756   4.396   0.051  0.00  0.00    -0.082 Cl
ENDBRANCH  15  18
ENDBRANCH   5  14
BRANCH   1  26
ATOM     26  C   UNL     1       3.666  -2.371  -0.058  0.00  0.00    +0.342 C 
ATOM     27  O   UNL     1       4.249  -2.161   0.989  0.00  0.00    -0.245 OA
BRANCH  26  28
ATOM     28  O   UNL     1       4.279  -2.123  -1.234  0.00  0.00    -0.458 OA
BRANCH  28  30
ATOM     29  C   UNL     1       6.625  -2.774  -1.169  0.00  0.00    +0.052 C 
ATOM     30  C   UNL     1       5.635  -1.607  -1.174  0.00  0.00    +0.171 C 
ATOM     31  C   UNL     1       5.897  -0.721  -2.393  0.00  0.00    +0.052 C 
ENDBRANCH  28  30
ENDBRANCH  26  28
ENDBRANCH   1  26
TORSDOF 7
