REMARK  Name = ZINC37306747
REMARK  5 active torsions:
REMARK  status: ('A' for Active; 'I' for Inactive)
REMARK    1  A    between atoms: C_1  and  C_2
REMARK    2  A    between atoms: C_8  and  O_10
REMARK    3  A    between atoms: O_10  and  C_11
REMARK    4  A    between atoms: C_14  and  C_21
REMARK    5  A    between atoms: C_15  and  C_17
REMARK                            x       y       z     vdW  Elec       q    Type
REMARK                         _______ _______ _______ _____ _____    ______ ____
ROOT
ATOM      1  C   UNL     1       0.837   0.011   3.504  0.00  0.00    +0.121 A 
ATOM      2  C   UNL     1       2.214  -0.172   3.558  0.00  0.00    +0.046 A 
ATOM      3  C   UNL     1       2.888   0.011   4.745  0.00  0.00    +0.015 A 
ATOM      4  C   UNL     1       2.187   0.381   5.895  0.00  0.00    +0.024 A 
ATOM      5  C   UNL     1       0.804   0.564   5.836  0.00  0.00    +0.069 A 
ATOM      6  C   UNL     1       0.137   0.384   4.644  0.00  0.00    +0.058 A 
ENDROOT
BRANCH   4   7
ATOM      7  C   UNL     1       2.906   0.577   7.170  0.00  0.00    +0.095 C 
ATOM      8  N   UNL     1       2.575  -0.145   8.240  0.00  0.00    -0.387 N 
ATOM      9  N   UNL     1       3.886   1.476   7.251  0.00  0.00    -0.345 N 
ATOM     10  H   UNL     1       2.985   0.044   9.099  0.00  0.00    +0.157 HD
ATOM     11  H   UNL     1       4.127   2.002   6.472  0.00  0.00    +0.144 HD
ATOM     12  H   UNL     1       4.359   1.605   8.088  0.00  0.00    +0.144 HD
ATOM     13  H   UNL     1       1.925  -0.860   8.160  0.00  0.00    +0.157 HD
ENDBRANCH   4   7
BRANCH   5  14
ATOM     14  C   UNL     1       0.042   0.962   7.074  0.00  0.00    +0.418 C 
ATOM     15  F   UNL     1      -1.292   1.218   6.739  0.00  0.00    -0.166 F 
ATOM     16  F   UNL     1       0.097  -0.077   8.010  0.00  0.00    -0.166 F 
ATOM     17  F   UNL     1       0.615   2.114   7.623  0.00  0.00    -0.166 F 
ENDBRANCH   5  14
BRANCH   1  18
ATOM     18  O   UNL     1       0.176  -0.170   2.332  0.00  0.00    -0.489 OA
BRANCH  18  25
ATOM     19  C   UNL     1       0.113   1.287  -0.150  0.00  0.00    +0.011 C 
ATOM     20  C   UNL     1       0.243  -0.236  -0.083  0.00  0.00    +0.027 C 
ATOM     21  C   UNL     1      -1.149  -0.870  -0.125  0.00  0.00    +0.007 C 
ATOM     22  C   UNL     1      -1.018  -2.393  -0.058  0.00  0.00    +0.000 C 
ATOM     23  C   UNL     1      -0.318  -2.788   1.243  0.00  0.00    +0.004 C 
ATOM     24  C   UNL     1       1.074  -2.155   1.286  0.00  0.00    +0.045 C 
ATOM     25  C   UNL     1       0.944  -0.631   1.219  0.00  0.00    +0.176 C 
ENDBRANCH  18  25
ENDBRANCH   1  18
TORSDOF 4
