REMARK  Name = ZINC63373485
REMARK  4 active torsions:
REMARK  status: ('A' for Active; 'I' for Inactive)
REMARK    1  A    between atoms: C_1  and  O_2
REMARK    2  A    between atoms: O_2  and  C_3
REMARK    3  A    between atoms: C_10  and  C_18
REMARK    4  A    between atoms: N_22  and  C_25
REMARK                            x       y       z     vdW  Elec       q    Type
REMARK                         _______ _______ _______ _____ _____    ______ ____
ROOT
ATOM      1  C   UNL     1       1.434  -4.121   0.951  0.00  0.00    +0.121 A 
ATOM      2  C   UNL     1       1.284  -2.952   0.184  0.00  0.00    +0.047 A 
ATOM      3  C   UNL     1       1.613  -2.896  -1.125  0.00  0.00    +0.029 A 
ATOM      4  C   UNL     1       2.148  -4.084  -1.794  0.00  0.00    +0.043 A 
ATOM      5  N   UNL     1       2.559  -4.286  -3.026  0.00  0.00    -0.376 N 
ATOM      6  C   UNL     1       2.909  -5.695  -3.170  0.00  0.00    +0.128 C 
ATOM      7  C   UNL     1       4.346  -5.898  -3.660  0.00  0.00    +0.121 C 
ATOM      8  N   UNL     1       4.695  -7.317  -3.495  0.00  0.00    -0.307 NA
ATOM      9  C   UNL     1       4.773  -7.734  -2.091  0.00  0.00    +0.086 C 
ATOM     10  C   UNL     1       3.383  -7.643  -1.436  0.00  0.00    +0.048 C 
ATOM     11  C   UNL     1       2.828  -6.275  -1.767  0.00  0.00    -0.035 C 
ATOM     12  C   UNL     1       2.317  -5.318  -0.984  0.00  0.00    +0.003 A 
ATOM     13  C   UNL     1       1.928  -5.269   0.430  0.00  0.00    +0.055 A 
ATOM     14  H   UNL     1       4.062  -7.908  -4.013  0.00  0.00    +0.123 HD
ATOM     15  H   UNL     1       2.618  -3.612  -3.721  0.00  0.00    +0.160 HD
ENDROOT
BRANCH   7  16
ATOM     16  C   UNL     1       4.445  -5.515  -5.114  0.00  0.00    +0.101 A 
ATOM     17  C   UNL     1       5.215  -4.458  -5.500  0.00  0.00    +0.263 A 
ATOM     18  N   UNL     1       5.291  -4.128  -6.829  0.00  0.00    -0.274 N 
ATOM     19  C   UNL     1       4.613  -4.839  -7.748  0.00  0.00    +0.337 A 
ATOM     20  N   UNL     1       3.848  -5.886  -7.387  0.00  0.00    -0.229 N 
ATOM     21  C   UNL     1       3.750  -6.247  -6.093  0.00  0.00    +0.270 A 
ATOM     22  O   UNL     1       3.060  -7.200  -5.772  0.00  0.00    -0.267 OA
ATOM     23  O   UNL     1       4.692  -4.532  -8.922  0.00  0.00    -0.246 OA
ATOM     24  O   UNL     1       5.896  -3.741  -4.581  0.00  0.00    -0.267 OA
ATOM     25  H   UNL     1       5.838  -3.377  -7.108  0.00  0.00    +0.173 HD
BRANCH  20  26
ATOM     26  C   UNL     1       3.152  -6.608  -8.366  0.00  0.00    +0.054 A 
ATOM     27  C   UNL     1       1.864  -6.233  -8.722  0.00  0.00    +0.026 A 
ATOM     28  C   UNL     1       1.180  -6.947  -9.687  0.00  0.00    +0.002 A 
ATOM     29  C   UNL     1       1.778  -8.034 -10.298  0.00  0.00    +0.000 A 
ATOM     30  C   UNL     1       3.061  -8.411  -9.944  0.00  0.00    +0.002 A 
ATOM     31  C   UNL     1       3.751  -7.697  -8.984  0.00  0.00    +0.026 A 
ENDBRANCH  20  26
ENDBRANCH   7  16
BRANCH   1  33
ATOM     32  C   UNL     1       0.558  -2.864   2.769  0.00  0.00    +0.277 C 
ATOM     33  O   UNL     1       1.075  -4.096   2.261  0.00  0.00    -0.495 OA
ENDBRANCH   1  33
TORSDOF 3
