REMARK  Name = ZINC50040929
REMARK  6 active torsions:
REMARK  status: ('A' for Active; 'I' for Inactive)
REMARK    1  A    between atoms: C_1  and  N_2
REMARK    2  A    between atoms: C_5  and  C_8
REMARK    3  A    between atoms: C_5  and  N_11
REMARK    4  A    between atoms: C_8  and  N_10
REMARK    5  A    between atoms: C_12  and  C_14
REMARK    6  A    between atoms: C_14  and  C_15
REMARK                            x       y       z     vdW  Elec       q    Type
REMARK                         _______ _______ _______ _____ _____    ______ ____
ROOT
ATOM      1  C   UNL     1       0.155   1.535   0.062  0.00  0.00    -0.096 C 
ATOM      2  N   UNL     1       0.109   0.067   0.037  0.00  0.00    +0.378 N 
ATOM      3  C   UNL     1       0.761  -0.422  -1.184  0.00  0.00    -0.077 C 
ATOM      4  C   UNL     1       0.644  -1.946  -1.255  0.00  0.00    +0.014 C 
ATOM      5  C   UNL     1       1.326  -2.562  -0.029  0.00  0.00    +0.075 C 
ATOM      6  C   UNL     1       0.688  -1.989   1.239  0.00  0.00    +0.014 C 
ATOM      7  C   UNL     1       0.803  -0.463   1.217  0.00  0.00    -0.077 C 
ATOM      8  H   UNL     1      -0.852  -0.239   0.049  0.00  0.00    -0.082 HD
ENDROOT
BRANCH   5   9
ATOM      9  N   UNL     1       2.755  -2.237  -0.049  0.00  0.00    -0.304 N 
ATOM     10  C   UNL     1       3.506  -2.566  -1.119  0.00  0.00    +0.218 C 
ATOM     11  O   UNL     1       3.025  -3.220  -2.020  0.00  0.00    -0.275 OA
ATOM     12  H   UNL     1       3.160  -1.785   0.707  0.00  0.00    +0.150 HD
BRANCH  10  13
ATOM     13  C   UNL     1       4.944  -2.122  -1.195  0.00  0.00    +0.131 C 
BRANCH  13  14
ATOM     14  C   UNL     1       5.555  -2.617  -2.481  0.00  0.00    -0.038 A 
ATOM     15  C   UNL     1       6.170  -3.854  -2.522  0.00  0.00    +0.004 A 
ATOM     16  C   UNL     1       6.731  -4.308  -3.701  0.00  0.00    +0.001 A 
ATOM     17  C   UNL     1       6.676  -3.525  -4.839  0.00  0.00    +0.015 A 
ATOM     18  C   UNL     1       6.061  -2.288  -4.798  0.00  0.00    +0.018 A 
ATOM     19  C   UNL     1       5.495  -1.836  -3.619  0.00  0.00    +0.019 A 
ATOM     20 BR   UNL     1       5.986  -1.216  -6.354  0.00  0.00    -0.050 Br
ENDBRANCH  13  14
ENDBRANCH  10  13
ENDBRANCH   5   9
BRANCH   5  21
ATOM     21  C   UNL     1       1.148  -4.058  -0.052  0.00  0.00    +0.070 C 
ATOM     22  S   UNL     1       0.150  -4.728  -1.107  0.00  0.00    -0.038 S 
BRANCH  21  23
ATOM     23  N   UNL     1       1.829  -4.831   0.817  0.00  0.00    -0.354 N 
ATOM     24  H   UNL     1       2.378  -4.421   1.504  0.00  0.00    +0.143 HD
ATOM     25  H   UNL     1       1.770  -5.797   0.755  0.00  0.00    +0.143 HD
ENDBRANCH  21  23
ENDBRANCH   5  21
TORSDOF 5
