REMARK  Name = ZINC49974913
REMARK  8 active torsions:
REMARK  status: ('A' for Active; 'I' for Inactive)
REMARK    1  A    between atoms: C_1  and  C_2
REMARK    2  A    between atoms: C_2  and  C_3
REMARK    3  A    between atoms: C_6  and  C_9
REMARK    4  A    between atoms: C_9  and  C_11
REMARK    5  A    between atoms: C_9  and  N_16
REMARK    6  A    between atoms: N_16  and  C_17
REMARK    7  A    between atoms: C_17  and  C_18
REMARK    8  A    between atoms: C_23  and  C_26
REMARK                            x       y       z     vdW  Elec       q    Type
REMARK                         _______ _______ _______ _____ _____    ______ ____
ROOT
ATOM      1  N   UNL     1       2.256  -1.261   5.880  0.00  0.00    +0.392 N 
ATOM      2  H   UNL     1       2.305  -0.260   5.765  0.00  0.00    -0.084 HD
ATOM      3  H   UNL     1       1.295  -1.538   6.011  0.00  0.00    -0.084 HD
ENDROOT
BRANCH   1   4
ATOM      4  C   UNL     1       2.797  -1.919   4.683  0.00  0.00    -0.003 C 
BRANCH   4   8
ATOM      5  C   UNL     1       0.731  -0.503   1.223  0.00  0.00    -0.048 A 
ATOM      6  C   UNL     1       2.097  -0.710   1.176  0.00  0.00    +0.004 A 
ATOM      7  C   UNL     1       2.766  -1.167   2.296  0.00  0.00    +0.002 A 
ATOM      8  C   UNL     1       2.068  -1.419   3.463  0.00  0.00    -0.057 A 
ATOM      9  C   UNL     1       0.702  -1.212   3.510  0.00  0.00    +0.002 A 
ATOM     10  C   UNL     1       0.034  -0.750   2.391  0.00  0.00    +0.004 A 
BRANCH   5  12
ATOM     11  C   UNL     1      -0.019   1.526   0.010  0.00  0.00    +0.009 C 
ATOM     12  C   UNL     1       0.002  -0.004   0.002  0.00  0.00    +0.032 C 
ENDBRANCH   5  12
ENDBRANCH   4   8
BRANCH   4  13
ATOM     13  C   UNL     1       2.612  -3.410   4.803  0.00  0.00    -0.020 A 
ATOM     14  C   UNL     1       3.464  -4.406   4.457  0.00  0.00    +0.010 A 
ATOM     15  C   UNL     1       3.079  -5.718   4.660  0.00  0.00    +0.008 A 
ATOM     16  C   UNL     1       1.862  -5.970   5.199  0.00  0.00    +0.045 A 
ATOM     17  S   UNL     1       1.218  -4.322   5.444  0.00  0.00    -0.103 S 
ENDBRANCH   4  13
ENDBRANCH   1   4
BRANCH   1  18
ATOM     18  C   UNL     1       3.044  -1.657   7.055  0.00  0.00    +0.016 C 
BRANCH  18  19
ATOM     19  C   UNL     1       2.489  -0.983   8.283  0.00  0.00    +0.199 C 
ATOM     20  O   UNL     1       1.532  -0.244   8.189  0.00  0.00    -0.278 OA
ATOM     21  N   UNL     1       3.057  -1.200   9.486  0.00  0.00    -0.303 N 
ATOM     22  C   UNL     1       4.221  -2.086   9.615  0.00  0.00    +0.108 C 
ATOM     23  C   UNL     1       3.918  -3.147  10.679  0.00  0.00    +0.032 C 
ATOM     24  C   UNL     1       3.508  -2.454  11.980  0.00  0.00    +0.078 C 
ATOM     25  C   UNL     1       2.240  -1.631  11.745  0.00  0.00    +0.032 C 
ATOM     26  C   UNL     1       2.527  -0.549  10.692  0.00  0.00    +0.108 C 
BRANCH  24  27
ATOM     27  C   UNL     1       3.242  -3.493  13.039  0.00  0.00    +0.214 C 
ATOM     28  O   UNL     1       3.368  -4.671  12.778  0.00  0.00    -0.276 OA
ATOM     29  N   UNL     1       2.864  -3.114  14.276  0.00  0.00    -0.329 N 
ATOM     30  H   UNL     1       2.763  -2.172  14.485  0.00  0.00    +0.145 HD
ATOM     31  H   UNL     1       2.692  -3.783  14.957  0.00  0.00    +0.145 HD
ENDBRANCH  24  27
ENDBRANCH  18  19
ENDBRANCH   1  18
TORSDOF 7
