REMARK  Name = ZINC64636398
REMARK  7 active torsions:
REMARK  status: ('A' for Active; 'I' for Inactive)
REMARK    1  A    between atoms: C_6  and  C_11
REMARK    2  A    between atoms: C_11  and  N_12
REMARK    3  A    between atoms: C_16  and  N_19
REMARK    4  A    between atoms: C_21  and  C_24
REMARK    5  A    between atoms: N_26  and  C_27
REMARK    6  A    between atoms: C_27  and  C_28
REMARK    7  A    between atoms: C_28  and  O_29
REMARK                            x       y       z     vdW  Elec       q    Type
REMARK                         _______ _______ _______ _____ _____    ______ ____
ROOT
ATOM      1  N   UNL     1       5.096  -2.571  -1.293  0.00  0.00    -0.298 NA
ATOM      2  C   UNL     1       5.442  -1.147  -1.380  0.00  0.00    +0.084 C 
ATOM      3  C   UNL     1       6.955  -0.978  -1.220  0.00  0.00    +0.017 C 
ATOM      4  C   UNL     1       7.671  -1.765  -2.321  0.00  0.00    +0.026 C 
ATOM      5  C   UNL     1       7.255  -3.237  -2.238  0.00  0.00    +0.106 C 
ATOM      6  C   UNL     1       5.734  -3.340  -2.369  0.00  0.00    +0.108 C 
ENDROOT
BRANCH   5   7
ATOM      7  N   UNL     1       7.892  -3.987  -3.323  0.00  0.00    -0.252 N 
ATOM      8  C   UNL     1       8.748  -5.050  -3.167  0.00  0.00    +0.119 C 
ATOM      9  C   UNL     1       9.126  -5.477  -4.390  0.00  0.00    +0.120 C 
ATOM     10  N   UNL     1       8.487  -4.655  -5.345  0.00  0.00    -0.259 N 
ATOM     11  N   UNL     1       7.729  -3.748  -4.657  0.00  0.00    -0.160 NA
ATOM     12  H   UNL     1       8.569  -4.723  -6.309  0.00  0.00    +0.168 HD
ATOM     13  H   UNL     1       6.757  -3.814  -4.920  0.00  0.00    +0.168 HD
BRANCH   9  14
ATOM     14  C   UNL     1      10.032  -6.588  -4.675  0.00  0.00    +0.260 C 
ATOM     15  O   UNL     1      10.522  -7.224  -3.759  0.00  0.00    -0.269 OA
ATOM     16  N   UNL     1      10.326  -6.908  -5.951  0.00  0.00    -0.308 N 
ATOM     17  H   UNL     1       9.936  -6.401  -6.680  0.00  0.00    +0.149 HD
BRANCH  16  18
ATOM     18  C   UNL     1      11.234  -8.021  -6.236  0.00  0.00    +0.132 C 
BRANCH  18  19
ATOM     19  C   UNL     1      11.396  -8.172  -7.750  0.00  0.00    +0.174 C 
BRANCH  19  20
ATOM     20  O   UNL     1      12.043  -7.011  -8.277  0.00  0.00    -0.393 OA
ATOM     21  H   UNL     1      12.180  -7.038  -9.234  0.00  0.00    +0.209 HD
ENDBRANCH  19  20
ENDBRANCH  18  19
ENDBRANCH  16  18
ENDBRANCH   9  14
ENDBRANCH   5   7
BRANCH   1  22
ATOM     22  C   UNL     1       3.639  -2.760  -1.304  0.00  0.00    +0.113 C 
BRANCH  22  28
ATOM     23  C   UNL     1       0.490  -4.853   2.899  0.00  0.00    +0.001 A 
ATOM     24  C   UNL     1       1.735  -4.846   3.541  0.00  0.00    +0.002 A 
ATOM     25  C   UNL     1       2.897  -4.666   2.878  0.00  0.00    +0.026 A 
ATOM     26  C   UNL     1       2.898  -4.471   1.469  0.00  0.00    +0.043 A 
ATOM     27  N   UNL     1       3.873  -4.277   0.615  0.00  0.00    -0.377 N 
ATOM     28  C   UNL     1       3.298  -4.135  -0.727  0.00  0.00    +0.117 C 
ATOM     29  C   UNL     1       1.802  -4.274  -0.555  0.00  0.00    +0.008 C 
ATOM     30  C   UNL     1       1.595  -4.473   0.767  0.00  0.00    -0.004 A 
ATOM     31  C   UNL     1       0.378  -4.677   1.562  0.00  0.00    +0.010 A 
ATOM     32  H   UNL     1       4.817  -4.235   0.834  0.00  0.00    +0.160 HD
ENDBRANCH  22  28
ENDBRANCH   1  22
TORSDOF 7
