REMARK  Name = ZINC63755486
REMARK  6 active torsions:
REMARK  status: ('A' for Active; 'I' for Inactive)
REMARK    1  A    between atoms: C_6  and  C_23
REMARK    2  A    between atoms: C_8  and  S_11
REMARK    3  A    between atoms: S_11  and  C_12
REMARK    4  A    between atoms: C_12  and  C_13
REMARK    5  A    between atoms: C_13  and  N_14
REMARK    6  A    between atoms: C_15  and  C_17
REMARK                            x       y       z     vdW  Elec       q    Type
REMARK                         _______ _______ _______ _____ _____    ______ ____
ROOT
ATOM      1  C   UNL     1      -0.011   1.354   0.045  0.00  0.00    +0.001 A 
ATOM      2  C   UNL     1       1.169   2.099   0.056  0.00  0.00    +0.002 A 
ATOM      3  C   UNL     1       2.389   1.507   0.048  0.00  0.00    +0.026 A 
ATOM      4  C   UNL     1       2.487   0.093   0.028  0.00  0.00    +0.044 A 
ATOM      5  N   UNL     1       3.535  -0.710   0.016  0.00  0.00    -0.373 N 
ATOM      6  C   UNL     1       3.075  -2.102  -0.004  0.00  0.00    +0.147 C 
ATOM      7  C   UNL     1       1.563  -2.042  -0.003  0.00  0.00    +0.021 C 
ATOM      8  C   UNL     1       1.241  -0.689   0.017  0.00  0.00    +0.010 A 
ATOM      9  C   UNL     1       0.006  -0.004   0.026  0.00  0.00    +0.011 A 
ATOM     10  H   UNL     1       4.462  -0.425   0.021  0.00  0.00    +0.161 HD
ENDROOT
BRANCH   6  11
ATOM     11  C   UNL     1       3.567  -2.794  -1.248  0.00  0.00    -0.020 A 
ATOM     12  C   UNL     1       3.606  -2.110  -2.449  0.00  0.00    +0.009 A 
ATOM     13  C   UNL     1       4.058  -2.743  -3.592  0.00  0.00    +0.039 A 
ATOM     14  C   UNL     1       4.472  -4.063  -3.533  0.00  0.00    +0.123 A 
ATOM     15  C   UNL     1       4.434  -4.747  -2.330  0.00  0.00    +0.039 A 
ATOM     16  C   UNL     1       3.986  -4.110  -1.188  0.00  0.00    +0.009 A 
ATOM     17  F   UNL     1       4.914  -4.683  -4.649  0.00  0.00    -0.205 F 
ENDBRANCH   6  11
BRANCH   7  18
ATOM     18  S   UNL     1       0.509  -3.324  -0.022  0.00  0.00    -0.125 S 
BRANCH  18  19
ATOM     19  C   UNL     1      -1.123  -2.552   0.151  0.00  0.00    +0.093 C 
BRANCH  19  20
ATOM     20  C   UNL     1      -2.190  -3.640   0.293  0.00  0.00    +0.115 C 
BRANCH  20  21
ATOM     21  N   UNL     1      -3.508  -3.016   0.433  0.00  0.00    -0.308 N 
ATOM     22  C   UNL     1      -4.606  -3.785   0.573  0.00  0.00    +0.279 C 
ATOM     23  O   UNL     1      -4.502  -4.998   0.583  0.00  0.00    -0.267 OA
ATOM     24  H   UNL     1      -3.591  -2.050   0.425  0.00  0.00    +0.149 HD
BRANCH  22  25
ATOM     25  C   UNL     1      -5.925  -3.162   0.713  0.00  0.00    +0.191 A 
ATOM     26  C   UNL     1      -7.112  -3.820   0.866  0.00  0.00    +0.056 A 
ATOM     27  C   UNL     1      -8.109  -2.838   0.960  0.00  0.00    +0.058 A 
ATOM     28  C   UNL     1      -7.495  -1.636   0.862  0.00  0.00    +0.171 A 
ATOM     29  O   UNL     1      -6.178  -1.836   0.718  0.00  0.00    -0.444 OA
ATOM     30 BR   UNL     1      -8.354   0.048   0.924  0.00  0.00    -0.008 Br
ENDBRANCH  22  25
ENDBRANCH  20  21
ENDBRANCH  19  20
ENDBRANCH  18  19
ENDBRANCH   7  18
TORSDOF 6
