REMARK  Name = ZINC04437120
REMARK  5 active torsions:
REMARK  status: ('A' for Active; 'I' for Inactive)
REMARK    1  A    between atoms: C_1  and  C_2
REMARK    2  A    between atoms: N_7  and  C_8
REMARK    3  A    between atoms: C_8  and  C_17
REMARK    4  A    between atoms: C_9  and  C_15
REMARK    5  A    between atoms: C_10  and  C_14
REMARK                            x       y       z     vdW  Elec       q    Type
REMARK                         _______ _______ _______ _____ _____    ______ ____
ROOT
ATOM      1  C   UNL     1       1.486   1.674   0.032  0.00  0.00    +0.242 C 
ATOM      2  C   UNL     1       2.152   0.321  -0.118  0.00  0.00    +0.087 C 
ATOM      3  C   UNL     1       1.158  -0.582  -0.162  0.00  0.00    +0.024 C 
ATOM      4  N   UNL     1      -0.074   0.002  -0.059  0.00  0.00    -0.286 N 
ATOM      5  C   UNL     1       0.008   1.340   0.060  0.00  0.00    +0.255 C 
ATOM      6  O   UNL     1      -0.914   2.121   0.164  0.00  0.00    -0.272 OA
ATOM      7  C   UNL     1       1.376  -2.066  -0.307  0.00  0.00    +0.062 C 
ATOM      8  H   UNL     1      -0.909  -0.491  -0.070  0.00  0.00    +0.155 HD
ENDROOT
BRANCH   1  15
ATOM      9  C   UNL     1       2.295   3.235  -5.822  0.00  0.00    +0.063 C 
ATOM     10  C   UNL     1       1.771   2.401  -4.681  0.00  0.00    +0.014 A 
ATOM     11  C   UNL     1       1.071   1.242  -4.949  0.00  0.00    +0.021 A 
ATOM     12  C   UNL     1       0.591   0.478  -3.893  0.00  0.00    +0.005 A 
ATOM     13  C   UNL     1       0.839   0.907  -2.602  0.00  0.00    +0.041 A 
ATOM     14  C   UNL     1       1.547   2.088  -2.405  0.00  0.00    +0.097 A 
ATOM     15  N   UNL     1       1.799   2.533  -1.113  0.00  0.00    -0.306 N 
ATOM     16  H   UNL     1       2.182   3.413  -0.969  0.00  0.00    +0.149 HD
ATOM     17  N   UNL     1       2.029   2.856  -3.425  0.00  0.00    -0.347 N 
ATOM     18  H   UNL     1       2.553   3.722  -3.256  0.00  0.00    +0.167 HD
ENDBRANCH   1  15
BRANCH   1  19
ATOM     19  C   UNL     1       1.913   2.342   1.341  0.00  0.00    +0.424 C 
ATOM     20  F   UNL     1       1.609   1.498   2.415  0.00  0.00    -0.167 F 
ATOM     21  F   UNL     1       3.290   2.585   1.313  0.00  0.00    -0.167 F 
ATOM     22  F   UNL     1       1.228   3.553   1.491  0.00  0.00    -0.167 F 
ENDBRANCH   1  19
BRANCH   2  23
ATOM     23  C   UNL     1       3.558   0.058  -0.199  0.00  0.00    +0.099 C 
ATOM     24  N   UNL     1       4.673  -0.150  -0.263  0.00  0.00    -0.191 NA
ENDBRANCH   2  23
TORSDOF 3
