REMARK  Name = ZINC56769855
REMARK  7 active torsions:
REMARK  status: ('A' for Active; 'I' for Inactive)
REMARK    1  A    between atoms: C_1  and  C_2
REMARK    2  A    between atoms: C_2  and  C_4
REMARK    3  A    between atoms: C_2  and  N_12
REMARK    4  A    between atoms: C_4  and  C_5
REMARK    5  A    between atoms: C_8  and  O_11
REMARK    6  A    between atoms: N_15  and  C_16
REMARK    7  A    between atoms: C_16  and  C_17
REMARK                            x       y       z     vdW  Elec       q    Type
REMARK                         _______ _______ _______ _____ _____    ______ ____
ROOT
ATOM      1  N   UNL     1       0.578  -1.042   1.076  0.00  0.00    -0.297 N 
ATOM      2  C   UNL     1      -0.014  -0.945   2.283  0.00  0.00    +0.300 C 
ATOM      3  O   UNL     1      -1.141  -0.497   2.373  0.00  0.00    -0.253 OA
ATOM      4  N   UNL     1       0.644  -1.343   3.390  0.00  0.00    -0.295 N 
ATOM      5  H   UNL     1       1.478  -1.398   1.004  0.00  0.00    +0.151 HD
ATOM      6  H   UNL     1       1.543  -1.700   3.318  0.00  0.00    +0.151 HD
ENDROOT
BRANCH   1   8
ATOM      7  C   UNL     1       0.054   0.898  -0.318  0.00  0.00    +0.028 C 
ATOM      8  C   UNL     1      -0.136  -0.608  -0.127  0.00  0.00    +0.076 C 
BRANCH   8   9
ATOM      9  C   UNL     1       0.418  -1.350  -1.345  0.00  0.00    +0.057 C 
BRANCH   9  10
ATOM     10  C   UNL     1       0.122  -2.822  -1.214  0.00  0.00    -0.045 A 
ATOM     11  C   UNL     1       1.025  -3.654  -0.578  0.00  0.00    +0.007 A 
ATOM     12  C   UNL     1       0.756  -5.003  -0.456  0.00  0.00    +0.045 A 
ATOM     13  C   UNL     1      -0.422  -5.524  -0.973  0.00  0.00    +0.117 A 
ATOM     14  C   UNL     1      -1.327  -4.687  -1.610  0.00  0.00    +0.045 A 
ATOM     15  C   UNL     1      -1.055  -3.337  -1.724  0.00  0.00    +0.007 A 
BRANCH  13  16
ATOM     16  O   UNL     1      -0.689  -6.851  -0.856  0.00  0.00    -0.507 OA
ATOM     17  H   UNL     1      -1.171  -7.086  -0.051  0.00  0.00    +0.292 HD
ENDBRANCH  13  16
ENDBRANCH   9  10
ENDBRANCH   8   9
ENDBRANCH   1   8
BRANCH   4  18
ATOM     18  C   UNL     1       0.000  -1.238   4.702  0.00  0.00    +0.142 C 
BRANCH  18  19
ATOM     19  C   UNL     1       0.940  -1.746   5.765  0.00  0.00    -0.014 A 
ATOM     20  C   UNL     1       0.933  -3.088   6.124  0.00  0.00    +0.010 A 
ATOM     21  C   UNL     1       1.812  -3.514   7.104  0.00  0.00    +0.042 A 
ATOM     22  C   UNL     1       2.668  -2.589   7.693  0.00  0.00    +0.099 A 
ATOM     23  N   UNL     1       2.644  -1.318   7.323  0.00  0.00    -0.349 N 
ATOM     24  C   UNL     1       1.821  -0.885   6.387  0.00  0.00    +0.089 A 
ATOM     25  N   UNL     1       3.555  -3.002   8.679  0.00  0.00    -0.317 N 
ATOM     26  C   UNL     1       3.666  -4.416   8.963  0.00  0.00    +0.106 C 
ATOM     27  C   UNL     1       2.638  -4.810  10.052  0.00  0.00    +0.019 C 
ATOM     28  C   UNL     1       3.041  -4.264  11.357  0.00  0.00    +0.002 C 
ATOM     29  C   UNL     1       3.087  -2.740  11.414  0.00  0.00    +0.002 C 
ATOM     30  C   UNL     1       4.424  -2.261  10.906  0.00  0.00    +0.019 C 
ATOM     31  C   UNL     1       4.350  -1.981   9.390  0.00  0.00    +0.106 C 
ATOM     32  H   UNL     1       3.250  -0.690   7.747  0.00  0.00    +0.167 HD
ENDBRANCH  18  19
ENDBRANCH   4  18
TORSDOF 6
