REMARK  Name = ZINC63818057
REMARK  7 active torsions:
REMARK  status: ('A' for Active; 'I' for Inactive)
REMARK    1  A    between atoms: C_6  and  C_11
REMARK    2  A    between atoms: C_11  and  C_12
REMARK    3  A    between atoms: C_12  and  N_13
REMARK    4  A    between atoms: C_14  and  C_16
REMARK    5  A    between atoms: C_19  and  C_23
REMARK    6  A    between atoms: C_23  and  C_24
REMARK    7  A    between atoms: N_26  and  C_27
REMARK                            x       y       z     vdW  Elec       q    Type
REMARK                         _______ _______ _______ _____ _____    ______ ____
ROOT
ATOM      1  C   UNL     1       5.849  -5.608  -2.719  0.00  0.00    +0.297 C 
ATOM      2  N   UNL     1       7.201  -5.682  -2.105  0.00  0.00    -0.265 NA
ATOM      3  C   UNL     1       7.278  -7.099  -1.658  0.00  0.00    +0.158 C 
ATOM      4  N   UNL     1       5.899  -7.396  -1.204  0.00  0.00    -0.181 NA
ATOM      5  O   UNL     1       5.017  -6.433  -1.884  0.00  0.00    -0.270 OA
ATOM      6  H   UNL     1       7.918  -5.478  -2.785  0.00  0.00    +0.126 HD
ATOM      7  H   UNL     1       5.822  -7.312  -0.201  0.00  0.00    +0.156 HD
ENDROOT
BRANCH   1   9
ATOM      8  N   UNL     1       5.038  -3.584  -1.550  0.00  0.00    -0.312 N 
ATOM      9  C   UNL     1       5.350  -4.186  -2.715  0.00  0.00    +0.259 C 
ATOM     10  O   UNL     1       5.228  -3.583  -3.761  0.00  0.00    -0.271 OA
ATOM     11  H   UNL     1       5.135  -4.066  -0.714  0.00  0.00    +0.149 HD
BRANCH   8  12
ATOM     12  C   UNL     1       4.552  -2.202  -1.547  0.00  0.00    +0.108 C 
BRANCH  12  13
ATOM     13  C   UNL     1       4.274  -1.763  -0.108  0.00  0.00    +0.052 C 
BRANCH  13  19
ATOM     14  C   UNL     1       0.041   1.444  -0.081  0.00  0.00    +0.040 A 
ATOM     15  C   UNL     1       1.171   2.181  -0.088  0.00  0.00    +0.029 A 
ATOM     16  C   UNL     1       2.445   1.548  -0.096  0.00  0.00    +0.043 A 
ATOM     17  N   UNL     1       3.662   2.035  -0.104  0.00  0.00    -0.380 N 
ATOM     18  C   UNL     1       4.613   0.917  -0.111  0.00  0.00    +0.144 C 
ATOM     19  C   UNL     1       3.774  -0.341  -0.104  0.00  0.00    -0.040 C 
ATOM     20  C   UNL     1       2.485   0.068  -0.096  0.00  0.00    +0.002 A 
ATOM     21  C   UNL     1       1.211  -0.662  -0.087  0.00  0.00    +0.048 A 
ATOM     22  C   UNL     1       0.053   0.040  -0.081  0.00  0.00    +0.124 A 
ATOM     23  F   UNL     1      -1.121  -0.628  -0.073  0.00  0.00    -0.205 F 
ATOM     24  H   UNL     1       3.894   2.976  -0.106  0.00  0.00    +0.160 HD
ENDBRANCH  13  19
ENDBRANCH  12  13
ENDBRANCH   8  12
ENDBRANCH   1   9
BRANCH   3  25
ATOM     25  C   UNL     1       8.271  -7.246  -0.504  0.00  0.00    +0.132 C 
BRANCH  25  26
ATOM     26  C   UNL     1       8.421  -8.704  -0.153  0.00  0.00    +0.220 C 
ATOM     27  O   UNL     1       7.795  -9.543  -0.765  0.00  0.00    -0.275 OA
ATOM     28  N   UNL     1       9.252  -9.075   0.842  0.00  0.00    -0.283 N 
ATOM     29  H   UNL     1       9.801  -8.412   1.289  0.00  0.00    +0.155 HD
BRANCH  28  30
ATOM     30  C   UNL     1       9.321 -10.420   1.231  0.00  0.00    +0.069 A 
ATOM     31  C   UNL     1       9.179 -11.425   0.285  0.00  0.00    +0.029 A 
ATOM     32  C   UNL     1       9.248 -12.750   0.671  0.00  0.00    +0.040 A 
ATOM     33  C   UNL     1       9.459 -13.076   2.000  0.00  0.00    +0.126 A 
ATOM     34  C   UNL     1       9.601 -12.076   2.946  0.00  0.00    +0.078 A 
ATOM     35  C   UNL     1       9.539 -10.748   2.565  0.00  0.00    +0.147 A 
ATOM     36  F   UNL     1       9.683  -9.772   3.487  0.00  0.00    -0.203 F 
ATOM     37  F   UNL     1       9.526 -14.373   2.373  0.00  0.00    -0.205 F 
ENDBRANCH  28  30
ENDBRANCH  25  26
ENDBRANCH   3  25
TORSDOF 7
