REMARK  Name = ZINC45557340
REMARK  12 active torsions:
REMARK  status: ('A' for Active; 'I' for Inactive)
REMARK    1  A    between atoms: C_1  and  C_2
REMARK    2  A    between atoms: C_2  and  C_4
REMARK    3  A    between atoms: C_2  and  N_18
REMARK    4  A    between atoms: N_6  and  C_7
REMARK    5  A    between atoms: C_8  and  C_15
REMARK    6  A    between atoms: N_18  and  C_19
REMARK    7  A    between atoms: N_18  and  C_20
REMARK    8  A    between atoms: C_20  and  C_21
REMARK    9  A    between atoms: N_23  and  C_24
REMARK   10  A    between atoms: C_24  and  C_25
REMARK   11  A    between atoms: C_24  and  C_26
REMARK   12  A    between atoms: C_24  and  C_27
REMARK                            x       y       z     vdW  Elec       q    Type
REMARK                         _______ _______ _______ _____ _____    ______ ____
ROOT
ATOM      1  C   UNL     1      -1.377  -0.455  -0.147  0.00  0.00    +0.204 C 
ATOM      2  O   UNL     1      -1.783  -1.239   0.684  0.00  0.00    -0.277 OA
ATOM      3  N   UNL     1      -2.197  -0.028  -1.128  0.00  0.00    -0.281 N 
ATOM      4  H   UNL     1      -1.872   0.600  -1.793  0.00  0.00    +0.155 HD
ENDROOT
BRANCH   3   5
ATOM      5  C   UNL     1      -3.505  -0.484  -1.187  0.00  0.00    +0.084 A 
ATOM      6  C   UNL     1      -4.477  -0.162  -2.115  0.00  0.00    +0.068 A 
ATOM      7  C   UNL     1      -5.790  -0.785  -1.955  0.00  0.00    -0.023 A 
ATOM      8  C   UNL     1      -5.879  -1.610  -0.896  0.00  0.00    -0.004 A 
ATOM      9  S   UNL     1      -4.269  -1.560  -0.151  0.00  0.00    -0.077 S 
ATOM     10  C   UNL     1      -7.249  -2.220  -0.775  0.00  0.00    +0.043 C 
ATOM     11  C   UNL     1      -8.151  -1.335  -1.663  0.00  0.00    +0.010 C 
ATOM     12  C   UNL     1      -7.136  -0.767  -2.675  0.00  0.00    +0.037 C 
BRANCH   6  13
ATOM     13  C   UNL     1      -4.203   0.767  -3.216  0.00  0.00    +0.244 C 
ATOM     14  O   UNL     1      -3.780   0.346  -4.277  0.00  0.00    -0.270 OA
ATOM     15  N   UNL     1      -4.419   2.087  -3.053  0.00  0.00    -0.325 N 
ATOM     16  H   UNL     1      -4.756   2.423  -2.207  0.00  0.00    +0.145 HD
ATOM     17  H   UNL     1      -4.238   2.702  -3.781  0.00  0.00    +0.145 HD
ENDBRANCH   6  13
ENDBRANCH   3   5
BRANCH   1  19
ATOM     18  C   UNL     1       0.094   1.347   0.713  0.00  0.00    -0.004 C 
ATOM     19  C   UNL     1       0.044   0.041  -0.084  0.00  0.00    +0.017 C 
BRANCH  19  20
ATOM     20  N   UNL     1       0.886  -0.966   0.576  0.00  0.00    +0.391 N 
ATOM     21  C   UNL     1       2.260  -0.460   0.687  0.00  0.00    -0.094 C 
ATOM     22  H   UNL     1       0.522  -1.157   1.497  0.00  0.00    -0.080 HD
BRANCH  20  23
ATOM     23  C   UNL     1       0.882  -2.202  -0.218  0.00  0.00    +0.019 C 
BRANCH  23  24
ATOM     24  C   UNL     1       1.603  -3.288   0.539  0.00  0.00    +0.197 C 
ATOM     25  O   UNL     1       2.074  -3.054   1.632  0.00  0.00    -0.278 OA
ATOM     26  N   UNL     1       1.726  -4.517   0.001  0.00  0.00    -0.312 N 
ATOM     27  H   UNL     1       1.349  -4.704  -0.873  0.00  0.00    +0.149 HD
BRANCH  26  28
ATOM     28  C   UNL     1       2.426  -5.572   0.737  0.00  0.00    +0.026 C 
ATOM     29  C   UNL     1       1.718  -5.821   2.071  0.00  0.00    +0.031 C 
ATOM     30  C   UNL     1       2.423  -6.860  -0.090  0.00  0.00    +0.031 C 
ATOM     31  C   UNL     1       3.870  -5.139   0.999  0.00  0.00    +0.031 C 
ENDBRANCH  26  28
ENDBRANCH  23  24
ENDBRANCH  20  23
ENDBRANCH  19  20
ENDBRANCH   1  19
TORSDOF 7
