REMARK  Name = ZINC19960599
REMARK  5 active torsions:
REMARK  status: ('A' for Active; 'I' for Inactive)
REMARK    1  A    between atoms: C_1  and  C_2
REMARK    2  A    between atoms: C_2  and  N_3
REMARK    3  A    between atoms: C_7  and  C_9
REMARK    4  A    between atoms: C_9  and  N_10
REMARK    5  A    between atoms: N_10  and  C_11
REMARK                            x       y       z     vdW  Elec       q    Type
REMARK                         _______ _______ _______ _____ _____    ______ ____
ROOT
ATOM      1  C   UNL     1      -2.084  -2.127   3.858  0.00  0.00    +0.174 C 
ATOM      2  C   UNL     1      -3.575  -1.938   3.697  0.00  0.00    +0.014 A 
ATOM      3  C   UNL     1      -3.956  -1.006   4.655  0.00  0.00    +0.040 A 
ATOM      4  C   UNL     1      -5.296  -0.635   4.739  0.00  0.00    +0.024 A 
ATOM      5  C   UNL     1      -6.224  -1.188   3.880  0.00  0.00    +0.003 A 
ATOM      6  C   UNL     1      -5.833  -2.114   2.930  0.00  0.00    +0.016 A 
ATOM      7  C   UNL     1      -4.502  -2.488   2.841  0.00  0.00    +0.025 A 
ATOM      8 BR   UNL     1      -3.960  -3.755   1.545  0.00  0.00    -0.050 Br
ATOM      9  N   UNL     1      -2.848  -0.597   5.397  0.00  0.00    -0.284 N 
ATOM     10  C   UNL     1      -1.713  -1.203   4.998  0.00  0.00    +0.239 C 
ATOM     11  O   UNL     1      -0.605  -1.041   5.463  0.00  0.00    -0.273 OA
ATOM     12  H   UNL     1      -2.889   0.050   6.119  0.00  0.00    +0.155 HD
ENDROOT
BRANCH   1  13
ATOM     13  N   UNL     1      -1.380  -1.736   2.629  0.00  0.00    -0.303 NA
ATOM     14  H   UNL     1      -1.287  -0.733   2.570  0.00  0.00    +0.123 HD
BRANCH  13  15
ATOM     15  C   UNL     1      -0.070  -2.393   2.541  0.00  0.00    +0.066 C 
BRANCH  15  20
ATOM     16  N   UNL     1       0.713  -0.491   1.192  0.00  0.00    +0.382 N 
ATOM     17  C   UNL     1       2.136  -0.100   1.116  0.00  0.00    -0.078 C 
ATOM     18  C   UNL     1       2.907  -1.290   1.740  0.00  0.00    -0.020 C 
ATOM     19  C   UNL     1       2.078  -2.500   1.235  0.00  0.00    -0.016 C 
ATOM     20  C   UNL     1       0.632  -1.962   1.251  0.00  0.00    -0.055 C 
ATOM     21  H   UNL     1       0.298  -0.094   2.022  0.00  0.00    -0.081 HD
BRANCH  16  23
ATOM     22  C   UNL     1      -0.019   1.526   0.010  0.00  0.00    -0.017 C 
ATOM     23  C   UNL     1       0.002  -0.004   0.002  0.00  0.00    -0.082 C 
ENDBRANCH  16  23
ENDBRANCH  15  20
ENDBRANCH  13  15
ENDBRANCH   1  13
TORSDOF 4
