REMARK  Name = ZINC40443808
REMARK  8 active torsions:
REMARK  status: ('A' for Active; 'I' for Inactive)
REMARK    1  A    between atoms: C_1  and  C_2
REMARK    2  A    between atoms: C_4  and  C_7
REMARK    3  A    between atoms: C_7  and  N_8
REMARK    4  A    between atoms: N_8  and  C_9
REMARK    5  A    between atoms: C_9  and  C_10
REMARK    6  A    between atoms: C_12  and  O_18
REMARK    7  A    between atoms: C_13  and  O_17
REMARK    8  A    between atoms: O_18  and  C_19
REMARK                            x       y       z     vdW  Elec       q    Type
REMARK                         _______ _______ _______ _____ _____    ______ ____
ROOT
ATOM      1  C   UNL     1      -3.584  -4.249   1.375  0.00  0.00    -0.046 C 
ENDROOT
BRANCH   1   2
ATOM      2  C   UNL     1      -4.044  -4.479   2.792  0.00  0.00    -0.060 A 
ATOM      3  C   UNL     1      -3.494  -5.504   3.538  0.00  0.00    +0.051 A 
ATOM      4  C   UNL     1      -3.916  -5.717   4.841  0.00  0.00    +0.163 A 
ATOM      5  C   UNL     1      -4.894  -4.897   5.395  0.00  0.00    +0.173 A 
ATOM      6  C   UNL     1      -5.442  -3.871   4.642  0.00  0.00    +0.063 A 
ATOM      7  C   UNL     1      -5.012  -3.660   3.343  0.00  0.00    +0.021 A 
ATOM      8 BR   UNL     1      -6.771  -2.754   5.390  0.00  0.00    -0.046 Br
BRANCH   5   9
ATOM      9  O   UNL     1      -5.312  -5.103   6.673  0.00  0.00    -0.503 OA
ATOM     10  H   UNL     1      -4.806  -4.613   7.336  0.00  0.00    +0.292 HD
ENDBRANCH   5   9
BRANCH   4  11
ATOM     11  O   UNL     1      -3.376  -6.726   5.576  0.00  0.00    -0.491 OA
ATOM     12  C   UNL     1      -2.377  -7.527   4.942  0.00  0.00    +0.277 C 
ENDBRANCH   4  11
ENDBRANCH   1   2
BRANCH   1  13
ATOM     13  N   UNL     1      -2.448  -3.317   1.375  0.00  0.00    +0.385 N 
ATOM     14  H   UNL     1      -1.691  -3.709   1.915  0.00  0.00    -0.085 HD
ATOM     15  H   UNL     1      -2.733  -2.439   1.783  0.00  0.00    -0.085 HD
BRANCH  13  16
ATOM     16  C   UNL     1      -1.999  -3.093  -0.006  0.00  0.00    -0.025 C 
BRANCH  16  20
ATOM     17  C   UNL     1      -0.018   1.503   0.010  0.00  0.00    +0.073 C 
ATOM     18  C   UNL     1       0.002  -0.004   0.002  0.00  0.00    +0.075 A 
ATOM     19  N   UNL     1      -1.013  -0.832   0.002  0.00  0.00    -0.251 NA
ATOM     20  C   UNL     1      -0.834  -2.137  -0.006  0.00  0.00    +0.032 A 
ATOM     21  C   UNL     1       0.449  -2.582  -0.014  0.00  0.00    +0.068 A 
ATOM     22  S   UNL     1       1.335  -1.032  -0.017  0.00  0.00    -0.081 S 
ENDBRANCH  16  20
ENDBRANCH  13  16
ENDBRANCH   1  13
TORSDOF 6
