REMARK  Name = ZINC40661810
REMARK  9 active torsions:
REMARK  status: ('A' for Active; 'I' for Inactive)
REMARK    1  A    between atoms: C_1  and  C_2
REMARK    2  A    between atoms: C_2  and  N_3
REMARK    3  A    between atoms: N_3  and  C_4
REMARK    4  A    between atoms: C_8  and  C_10
REMARK    5  A    between atoms: C_12  and  N_26
REMARK    6  A    between atoms: C_13  and  N_17
REMARK    7  A    between atoms: N_17  and  C_18
REMARK    8  A    between atoms: C_23  and  O_24
REMARK    9  A    between atoms: O_24  and  C_25
REMARK                            x       y       z     vdW  Elec       q    Type
REMARK                         _______ _______ _______ _____ _____    ______ ____
ROOT
ATOM      1  N   UNL     1       0.691  -0.551  -1.160  0.00  0.00    -0.284 N 
ATOM      2  C   UNL     1      -0.106  -0.739  -2.284  0.00  0.00    +0.151 A 
ATOM      3  C   UNL     1      -1.465  -0.421  -2.252  0.00  0.00    +0.104 A 
ATOM      4  C   UNL     1      -2.218  -0.629  -3.408  0.00  0.00    +0.126 A 
ATOM      5  N   UNL     1      -1.617  -1.120  -4.490  0.00  0.00    -0.333 N 
ATOM      6  C   UNL     1      -0.331  -1.407  -4.478  0.00  0.00    +0.200 A 
ATOM      7  N   UNL     1       0.417  -1.221  -3.409  0.00  0.00    -0.220 NA
ATOM      8  H   UNL     1      -2.132  -1.268  -5.298  0.00  0.00    +0.168 HD
ENDROOT
BRANCH   1   9
ATOM      9  C   UNL     1       0.917  -1.612  -0.278  0.00  0.00    +0.035 A 
ATOM     10  C   UNL     1       1.622  -1.400   0.900  0.00  0.00    +0.023 A 
ATOM     11  C   UNL     1       1.844  -2.450   1.768  0.00  0.00    +0.002 A 
ATOM     12  C   UNL     1       1.366  -3.712   1.466  0.00  0.00    +0.003 A 
ATOM     13  C   UNL     1       0.664  -3.927   0.294  0.00  0.00    -0.049 A 
ATOM     14  C   UNL     1       0.433  -2.879  -0.576  0.00  0.00    +0.026 A 
ATOM     15  C   UNL     1       0.145  -5.304  -0.031  0.00  0.00    +0.044 C 
ENDBRANCH   1   9
BRANCH   3  16
ATOM     16  N   UNL     1      -2.057   0.095  -1.088  0.00  0.00    -0.353 N 
ATOM     17  H   UNL     1      -1.540   0.165  -0.270  0.00  0.00    +0.143 HD
ATOM     18  H   UNL     1      -2.984   0.381  -1.101  0.00  0.00    +0.143 HD
ENDBRANCH   3  16
BRANCH   1  20
ATOM     19  C   UNL     1       2.721   0.782  -1.444  0.00  0.00    +0.025 C 
ATOM     20  C   UNL     1       1.292   0.759  -0.899  0.00  0.00    +0.109 C 
ENDBRANCH   1  20
BRANCH   4  21
ATOM     21  N   UNL     1      -3.575  -0.329  -3.430  0.00  0.00    -0.296 N 
ATOM     22  H   UNL     1      -3.989   0.102  -2.666  0.00  0.00    +0.154 HD
BRANCH  21  23
ATOM     23  C   UNL     1      -4.345  -0.650  -4.555  0.00  0.00    +0.075 A 
ATOM     24  C   UNL     1      -4.768   0.352  -5.417  0.00  0.00    +0.027 A 
ATOM     25  C   UNL     1      -5.527   0.033  -6.527  0.00  0.00    +0.002 A 
ATOM     26  C   UNL     1      -5.868  -1.283  -6.780  0.00  0.00    +0.004 A 
ATOM     27  C   UNL     1      -5.451  -2.286  -5.925  0.00  0.00    +0.047 A 
ATOM     28  C   UNL     1      -4.684  -1.976  -4.814  0.00  0.00    +0.141 A 
BRANCH  28  29
ATOM     29  O   UNL     1      -4.268  -2.962  -3.976  0.00  0.00    -0.493 OA
ATOM     30  C   UNL     1      -4.653  -4.299  -4.305  0.00  0.00    +0.277 C 
ENDBRANCH  28  29
ENDBRANCH  21  23
ENDBRANCH   4  21
TORSDOF 6
