REMARK  Name = ZINC43259033
REMARK  9 active torsions:
REMARK  status: ('A' for Active; 'I' for Inactive)
REMARK    1  A    between atoms: C_1  and  C_2
REMARK    2  A    between atoms: C_2  and  C_3
REMARK    3  A    between atoms: C_3  and  C_5
REMARK    4  A    between atoms: C_3  and  N_23
REMARK    5  A    between atoms: C_5  and  C_7
REMARK    6  A    between atoms: C_5  and  N_13
REMARK    7  A    between atoms: C_18  and  C_20
REMARK    8  A    between atoms: C_20  and  C_21
REMARK    9  A    between atoms: C_21  and  O_22
REMARK                            x       y       z     vdW  Elec       q    Type
REMARK                         _______ _______ _______ _____ _____    ______ ____
ROOT
ATOM      1  C   UNL     1      -1.275  -1.787  -0.455  0.00  0.00    +0.079 C 
ENDROOT
BRANCH   1   2
ATOM      2  C   UNL     1      -1.899  -0.487  -0.894  0.00  0.00    +0.006 A 
ATOM      3  C   UNL     1      -3.102   0.038  -0.559  0.00  0.00    +0.014 A 
ATOM      4  C   UNL     1      -3.471   1.261  -1.089  0.00  0.00    +0.023 A 
ATOM      5  C   UNL     1      -2.618   1.898  -1.929  0.00  0.00    +0.055 A 
ATOM      6  S   UNL     1      -1.240   0.764  -1.985  0.00  0.00    -0.085 S 
ATOM      7 BR   UNL     1      -2.829   3.559  -2.807  0.00  0.00    -0.043 Br
ENDBRANCH   1   2
BRANCH   1   8
ATOM      8  N   UNL     1      -0.529  -2.375  -1.576  0.00  0.00    -0.294 NA
ATOM      9  C   UNL     1       0.832  -1.829  -1.646  0.00  0.00    +0.085 C 
ATOM     10  C   UNL     1       1.528  -2.352  -2.905  0.00  0.00    +0.015 C 
ATOM     11  C   UNL     1       1.573  -3.882  -2.859  0.00  0.00    +0.003 C 
ATOM     12  C   UNL     1       0.146  -4.424  -2.737  0.00  0.00    +0.019 C 
ATOM     13  C   UNL     1      -0.510  -3.841  -1.483  0.00  0.00    +0.059 C 
BRANCH  13  14
ATOM     14  C   UNL     1      -1.943  -4.363  -1.368  0.00  0.00    +0.046 C 
BRANCH  14  15
ATOM     15  C   UNL     1      -1.921  -5.887  -1.233  0.00  0.00    +0.157 C 
BRANCH  15  16
ATOM     16  O   UNL     1      -3.261  -6.383  -1.217  0.00  0.00    -0.395 OA
ATOM     17  H   UNL     1      -3.326  -7.335  -1.057  0.00  0.00    +0.209 HD
ENDBRANCH  15  16
ENDBRANCH  14  15
ENDBRANCH  13  14
ENDBRANCH   1   8
BRANCH   1  18
ATOM     18  C   UNL     1      -0.321  -1.526   0.712  0.00  0.00    -0.053 C 
BRANCH  18  19
ATOM     19  N   UNL     1      -1.038  -0.822   1.783  0.00  0.00    +0.381 N 
ATOM     20  H   UNL     1      -1.388   0.057   1.433  0.00  0.00    -0.090 HD
ATOM     21  H   UNL     1      -1.810  -1.390   2.100  0.00  0.00    -0.090 HD
ATOM     22  H   UNL     1      -0.408  -0.650   2.553  0.00  0.00    -0.090 HD
ENDBRANCH  18  19
BRANCH  18  24
ATOM     23  C   UNL     1       1.127  -2.601   2.441  0.00  0.00    +0.002 C 
ATOM     24  C   UNL     1       0.211  -2.858   1.243  0.00  0.00    -0.018 C 
ENDBRANCH  18  24
ENDBRANCH   1  18
TORSDOF 8
