REMARK  Name = ZINC02075411
REMARK  10 active torsions:
REMARK  status: ('A' for Active; 'I' for Inactive)
REMARK    1  A    between atoms: C_1  and  C_2
REMARK    2  A    between atoms: C_2  and  O_3
REMARK    3  A    between atoms: O_3  and  C_4
REMARK    4  A    between atoms: C_4  and  C_6
REMARK    5  A    between atoms: C_7  and  C_38
REMARK    6  A    between atoms: C_8  and  C_37
REMARK    7  A    between atoms: C_10  and  N_11
REMARK    8  A    between atoms: C_12  and  C_14
REMARK    9  A    between atoms: C_14  and  N_77
REMARK   10  A    between atoms: C_21  and  C_31
REMARK                            x       y       z     vdW  Elec       q    Type
REMARK                         _______ _______ _______ _____ _____    ______ ____
ROOT
ATOM      1  C   UNL     1      -7.487   1.886   3.086  0.00  0.00    -0.055 C 
ATOM      2  C   UNL     1      -8.530   1.851   1.962  0.00  0.00    +0.103 C 
ATOM      3  N   UNL     1      -9.631   2.755   2.330  0.00  0.00    -0.347 N 
ATOM      4  C   UNL     1     -10.888   2.864   1.816  0.00  0.00    +0.049 A 
ATOM      5  C   UNL     1     -11.549   2.155   0.815  0.00  0.00    +0.027 A 
ATOM      6  C   UNL     1     -12.848   2.532   0.525  0.00  0.00    +0.006 A 
ATOM      7  C   UNL     1     -13.481   3.569   1.191  0.00  0.00    -0.044 A 
ATOM      8  C   UNL     1     -12.859   4.287   2.181  0.00  0.00    +0.014 A 
ATOM      9  C   UNL     1     -11.544   3.929   2.501  0.00  0.00    +0.003 A 
ATOM     10  C   UNL     1     -10.598   4.429   3.460  0.00  0.00    -0.020 A 
ATOM     11  C   UNL     1      -9.484   3.683   3.323  0.00  0.00    +0.009 A 
ATOM     12  C   UNL     1      -8.258   3.909   4.178  0.00  0.00    -0.020 C 
ATOM     13  C   UNL     1      -8.034   5.408   4.296  0.00  0.00    -0.009 C 
ATOM     14  C   UNL     1      -9.271   6.258   4.451  0.00  0.00    +0.003 C 
ATOM     15  C   UNL     1     -10.609   5.534   4.480  0.00  0.00    +0.037 C 
ATOM     16  N   UNL     1      -7.139   3.281   3.431  0.00  0.00    +0.392 N 
ATOM     17  H   UNL     1      -6.978   3.808   2.565  0.00  0.00    -0.080 HD
ENDROOT
BRANCH   7  18
ATOM     18  C   UNL     1     -14.898   3.920   0.815  0.00  0.00    +0.019 C 
ATOM     19  C   UNL     1     -15.802   2.707   1.046  0.00  0.00    +0.008 C 
ATOM     20  C   UNL     1     -17.240   3.064   0.665  0.00  0.00    +0.001 C 
ATOM     21  C   UNL     1     -17.292   3.466  -0.811  0.00  0.00    +0.000 C 
ATOM     22  C   UNL     1     -16.388   4.678  -1.041  0.00  0.00    +0.001 C 
ATOM     23  C   UNL     1     -14.949   4.322  -0.660  0.00  0.00    +0.008 C 
ENDBRANCH   7  18
BRANCH  16  24
ATOM     24  C   UNL     1      -5.907   3.308   4.247  0.00  0.00    +0.020 C 
BRANCH  24  26
ATOM     25  N   UNL     1      -3.504   2.822   3.913  0.00  0.00    -0.281 N 
ATOM     26  C   UNL     1      -4.747   2.864   3.393  0.00  0.00    +0.201 C 
ATOM     27  O   UNL     1      -4.931   2.545   2.237  0.00  0.00    -0.278 OA
ATOM     28  H   UNL     1      -3.356   3.077   4.837  0.00  0.00    +0.155 HD
BRANCH  25  33
ATOM     29  C   UNL     1      -1.096   2.305   3.481  0.00  0.00    +0.091 A 
ATOM     30  C   UNL     1      -0.190   1.850   2.453  0.00  0.00    -0.025 A 
ATOM     31  C   UNL     1      -0.718   1.572   1.248  0.00  0.00    -0.008 A 
ATOM     32  S   UNL     1      -2.450   1.923   1.468  0.00  0.00    -0.078 S 
ATOM     33  C   UNL     1      -2.438   2.414   3.128  0.00  0.00    +0.086 A 
ATOM     34  C   UNL     1      -0.013   1.086   0.008  0.00  0.00    +0.052 C 
ATOM     35  C   UNL     1       1.285   1.695   2.719  0.00  0.00    +0.045 C 
BRANCH  29  36
ATOM     36  C   UNL     1      -0.627   2.637   4.828  0.00  0.00    +0.342 C 
ATOM     37  O   UNL     1      -0.273   3.771   5.086  0.00  0.00    -0.245 OA
BRANCH  36  38
ATOM     38  O   UNL     1      -0.588   1.684   5.782  0.00  0.00    -0.461 OA
BRANCH  38  40
ATOM     39  C   UNL     1      -0.138   0.878   8.035  0.00  0.00    +0.048 C 
ATOM     40  C   UNL     1      -0.111   2.084   7.094  0.00  0.00    +0.229 C 
ENDBRANCH  38  40
ENDBRANCH  36  38
ENDBRANCH  29  36
ENDBRANCH  25  33
ENDBRANCH  24  26
ENDBRANCH  16  24
TORSDOF 7
