REMARK  Name = ZINC50595054
REMARK  13 active torsions:
REMARK  status: ('A' for Active; 'I' for Inactive)
REMARK    1  A    between atoms: C_1  and  C_2
REMARK    2  A    between atoms: C_2  and  C_3
REMARK    3  A    between atoms: C_3  and  N_4
REMARK    4  A    between atoms: N_4  and  C_5
REMARK    5  A    between atoms: C_5  and  C_6
REMARK    6  A    between atoms: C_5  and  C_7
REMARK    7  A    between atoms: C_5  and  C_19
REMARK    8  A    between atoms: C_7  and  C_8
REMARK    9  A    between atoms: C_8  and  C_9
REMARK   10  A    between atoms: C_9  and  C_10
REMARK   11  A    between atoms: C_10  and  N_11
REMARK   12  A    between atoms: C_12  and  C_18
REMARK   13  A    between atoms: C_14  and  C_16
REMARK                            x       y       z     vdW  Elec       q    Type
REMARK                         _______ _______ _______ _____ _____    ______ ____
ROOT
ATOM      1  C   UNL     1      -2.792  -2.511   0.015  0.00  0.00    +0.007 C 
ATOM      2  C   UNL     1      -3.508  -2.018   1.274  0.00  0.00    -0.001 C 
ENDROOT
BRANCH   1   3
ATOM      3  C   UNL     1      -3.520  -2.012  -1.206  0.00  0.00    +0.199 C 
ATOM      4  O   UNL     1      -4.700  -1.740  -1.139  0.00  0.00    -0.278 OA
ATOM      5  N   UNL     1      -2.861  -1.868  -2.372  0.00  0.00    -0.330 N 
ATOM      6  H   UNL     1      -1.917  -2.085  -2.426  0.00  0.00    +0.145 HD
ATOM      7  H   UNL     1      -3.330  -1.546  -3.158  0.00  0.00    +0.145 HD
ENDBRANCH   1   3
BRANCH   1   8
ATOM      8  N   UNL     1      -1.413  -2.002   0.005  0.00  0.00    +0.388 N 
ATOM      9  H   UNL     1      -0.941  -2.328  -0.825  0.00  0.00    -0.084 HD
ATOM     10  H   UNL     1      -0.925  -2.337   0.822  0.00  0.00    -0.084 HD
BRANCH   8  11
ATOM     11  C   UNL     1      -1.433  -0.534   0.013  0.00  0.00    -0.081 C 
BRANCH  11  13
ATOM     12  C   UNL     1      -0.019   1.526   0.010  0.00  0.00    +0.002 C 
ATOM     13  C   UNL     1       0.002  -0.004   0.002  0.00  0.00    -0.022 C 
ENDBRANCH  11  13
ENDBRANCH   8  11
ENDBRANCH   1   8
BRANCH   1  14
ATOM     14  C   UNL     1      -2.771  -4.041   0.007  0.00  0.00    -0.004 C 
BRANCH  14  15
ATOM     15  C   UNL     1      -4.206  -4.570   0.018  0.00  0.00    +0.001 C 
BRANCH  15  16
ATOM     16  C   UNL     1      -4.185  -6.100   0.009  0.00  0.00    +0.023 C 
BRANCH  16  17
ATOM     17  C   UNL     1      -5.621  -6.630   0.020  0.00  0.00    +0.144 C 
BRANCH  17  18
ATOM     18  N   UNL     1      -5.601  -8.095   0.012  0.00  0.00    -0.267 N 
ATOM     19  C   UNL     1      -5.595  -8.883  -1.084  0.00  0.00    +0.050 A 
ATOM     20  C   UNL     1      -5.575 -10.170  -0.666  0.00  0.00    +0.061 A 
ATOM     21  C   UNL     1      -5.568 -10.168   0.733  0.00  0.00    +0.074 A 
ATOM     22  N   UNL     1      -5.579  -8.925   1.140  0.00  0.00    -0.175 NA
ATOM     23  C   UNL     1      -5.547 -11.388   1.618  0.00  0.00    +0.068 C 
ATOM     24 BR   UNL     1      -5.560 -11.701  -1.777  0.00  0.00    -0.047 Br
ATOM     25  C   UNL     1      -5.609  -8.414  -2.516  0.00  0.00    +0.066 C 
ENDBRANCH  17  18
ENDBRANCH  16  17
ENDBRANCH  15  16
ENDBRANCH  14  15
ENDBRANCH   1  14
TORSDOF 9
