REMARK  Name = ZINC35888599
REMARK  15 active torsions:
REMARK  status: ('A' for Active; 'I' for Inactive)
REMARK    1  A    between atoms: C_1  and  C_2
REMARK    2  A    between atoms: C_5  and  C_8
REMARK    3  A    between atoms: N_10  and  C_11
REMARK    4  A    between atoms: N_10  and  C_35
REMARK    5  A    between atoms: C_11  and  C_12
REMARK    6  A    between atoms: N_15  and  C_29
REMARK    7  A    between atoms: C_17  and  C_19
REMARK    8  A    between atoms: C_23  and  C_25
REMARK    9  A    between atoms: C_29  and  C_30
REMARK   10  A    between atoms: C_29  and  C_31
REMARK   11  A    between atoms: C_29  and  C_33
REMARK   12  A    between atoms: C_31  and  O_32
REMARK   13  A    between atoms: C_35  and  C_36
REMARK   14  A    between atoms: C_36  and  C_37
REMARK   15  A    between atoms: C_36  and  C_38
REMARK                            x       y       z     vdW  Elec       q    Type
REMARK                         _______ _______ _______ _____ _____    ______ ____
ROOT
ATOM      1  C   UNL     1       2.214  -7.430   1.432  0.00  0.00    -0.005 C 
ATOM      2  C   UNL     1       2.136  -7.541   2.970  0.00  0.00    -0.072 C 
ATOM      3  N   UNL     1       1.594  -8.901   3.221  0.00  0.00    +0.388 N 
ATOM      4  C   UNL     1       2.266  -9.754   2.206  0.00  0.00    -0.069 C 
ATOM      5  C   UNL     1       2.301  -8.885   0.928  0.00  0.00    +0.005 C 
ATOM      6  H   UNL     1       0.595  -8.914   3.086  0.00  0.00    -0.080 HD
ENDROOT
BRANCH   5   7
ATOM      7  C   UNL     1       3.591  -9.103   0.180  0.00  0.00    -0.045 A 
ATOM      8  C   UNL     1       4.800  -8.999   0.842  0.00  0.00    +0.004 A 
ATOM      9  C   UNL     1       5.983  -9.199   0.156  0.00  0.00    +0.001 A 
ATOM     10  C   UNL     1       5.958  -9.504  -1.193  0.00  0.00    +0.012 A 
ATOM     11  C   UNL     1       4.749  -9.609  -1.854  0.00  0.00    +0.055 A 
ATOM     12  C   UNL     1       3.565  -9.413  -1.167  0.00  0.00    +0.016 A 
BRANCH  11  13
ATOM     13  C   UNL     1       4.721  -9.941  -3.324  0.00  0.00    +0.417 C 
ATOM     14  F   UNL     1       6.030 -10.095  -3.792  0.00  0.00    -0.166 F 
ATOM     15  F   UNL     1       4.012 -11.131  -3.520  0.00  0.00    -0.166 F 
ATOM     16  F   UNL     1       4.094  -8.904  -4.024  0.00  0.00    -0.166 F 
ENDBRANCH  11  13
ENDBRANCH   5   7
BRANCH   3  17
ATOM     17  C   UNL     1       1.938  -9.349   4.577  0.00  0.00    -0.026 C 
ATOM     18  C   UNL     1       3.459  -9.446   4.712  0.00  0.00    -0.003 C 
BRANCH  17  19
ATOM     19  C   UNL     1       1.325 -10.703   4.830  0.00  0.00    -0.044 C 
ATOM     20  C   UNL     1       0.486 -11.213   3.963  0.00  0.00    +0.002 C 
ENDBRANCH  17  19
BRANCH  17  21
ATOM     21  C   UNL     1       1.398  -8.346   5.598  0.00  0.00    +0.147 C 
BRANCH  21  22
ATOM     22  O   UNL     1      -0.023  -8.256   5.471  0.00  0.00    -0.396 OA
ATOM     23  H   UNL     1      -0.434  -7.636   6.089  0.00  0.00    +0.209 HD
ENDBRANCH  21  22
ENDBRANCH  17  21
ENDBRANCH   3  17
BRANCH   1  24
ATOM     24  C   UNL     1       0.957  -6.752   0.884  0.00  0.00    +0.110 C 
BRANCH  24  27
ATOM     25  C   UNL     1       1.647  -4.438   0.557  0.00  0.00    +0.247 C 
ATOM     26  O   UNL     1       2.194  -4.775  -0.475  0.00  0.00    -0.270 OA
ATOM     27  N   UNL     1       0.952  -5.341   1.277  0.00  0.00    -0.297 N 
BRANCH  25  32
ATOM     28  C   UNL     1       2.024   1.011   2.368  0.00  0.00    +0.044 C 
ATOM     29  C   UNL     1       1.925  -0.416   1.893  0.00  0.00    -0.050 A 
ATOM     30  C   UNL     1       0.698  -1.055   1.884  0.00  0.00    +0.004 A 
ATOM     31  C   UNL     1       0.601  -2.361   1.451  0.00  0.00    +0.013 A 
ATOM     32  C   UNL     1       1.744  -3.038   1.022  0.00  0.00    +0.037 A 
ATOM     33  C   UNL     1       2.978  -2.387   1.033  0.00  0.00    +0.013 A 
ATOM     34  C   UNL     1       3.061  -1.079   1.464  0.00  0.00    +0.004 A 
ENDBRANCH  25  32
BRANCH  27  35
ATOM     35  C   UNL     1       0.193  -4.911   2.454  0.00  0.00    +0.111 C 
BRANCH  35  36
ATOM     36  C   UNL     1      -1.282  -4.750   2.078  0.00  0.00    +0.000 C 
ATOM     37  C   UNL     1      -1.863  -6.113   1.698  0.00  0.00    +0.009 C 
ATOM     38  C   UNL     1      -2.053  -4.181   3.271  0.00  0.00    +0.009 C 
ENDBRANCH  35  36
ENDBRANCH  27  35
ENDBRANCH  24  27
ENDBRANCH   1  24
TORSDOF 11
