REMARK  Name = ZINC42547070
REMARK  7 active torsions:
REMARK  status: ('A' for Active; 'I' for Inactive)
REMARK    1  A    between atoms: C_1  and  C_2
REMARK    2  A    between atoms: C_7  and  C_8
REMARK    3  A    between atoms: N_10  and  C_11
REMARK    4  A    between atoms: N_10  and  C_17
REMARK    5  A    between atoms: C_11  and  C_12
REMARK    6  A    between atoms: C_12  and  C_13
REMARK    7  A    between atoms: N_14  and  O_15
REMARK                            x       y       z     vdW  Elec       q    Type
REMARK                         _______ _______ _______ _____ _____    ______ ____
ROOT
ATOM      1  C   UNL     1      -0.368   0.008   2.667  0.00  0.00    +0.247 C 
ATOM      2  O   UNL     1      -0.543  -0.670   1.674  0.00  0.00    -0.270 OA
ATOM      3  N   UNL     1      -0.244  -0.582   3.873  0.00  0.00    -0.294 N 
ENDROOT
BRANCH   1  10
ATOM      4  C   UNL     1      -2.527   1.460   1.403  0.00  0.00    +0.044 C 
ATOM      5  C   UNL     1      -1.326   2.191   1.945  0.00  0.00    -0.037 A 
ATOM      6  C   UNL     1      -1.250   3.564   1.846  0.00  0.00    +0.019 A 
ATOM      7  C   UNL     1      -0.147   4.237   2.343  0.00  0.00    +0.018 A 
ATOM      8  C   UNL     1       0.887   3.537   2.943  0.00  0.00    +0.016 A 
ATOM      9  C   UNL     1       0.823   2.163   3.047  0.00  0.00    +0.014 A 
ATOM     10  C   UNL     1      -0.290   1.480   2.553  0.00  0.00    +0.040 A 
ATOM     11 BR   UNL     1      -0.051   6.121   2.204  0.00  0.00    -0.050 Br
ENDBRANCH   1  10
BRANCH   3  12
ATOM     12  C   UNL     1      -0.172  -2.042   3.970  0.00  0.00    +0.076 C 
ATOM     13  C   UNL     1       0.169  -2.819   2.697  0.00  0.00    +0.024 C 
ATOM     14  C   UNL     1      -1.255  -2.852   3.256  0.00  0.00    +0.024 C 
ENDBRANCH   3  12
BRANCH   3  15
ATOM     15  C   UNL     1      -0.182   0.237   5.086  0.00  0.00    +0.116 C 
BRANCH  15  16
ATOM     16  C   UNL     1      -1.596   0.459   5.625  0.00  0.00    +0.093 C 
BRANCH  16  17
ATOM     17  C   UNL     1      -1.532   1.302   6.873  0.00  0.00    +0.133 C 
ATOM     18  N   UNL     1      -0.391   1.712   7.317  0.00  0.00    -0.077 NA
ATOM     19  N   UNL     1      -2.691   1.635   7.539  0.00  0.00    -0.344 N 
ATOM     20  H   UNL     1      -3.548   1.327   7.206  0.00  0.00    +0.144 HD
ATOM     21  H   UNL     1      -2.649   2.177   8.343  0.00  0.00    +0.144 HD
BRANCH  18  22
ATOM     22  O   UNL     1      -0.330   2.504   8.490  0.00  0.00    -0.408 OA
ATOM     23  H   UNL     1       0.566   2.762   8.744  0.00  0.00    +0.328 HD
ENDBRANCH  18  22
ENDBRANCH  16  17
ENDBRANCH  15  16
ENDBRANCH   3  15
TORSDOF 6
