REMARK  Name = ZINC36985439
REMARK  3 active torsions:
REMARK  status: ('A' for Active; 'I' for Inactive)
REMARK    1  A    between atoms: C_3  and  C_15
REMARK    2  A    between atoms: C_4  and  N_8
REMARK    3  A    between atoms: C_15  and  N_16
REMARK                            x       y       z     vdW  Elec       q    Type
REMARK                         _______ _______ _______ _____ _____    ______ ____
ROOT
ATOM      1  C   UNL     1      -0.017   1.379   0.010  0.00  0.00    +0.015 A 
ATOM      2  C   UNL     1       1.170   2.090   0.002  0.00  0.00    +0.004 A 
ATOM      3  C   UNL     1       2.377   1.421  -0.013  0.00  0.00    -0.044 A 
ATOM      4  C   UNL     1       2.400   0.031  -0.021  0.00  0.00    +0.033 A 
ATOM      5  C   UNL     1       1.208  -0.680  -0.013  0.00  0.00    +0.038 A 
ATOM      6  C   UNL     1       0.002  -0.004   0.002  0.00  0.00    +0.020 A 
ATOM      7 BR   UNL     1      -1.623  -0.971   0.013  0.00  0.00    -0.050 Br
ENDROOT
BRANCH   4   8
ATOM      8  N   UNL     1       3.620  -0.648  -0.037  0.00  0.00    -0.319 N 
ATOM      9  C   UNL     1       4.300  -1.033   1.211  0.00  0.00    +0.124 C 
ATOM     10  C   UNL     1       4.413  -2.559   1.243  0.00  0.00    +0.123 C 
ATOM     11  N   UNL     1       4.897  -3.067  -0.033  0.00  0.00    -0.313 N 
ATOM     12  C   UNL     1       4.811  -2.411  -1.191  0.00  0.00    +0.230 C 
ATOM     13  O   UNL     1       5.178  -2.972  -2.202  0.00  0.00    -0.274 OA
ATOM     14  C   UNL     1       4.276  -1.014  -1.302  0.00  0.00    +0.200 C 
ATOM     15  H   UNL     1       5.311  -3.944  -0.041  0.00  0.00    +0.149 HD
ENDBRANCH   4   8
BRANCH   3  16
ATOM     16  C   UNL     1       3.669   2.196  -0.023  0.00  0.00    -0.049 C 
BRANCH  16  17
ATOM     17  N   UNL     1       4.199   2.249  -1.392  0.00  0.00    +0.381 N 
ATOM     18  H   UNL     1       5.064   2.768  -1.398  0.00  0.00    -0.090 HD
ATOM     19  H   UNL     1       4.368   1.311  -1.724  0.00  0.00    -0.090 HD
ATOM     20  H   UNL     1       3.530   2.704  -1.994  0.00  0.00    -0.090 HD
ENDBRANCH  16  17
ENDBRANCH   3  16
TORSDOF 3
