REMARK  Name = ZINC54423755
REMARK  7 active torsions:
REMARK  status: ('A' for Active; 'I' for Inactive)
REMARK    1  A    between atoms: C_1  and  C_2
REMARK    2  A    between atoms: C_5  and  C_27
REMARK    3  A    between atoms: N_8  and  C_10
REMARK    4  A    between atoms: C_10  and  C_11
REMARK    5  A    between atoms: C_11  and  C_12
REMARK    6  A    between atoms: N_14  and  C_15
REMARK    7  A    between atoms: C_16  and  C_24
REMARK                            x       y       z     vdW  Elec       q    Type
REMARK                         _______ _______ _______ _____ _____    ______ ____
ROOT
ATOM      1  C   UNL     1       1.228  -2.565   4.931  0.00  0.00    +0.216 C 
ATOM      2  O   UNL     1       2.274  -3.174   4.867  0.00  0.00    -0.276 OA
ATOM      3  N   UNL     1       0.656  -2.332   6.130  0.00  0.00    -0.279 N 
ATOM      4  H   UNL     1      -0.181  -1.845   6.181  0.00  0.00    +0.155 HD
ENDROOT
BRANCH   3   5
ATOM      5  C   UNL     1       1.265  -2.788   7.289  0.00  0.00    +0.084 A 
ATOM      6  C   UNL     1       0.824  -2.648   8.595  0.00  0.00    +0.068 A 
ATOM      7  C   UNL     1       1.653  -3.221   9.641  0.00  0.00    -0.023 A 
ATOM      8  C   UNL     1       2.770  -3.830   9.189  0.00  0.00    -0.004 A 
ATOM      9  S   UNL     1       2.702  -3.645   7.431  0.00  0.00    -0.077 S 
ATOM     10  C   UNL     1       3.820  -4.511  10.012  0.00  0.00    +0.043 C 
ATOM     11  C   UNL     1       3.632  -4.088  11.477  0.00  0.00    +0.005 C 
ATOM     12  C   UNL     1       2.154  -4.233  11.849  0.00  0.00    +0.005 C 
ATOM     13  C   UNL     1       1.328  -3.166  11.127  0.00  0.00    +0.037 C 
BRANCH   6  14
ATOM     14  C   UNL     1      -0.426  -1.948   8.908  0.00  0.00    +0.244 C 
ATOM     15  O   UNL     1      -1.473  -2.567   8.958  0.00  0.00    -0.270 OA
ATOM     16  N   UNL     1      -0.415  -0.621   9.141  0.00  0.00    -0.325 N 
ATOM     17  H   UNL     1       0.419  -0.128   9.101  0.00  0.00    +0.145 HD
ATOM     18  H   UNL     1      -1.242  -0.158   9.348  0.00  0.00    +0.145 HD
ENDBRANCH   6  14
ENDBRANCH   3   5
BRANCH   1  19
ATOM     19  C   UNL     1       0.566  -2.069   3.672  0.00  0.00    +0.077 C 
BRANCH  19  20
ATOM     20  C   UNL     1       1.413  -2.463   2.461  0.00  0.00    -0.070 C 
BRANCH  20  26
ATOM     21  C   UNL     1      -0.019   1.526   0.010  0.00  0.00    +0.005 C 
ATOM     22  C   UNL     1       0.002  -0.004   0.002  0.00  0.00    -0.031 C 
ATOM     23  C   UNL     1       0.721  -0.499  -1.257  0.00  0.00    +0.003 C 
ATOM     24  C   UNL     1       0.805  -2.027  -1.217  0.00  0.00    -0.031 C 
ATOM     25  C   UNL     1       1.518  -2.460   0.066  0.00  0.00    -0.076 C 
ATOM     26  N   UNL     1       0.768  -1.979   1.233  0.00  0.00    +0.380 N 
ATOM     27  C   UNL     1       0.744  -0.512   1.240  0.00  0.00    -0.076 C 
ATOM     28  C   UNL     1      -0.606  -2.618  -1.242  0.00  0.00    +0.005 C 
ATOM     29  H   UNL     1      -0.177  -2.330   1.192  0.00  0.00    -0.082 HD
ENDBRANCH  20  26
ENDBRANCH  19  20
ENDBRANCH   1  19
TORSDOF 5
