REMARK  Name = ZINC04236764
REMARK  14 active torsions:
REMARK  status: ('A' for Active; 'I' for Inactive)
REMARK    1  A    between atoms: C_1  and  C_2
REMARK    2  A    between atoms: C_5  and  O_30
REMARK    3  A    between atoms: C_7  and  C_27
REMARK    4  A    between atoms: C_7  and  C_28
REMARK    5  A    between atoms: C_12  and  O_26
REMARK    6  A    between atoms: C_14  and  C_16
REMARK    7  A    between atoms: C_16  and  C_17
REMARK    8  A    between atoms: N_19  and  C_20
REMARK    9  A    between atoms: C_20  and  C_21
REMARK   10  A    between atoms: C_28  and  O_29
REMARK   11  A    between atoms: O_30  and  C_31
REMARK   12  A    between atoms: N_33  and  C_34
REMARK   13  A    between atoms: C_38  and  S_40
REMARK   14  A    between atoms: S_40  and  C_41
REMARK                            x       y       z     vdW  Elec       q    Type
REMARK                         _______ _______ _______ _____ _____    ______ ____
ROOT
ATOM      1  C   UNL     1      -1.806  12.133   6.733  0.00  0.00    +0.012 C 
ATOM      2  C   UNL     1      -1.823  12.519   5.252  0.00  0.00    -0.023 C 
ATOM      3  C   UNL     1      -0.724  11.754   4.513  0.00  0.00    +0.011 C 
ATOM      4  C   UNL     1      -0.968  10.250   4.651  0.00  0.00    +0.046 C 
ATOM      5  C   UNL     1      -2.328   9.897   4.048  0.00  0.00    +0.186 C 
ATOM      6  C   UNL     1      -3.428  10.662   4.787  0.00  0.00    +0.031 C 
ATOM      7  C   UNL     1      -3.184  12.166   4.649  0.00  0.00    +0.007 C 
ATOM      8  C   UNL     1      -4.284  12.931   5.388  0.00  0.00    +0.007 C 
ATOM      9  C   UNL     1      -4.040  14.435   5.250  0.00  0.00    +0.032 C 
ATOM     10  C   UNL     1      -2.679  14.788   5.854  0.00  0.00    +0.119 C 
ATOM     11  C   UNL     1      -1.579  14.023   5.114  0.00  0.00    +0.032 C 
ATOM     12  C   UNL     1      -4.789  10.308   4.183  0.00  0.00    +0.017 C 
ENDROOT
BRANCH  10  13
ATOM     13  O   UNL     1      -2.663  14.428   7.236  0.00  0.00    -0.391 OA
ATOM     14  H   UNL     1      -3.336  14.876   7.767  0.00  0.00    +0.210 HD
ENDBRANCH  10  13
BRANCH  11  15
ATOM     15  C   UNL     1      -0.219  14.377   5.718  0.00  0.00    +0.102 C 
BRANCH  15  16
ATOM     16  C   UNL     1       0.076  15.834   5.473  0.00  0.00    +0.214 C 
ATOM     17  O   UNL     1      -0.724  16.523   4.875  0.00  0.00    -0.276 OA
ATOM     18  N   UNL     1       1.228  16.373   5.919  0.00  0.00    -0.308 N 
ATOM     19  H   UNL     1       1.868  15.822   6.397  0.00  0.00    +0.149 HD
BRANCH  18  20
ATOM     20  C   UNL     1       1.515  17.790   5.681  0.00  0.00    +0.178 C 
BRANCH  20  21
ATOM     21  C   UNL     1       2.855  18.138   6.276  0.00  0.00    +0.122 A 
ATOM     22  C   UNL     1       4.040  18.063   5.643  0.00  0.00    +0.046 A 
ATOM     23  C   UNL     1       5.025  18.480   6.567  0.00  0.00    +0.041 A 
ATOM     24  C   UNL     1       4.384  18.784   7.710  0.00  0.00    +0.195 A 
ATOM     25  O   UNL     1       3.069  18.581   7.526  0.00  0.00    -0.466 OA
ENDBRANCH  20  21
ENDBRANCH  18  20
ENDBRANCH  15  16
ENDBRANCH  11  15
BRANCH   6  26
ATOM     26  C   UNL     1      -3.411  10.276   6.267  0.00  0.00    +0.166 C 
BRANCH  26  27
ATOM     27  O   UNL     1      -3.831   8.917   6.410  0.00  0.00    -0.394 OA
ATOM     28  H   UNL     1      -3.845   8.604   7.325  0.00  0.00    +0.209 HD
ENDBRANCH  26  27
ENDBRANCH   6  26
BRANCH   5  29
ATOM     29  O   UNL     1      -2.560   8.469   4.178  0.00  0.00    -0.446 OA
BRANCH  29  30
ATOM     30  C   UNL     1      -2.137   7.686   3.168  0.00  0.00    +0.405 C 
ATOM     31  O   UNL     1      -1.590   8.182   2.203  0.00  0.00    -0.226 OA
ATOM     32  N   UNL     1      -2.321   6.353   3.226  0.00  0.00    -0.251 N 
ATOM     33  H   UNL     1      -2.818   5.963   3.963  0.00  0.00    +0.158 HD
BRANCH  32  34
ATOM     34  C   UNL     1      -1.796   5.529   2.224  0.00  0.00    +0.037 A 
ATOM     35  C   UNL     1      -1.754   5.975   0.908  0.00  0.00    +0.023 A 
ATOM     36  C   UNL     1      -1.237   5.163  -0.082  0.00  0.00    +0.003 A 
ATOM     37  C   UNL     1      -0.754   3.907   0.232  0.00  0.00    +0.015 A 
ATOM     38  C   UNL     1      -0.798   3.452   1.545  0.00  0.00    +0.009 A 
ATOM     39  C   UNL     1      -1.318   4.267   2.542  0.00  0.00    +0.038 A 
BRANCH  38  40
ATOM     40  S   UNL     1      -0.189   1.848   1.944  0.00  0.00    -0.129 S 
ATOM     41  C   UNL     1       0.372   1.183   0.352  0.00  0.00    +0.090 C 
ENDBRANCH  38  40
ENDBRANCH  32  34
ENDBRANCH  29  30
ENDBRANCH   5  29
TORSDOF 11
