REMARK  Name = ZINC39948683
REMARK  7 active torsions:
REMARK  status: ('A' for Active; 'I' for Inactive)
REMARK    1  A    between atoms: C_1  and  C_2
REMARK    2  A    between atoms: C_2  and  C_3
REMARK    3  A    between atoms: C_2  and  C_4
REMARK    4  A    between atoms: C_2  and  C_5
REMARK    5  A    between atoms: C_8  and  C_11
REMARK    6  A    between atoms: N_16  and  N_17
REMARK    7  A    between atoms: C_18  and  C_19
REMARK                            x       y       z     vdW  Elec       q    Type
REMARK                         _______ _______ _______ _____ _____    ______ ____
ROOT
ATOM      1  C   UNL     1       2.589  -1.691  -4.680  0.00  0.00    +0.214 C 
ATOM      2  N   UNL     1       1.700  -1.880  -5.843  0.00  0.00    -0.215 NA
ATOM      3  N   UNL     1       2.295  -1.228  -6.886  0.00  0.00    -0.259 N 
ATOM      4  C   UNL     1       3.445  -0.658  -6.504  0.00  0.00    +0.168 C 
ATOM      5  N   UNL     1       3.704  -0.883  -5.200  0.00  0.00    -0.180 N 
ATOM      6  S   UNL     1       4.463   0.243  -7.544  0.00  0.00    -0.016 S 
ATOM      7  H   UNL     1       1.580  -2.860  -6.051  0.00  0.00    +0.147 HD
ATOM      8  H   UNL     1       1.932  -1.183  -7.784  0.00  0.00    +0.168 HD
ENDROOT
BRANCH   1  12
ATOM      9  C   UNL     1       0.551   0.406  -1.566  0.00  0.00    -0.042 A 
ATOM     10  C   UNL     1      -0.147  -0.456  -2.391  0.00  0.00    +0.004 A 
ATOM     11  C   UNL     1       0.512  -1.135  -3.398  0.00  0.00    +0.007 A 
ATOM     12  C   UNL     1       1.870  -0.950  -3.582  0.00  0.00    -0.010 A 
ATOM     13  C   UNL     1       2.568  -0.087  -2.758  0.00  0.00    +0.007 A 
ATOM     14  C   UNL     1       1.907   0.594  -1.753  0.00  0.00    +0.004 A 
BRANCH   9  16
ATOM     15  C   UNL     1      -0.032   2.652  -0.693  0.00  0.00    +0.015 C 
ATOM     16  C   UNL     1      -0.168   1.145  -0.467  0.00  0.00    -0.013 C 
ATOM     17  C   UNL     1       0.446   0.774   0.884  0.00  0.00    +0.015 C 
ATOM     18  C   UNL     1      -1.649   0.760  -0.478  0.00  0.00    +0.015 C 
ENDBRANCH   9  16
ENDBRANCH   1  12
BRANCH   5  19
ATOM     19  N   UNL     1       4.819  -0.436  -4.478  0.00  0.00    -0.184 NA
ATOM     20  C   UNL     1       5.679   0.378  -5.039  0.00  0.00    +0.136 C 
BRANCH  20  21
ATOM     21  C   UNL     1       6.848   0.740  -4.357  0.00  0.00    +0.000 C 
ATOM     22  C   UNL     1       7.855   1.592  -4.805  0.00  0.00    +0.004 A 
ATOM     23  C   UNL     1       8.026   2.321  -6.003  0.00  0.00    +0.010 A 
ATOM     24  C   UNL     1       9.133   3.088  -6.172  0.00  0.00    +0.001 A 
ATOM     25  C   UNL     1      10.119   3.179  -5.186  0.00  0.00    +0.002 A 
ATOM     26  C   UNL     1      10.021   2.508  -4.012  0.00  0.00    +0.026 A 
ATOM     27  C   UNL     1       8.891   1.685  -3.762  0.00  0.00    +0.043 A 
ATOM     28  N   UNL     1       8.566   0.944  -2.723  0.00  0.00    -0.380 N 
ATOM     29  C   UNL     1       7.277   0.293  -2.977  0.00  0.00    +0.150 C 
ATOM     30  H   UNL     1       9.094   0.848  -1.915  0.00  0.00    +0.160 HD
ENDBRANCH  20  21
ENDBRANCH   5  19
TORSDOF 4
