REMARK  Name = ZINC08635995
REMARK  11 active torsions:
REMARK  status: ('A' for Active; 'I' for Inactive)
REMARK    1  A    between atoms: C_1  and  O_2
REMARK    2  A    between atoms: O_2  and  C_3
REMARK    3  A    between atoms: C_3  and  C_4
REMARK    4  A    between atoms: C_9  and  C_10
REMARK    5  A    between atoms: C_9  and  N_68
REMARK    6  A    between atoms: C_18  and  C_20
REMARK    7  A    between atoms: C_20  and  N_21
REMARK    8  A    between atoms: N_21  and  C_22
REMARK    9  A    between atoms: C_22  and  N_24
REMARK   10  A    between atoms: N_24  and  C_25
REMARK   11  A    between atoms: C_28  and  N_31
REMARK                            x       y       z     vdW  Elec       q    Type
REMARK                         _______ _______ _______ _____ _____    ______ ____
ROOT
ATOM      1  C   UNL     1       2.196   4.688   1.344  0.00  0.00    -0.041 C 
ATOM      2  C   UNL     1       2.909   4.538  -0.003  0.00  0.00    -0.076 C 
ATOM      3  C   UNL     1       4.854   5.717   0.832  0.00  0.00    -0.078 C 
ATOM      4  C   UNL     1       4.196   5.900   2.203  0.00  0.00    -0.015 C 
ATOM      5  C   UNL     1       2.676   5.980   2.016  0.00  0.00    -0.015 C 
ATOM      6  C   UNL     1       2.358   7.161   1.090  0.00  0.00    -0.010 C 
ATOM      7  C   UNL     1       3.067   6.943  -0.250  0.00  0.00    -0.051 C 
ATOM      8  N   UNL     1       3.827   5.675  -0.231  0.00  0.00    +0.383 N 
ATOM      9  H   UNL     1       4.292   5.551  -1.138  0.00  0.00    -0.081 HD
ENDROOT
BRANCH   1  10
ATOM     10  C   UNL     1       0.685   4.757   1.119  0.00  0.00    -0.076 C 
BRANCH  10  15
ATOM     11  C   UNL     1      -1.265   3.419   0.562  0.00  0.00    -0.043 C 
ATOM     12  C   UNL     1      -1.660   1.955   0.834  0.00  0.00    -0.015 C 
ATOM     13  C   UNL     1      -0.322   1.205   1.026  0.00  0.00    -0.020 C 
ATOM     14  C   UNL     1       0.659   2.340   1.414  0.00  0.00    -0.078 C 
ATOM     15  N   UNL     1       0.198   3.455   0.571  0.00  0.00    +0.383 N 
ATOM     16  H   UNL     1       0.553   3.337  -0.385  0.00  0.00    -0.081 HD
BRANCH  11  17
ATOM     17  C   UNL     1      -1.797   3.857  -0.803  0.00  0.00    +0.144 C 
BRANCH  17  19
ATOM     18  C   UNL     1      -1.807   3.253  -3.123  0.00  0.00    +0.193 C 
ATOM     19  O   UNL     1      -1.362   2.933  -1.803  0.00  0.00    -0.385 OA
ENDBRANCH  17  19
ENDBRANCH  11  17
ENDBRANCH  10  15
ENDBRANCH   1  10
BRANCH   7  20
ATOM     20  C   UNL     1       2.030   6.884  -1.373  0.00  0.00    +0.088 C 
BRANCH  20  21
ATOM     21  N   UNL     1       2.696   6.554  -2.635  0.00  0.00    -0.328 N 
ATOM     22  H   UNL     1       3.655   6.412  -2.655  0.00  0.00    +0.148 HD
BRANCH  21  23
ATOM     23  C   UNL     1       1.975   6.448  -3.769  0.00  0.00    +0.134 C 
ATOM     24  S   UNL     1       0.282   6.698  -3.734  0.00  0.00    -0.019 S 
BRANCH  23  25
ATOM     25  N   UNL     1       2.587   6.144  -4.931  0.00  0.00    -0.297 N 
ATOM     26  H   UNL     1       3.553   6.063  -4.963  0.00  0.00    +0.154 HD
BRANCH  25  27
ATOM     27  C   UNL     1       1.829   5.947  -6.091  0.00  0.00    +0.033 A 
ATOM     28  C   UNL     1       2.098   4.866  -6.921  0.00  0.00    +0.025 A 
ATOM     29  C   UNL     1       1.348   4.669  -8.063  0.00  0.00    +0.029 A 
ATOM     30  C   UNL     1       0.330   5.556  -8.386  0.00  0.00    +0.065 A 
ATOM     31  C   UNL     1       0.064   6.640  -7.560  0.00  0.00    +0.029 A 
ATOM     32  C   UNL     1       0.811   6.835  -6.415  0.00  0.00    +0.025 A 
BRANCH  30  33
ATOM     33  N   UNL     1      -0.429   5.359  -9.549  0.00  0.00    -0.240 N 
ATOM     34  C   UNL     1      -0.277   4.351 -10.437  0.00  0.00    +0.114 A 
ATOM     35  C   UNL     1      -1.200   4.518 -11.413  0.00  0.00    +0.041 A 
ATOM     36  C   UNL     1      -1.941   5.666 -11.112  0.00  0.00    +0.135 A 
ATOM     37  N   UNL     1      -1.484   6.167  -9.993  0.00  0.00    -0.175 NA
ENDBRANCH  30  33
ENDBRANCH  25  27
ENDBRANCH  23  25
ENDBRANCH  21  23
ENDBRANCH  20  21
ENDBRANCH   7  20
TORSDOF 10
