REMARK  Name = ZINC20804799
REMARK  10 active torsions:
REMARK  status: ('A' for Active; 'I' for Inactive)
REMARK    1  A    between atoms: C_1  and  C_2
REMARK    2  A    between atoms: C_2  and  C_4
REMARK    3  A    between atoms: C_2  and  N_17
REMARK    4  A    between atoms: C_4  and  C_6
REMARK    5  A    between atoms: C_7  and  N_16
REMARK    6  A    between atoms: N_8  and  C_15
REMARK    7  A    between atoms: N_11  and  C_14
REMARK    8  A    between atoms: N_20  and  C_23
REMARK    9  A    between atoms: C_23  and  C_24
REMARK   10  A    between atoms: N_26  and  C_27
REMARK                            x       y       z     vdW  Elec       q    Type
REMARK                         _______ _______ _______ _____ _____    ______ ____
ROOT
ATOM      1  N   UNL     1       5.171   0.408   0.684  0.00  0.00    -0.296 NA
ATOM      2  C   UNL     1       5.082   1.333  -0.455  0.00  0.00    +0.066 C 
ATOM      3  C   UNL     1       3.840   2.214  -0.297  0.00  0.00    -0.063 C 
ATOM      4  N   UNL     1       2.645   1.362  -0.220  0.00  0.00    +0.387 N 
ATOM      5  C   UNL     1       2.734   0.438   0.919  0.00  0.00    -0.063 C 
ATOM      6  C   UNL     1       3.976  -0.443   0.762  0.00  0.00    +0.066 C 
ATOM      7  H   UNL     1       2.594   0.763  -1.141  0.00  0.00    -0.081 HD
ENDROOT
BRANCH   1   9
ATOM      8  C   UNL     1       6.355  -1.484   1.692  0.00  0.00    +0.032 C 
ATOM      9  C   UNL     1       6.392  -0.404   0.608  0.00  0.00    +0.125 C 
BRANCH   9  10
ATOM     10  C   UNL     1       7.596   0.477   0.819  0.00  0.00    +0.188 C 
ATOM     11  O   UNL     1       7.482   1.527   1.420  0.00  0.00    -0.290 OA
BRANCH  10  12
ATOM     12  C   UNL     1       8.856   0.084   0.319  0.00  0.00    +0.121 A 
ATOM     13  C   UNL     1       9.969   0.937   0.404  0.00  0.00    +0.116 A 
ATOM     14  N   UNL     1      11.167   0.512  -0.094  0.00  0.00    -0.284 N 
ATOM     15  C   UNL     1      11.298  -0.699  -0.658  0.00  0.00    +0.333 A 
ATOM     16  O   UNL     1      12.386  -1.031  -1.087  0.00  0.00    -0.246 OA
ATOM     17  N   UNL     1      10.271  -1.557  -0.768  0.00  0.00    -0.263 N 
ATOM     18  C   UNL     1       9.047  -1.234  -0.301  0.00  0.00    +0.269 A 
ATOM     19  O   UNL     1       8.119  -2.016  -0.396  0.00  0.00    -0.267 OA
ATOM     20  C   UNL     1      10.483  -2.863  -1.396  0.00  0.00    +0.157 C 
ATOM     21  C   UNL     1      12.334   1.394  -0.010  0.00  0.00    +0.155 C 
BRANCH  13  22
ATOM     22  N   UNL     1       9.855   2.168   0.973  0.00  0.00    -0.344 N 
ATOM     23  H   UNL     1      10.732   2.829   1.034  0.00  0.00    +0.144 HD
ATOM     24  H   UNL     1       8.885   2.502   1.371  0.00  0.00    +0.144 HD
ENDBRANCH  13  22
ENDBRANCH  10  12
ENDBRANCH   9  10
ENDBRANCH   1   9
BRANCH   4  25
ATOM     25  C   UNL     1       1.424   2.175  -0.144  0.00  0.00    +0.019 C 
BRANCH  25  26
ATOM     26  C   UNL     1       0.218   1.286  -0.312  0.00  0.00    +0.201 C 
ATOM     27  O   UNL     1       0.362   0.094  -0.479  0.00  0.00    -0.278 OA
ATOM     28  N   UNL     1      -1.020   1.818  -0.283  0.00  0.00    -0.286 N 
ATOM     29  H   UNL     1      -1.156   2.884  -0.047  0.00  0.00    +0.155 HD
BRANCH  28  30
ATOM     30  C   UNL     1      -2.134   1.014  -0.553  0.00  0.00    +0.052 A 
ATOM     31  C   UNL     1      -1.988  -0.148  -1.300  0.00  0.00    +0.025 A 
ATOM     32  C   UNL     1      -3.088  -0.942  -1.561  0.00  0.00    +0.002 A 
ATOM     33  C   UNL     1      -4.335  -0.576  -1.088  0.00  0.00    +0.002 A 
ATOM     34  C   UNL     1      -4.485   0.582  -0.348  0.00  0.00    +0.022 A 
ATOM     35  C   UNL     1      -3.388   1.379  -0.079  0.00  0.00    +0.062 A 
ATOM     36 CL   UNL     1      -3.576   2.834   0.848  0.00  0.00    -0.082 Cl
ENDBRANCH  28  30
ENDBRANCH  25  26
ENDBRANCH   4  25
TORSDOF 7
