REMARK  Name = ZINC08767867
REMARK  8 active torsions:
REMARK  status: ('A' for Active; 'I' for Inactive)
REMARK    1  A    between atoms: C_1  and  O_2
REMARK    2  A    between atoms: O_2  and  C_3
REMARK    3  A    between atoms: C_8  and  O_9
REMARK    4  A    between atoms: O_9  and  C_10
REMARK    5  A    between atoms: C_11  and  C_15
REMARK    6  A    between atoms: C_16  and  O_30
REMARK    7  A    between atoms: C_18  and  O_29
REMARK    8  A    between atoms: N_19  and  C_22
REMARK                            x       y       z     vdW  Elec       q    Type
REMARK                         _______ _______ _______ _____ _____    ______ ____
ROOT
ATOM      1  C   UNL     1       3.584   2.842  -0.016  0.00  0.00    +0.069 A 
ATOM      2  C   UNL     1       3.489   1.461  -0.022  0.00  0.00    +0.224 A 
ATOM      3  N   UNL     1       2.285   0.878  -0.010  0.00  0.00    -0.161 NA
ATOM      4  C   UNL     1       1.182   1.591  -0.001  0.00  0.00    +0.306 A 
ATOM      5  N   UNL     1       1.219   2.951   0.006  0.00  0.00    -0.229 N 
ATOM      6  C   UNL     1       2.404   3.597  -0.001  0.00  0.00    +0.267 A 
ATOM      7  O   UNL     1       2.448   4.817   0.005  0.00  0.00    -0.267 OA
ENDROOT
BRANCH   1  14
ATOM      8  C   UNL     1       5.462   5.530   3.717  0.00  0.00    +0.162 A 
ATOM      9  C   UNL     1       5.846   6.153   2.543  0.00  0.00    +0.053 A 
ATOM     10  C   UNL     1       5.677   5.516   1.323  0.00  0.00    -0.044 A 
ATOM     11  C   UNL     1       5.127   4.252   1.276  0.00  0.00    -0.050 A 
ATOM     12  C   UNL     1       4.739   3.624   2.451  0.00  0.00    +0.052 A 
ATOM     13  C   UNL     1       4.903   4.256   3.670  0.00  0.00    +0.162 A 
ATOM     14  C   UNL     1       4.929   3.519  -0.025  0.00  0.00    +0.001 C 
ATOM     15  C   UNL     1       6.231   5.248  -1.087  0.00  0.00    -0.077 C 
ATOM     16  C   UNL     1       6.107   6.238   0.071  0.00  0.00    +0.016 C 
ATOM     17  N   UNL     1       4.991   4.452  -1.159  0.00  0.00    +0.387 N 
ATOM     18  H   UNL     1       4.181   5.082  -1.126  0.00  0.00    -0.085 HD
ATOM     19  H   UNL     1       4.977   3.922  -2.037  0.00  0.00    -0.085 HD
BRANCH   8  21
ATOM     20  C   UNL     1       6.209   7.465   4.881  0.00  0.00    +0.277 C 
ATOM     21  O   UNL     1       5.629   6.160   4.911  0.00  0.00    -0.491 OA
ENDBRANCH   8  21
BRANCH  13  22
ATOM     22  O   UNL     1       4.520   3.636   4.818  0.00  0.00    -0.491 OA
ATOM     23  C   UNL     1       3.954   2.330   4.692  0.00  0.00    +0.277 C 
ENDBRANCH  13  22
ENDBRANCH   1  14
BRANCH   5  24
ATOM     24  C   UNL     1       0.024   3.684   0.021  0.00  0.00    +0.073 A 
ATOM     25  C   UNL     1      -0.562   4.036   1.229  0.00  0.00    +0.028 A 
ATOM     26  C   UNL     1      -1.738   4.760   1.240  0.00  0.00    +0.002 A 
ATOM     27  C   UNL     1      -2.337   5.128   0.049  0.00  0.00    +0.002 A 
ATOM     28  C   UNL     1      -1.759   4.775  -1.156  0.00  0.00    +0.022 A 
ATOM     29  C   UNL     1      -0.580   4.054  -1.174  0.00  0.00    +0.065 A 
ATOM     30 CL   UNL     1       0.144   3.611  -2.688  0.00  0.00    -0.081 Cl
ENDBRANCH   5  24
BRANCH   4  31
ATOM     31  O   UNL     1      -0.011   0.963   0.007  0.00  0.00    -0.479 OA
ATOM     32  H   UNL     1       0.002  -0.004   0.002  0.00  0.00    +0.295 HD
ENDBRANCH   4  31
BRANCH   2  33
ATOM     33  O   UNL     1       4.610   0.704  -0.037  0.00  0.00    -0.492 OA
ATOM     34  H   UNL     1       4.442  -0.249  -0.040  0.00  0.00    +0.294 HD
ENDBRANCH   2  33
TORSDOF 6
