REMARK  Name = ZINC22508185
REMARK  7 active torsions:
REMARK  status: ('A' for Active; 'I' for Inactive)
REMARK    1  A    between atoms: C_13  and  C_15
REMARK    2  A    between atoms: C_15  and  N_16
REMARK    3  A    between atoms: N_16  and  C_17
REMARK    4  A    between atoms: C_17  and  C_18
REMARK    5  A    between atoms: C_18  and  C_20
REMARK    6  A    between atoms: C_18  and  O_22
REMARK    7  A    between atoms: C_20  and  O_21
REMARK                            x       y       z     vdW  Elec       q    Type
REMARK                         _______ _______ _______ _____ _____    ______ ____
ROOT
ATOM      1  C   UNL     1      -0.019   1.526   0.010  0.00  0.00    +0.000 C 
ATOM      2  C   UNL     1       1.417   2.055  -0.000  0.00  0.00    +0.000 C 
ATOM      3  C   UNL     1       1.404   3.567   0.235  0.00  0.00    +0.000 C 
ATOM      4  C   UNL     1       1.835   3.862   1.674  0.00  0.00    +0.000 C 
ATOM      5  C   UNL     1       0.932   3.096   2.643  0.00  0.00    +0.005 C 
ATOM      6  C   UNL     1       1.795   2.354   3.665  0.00  0.00    +0.044 C 
ATOM      7  C   UNL     1       0.917   1.801   4.757  0.00  0.00    +0.014 A 
ATOM      8  C   UNL     1      -0.260   1.133   4.665  0.00  0.00    +0.054 A 
ATOM      9  N   UNL     1      -0.823   0.751   5.797  0.00  0.00    -0.229 NA
ATOM     10  C   UNL     1      -0.263   1.014   6.958  0.00  0.00    +0.165 A 
ATOM     11  S   UNL     1       1.136   1.845   6.529  0.00  0.00    -0.057 S 
ATOM     12  N   UNL     1      -0.717   0.686   8.230  0.00  0.00    -0.266 N 
ATOM     13  C   UNL     1      -0.000   1.044   9.314  0.00  0.00    +0.202 C 
ATOM     14  O   UNL     1       1.040   1.652   9.180  0.00  0.00    -0.278 OA
ATOM     15  C   UNL     1      -0.898   0.844   3.331  0.00  0.00    +0.056 C 
ATOM     16  C   UNL     1       0.036  -0.037   2.500  0.00  0.00    +0.006 C 
ATOM     17  C   UNL     1      -0.703  -0.530   1.254  0.00  0.00    +0.000 C 
ATOM     18  C   UNL     1       0.002  -0.004   0.002  0.00  0.00    +0.000 C 
ATOM     19  H   UNL     1      -1.549   0.199   8.337  0.00  0.00    +0.157 HD
ENDROOT
BRANCH  13  20
ATOM     20  C   UNL     1      -0.492   0.687  10.693  0.00  0.00    +0.015 C 
BRANCH  20  21
ATOM     21  N   UNL     1       0.459   1.185  11.696  0.00  0.00    +0.386 N 
ATOM     22  H   UNL     1       1.362   0.763  11.542  0.00  0.00    -0.085 HD
ATOM     23  H   UNL     1       0.538   2.188  11.616  0.00  0.00    -0.085 HD
BRANCH  21  24
ATOM     24  C   UNL     1      -0.021   0.838  13.040  0.00  0.00    -0.048 C 
BRANCH  24  25
ATOM     25  C   UNL     1       0.970   1.356  14.085  0.00  0.00    +0.123 C 
BRANCH  25  26
ATOM     26  O   UNL     1       0.995   2.784  14.050  0.00  0.00    -0.391 OA
ATOM     27  H   UNL     1       0.141   3.197  14.237  0.00  0.00    +0.210 HD
ENDBRANCH  25  26
BRANCH  25  28
ATOM     28  C   UNL     1       0.536   0.888  15.476  0.00  0.00    +0.185 C 
BRANCH  28  29
ATOM     29  O   UNL     1       1.522   1.272  16.436  0.00  0.00    -0.393 OA
ATOM     30  H   UNL     1       1.312   1.007  17.342  0.00  0.00    +0.210 HD
ENDBRANCH  28  29
ENDBRANCH  25  28
ENDBRANCH  24  25
ENDBRANCH  21  24
ENDBRANCH  20  21
ENDBRANCH  13  20
TORSDOF 7
