REMARK  Name = ZINC63581975
REMARK  5 active torsions:
REMARK  status: ('A' for Active; 'I' for Inactive)
REMARK    1  A    between atoms: C_1  and  C_2
REMARK    2  A    between atoms: C_6  and  N_8
REMARK    3  A    between atoms: C_9  and  O_33
REMARK    4  A    between atoms: C_12  and  O_32
REMARK    5  A    between atoms: C_13  and  C_17
REMARK                            x       y       z     vdW  Elec       q    Type
REMARK                         _______ _______ _______ _____ _____    ______ ____
ROOT
ATOM      1  N   UNL     1       0.044  -2.886   2.247  0.00  0.00    -0.225 N 
ATOM      2  C   UNL     1       0.105  -2.055   3.441  0.00  0.00    +0.338 C 
ATOM      3  N   UNL     1       0.566  -2.798   4.602  0.00  0.00    -0.204 NA
ATOM      4  C   UNL     1       0.530  -4.070   4.700  0.00  0.00    +0.200 C 
ATOM      5  C   UNL     1       0.003  -4.958   3.611  0.00  0.00    +0.179 C 
ATOM      6  C   UNL     1      -0.018  -4.223   2.300  0.00  0.00    +0.237 C 
ATOM      7  O   UNL     1      -0.089  -4.854   1.267  0.00  0.00    -0.274 OA
ENDROOT
BRANCH   5   8
ATOM      8  C   UNL     1      -1.421  -5.396   3.959  0.00  0.00    +0.101 C 
ATOM      9  C   UNL     1      -1.924  -6.393   2.912  0.00  0.00    +0.124 C 
ATOM     10  C   UNL     1      -3.393  -6.644   3.234  0.00  0.00    -0.036 C 
ATOM     11  C   UNL     1      -3.533  -7.957   3.350  0.00  0.00    -0.001 A 
ATOM     12  C   UNL     1      -4.718  -8.803   3.566  0.00  0.00    +0.010 A 
ATOM     13  C   UNL     1      -4.492 -10.140   3.651  0.00  0.00    +0.001 A 
ATOM     14  C   UNL     1      -3.222 -10.715   3.545  0.00  0.00    +0.002 A 
ATOM     15  C   UNL     1      -2.078 -10.014   3.340  0.00  0.00    +0.026 A 
ATOM     16  C   UNL     1      -2.187  -8.598   3.227  0.00  0.00    +0.043 A 
ATOM     17  N   UNL     1      -1.256  -7.690   3.004  0.00  0.00    -0.376 N 
ATOM     18  C   UNL     1      -4.361  -5.506   3.451  0.00  0.00    +0.048 C 
ATOM     19  C   UNL     1      -3.669  -4.532   4.422  0.00  0.00    +0.085 C 
ATOM     20  N   UNL     1      -2.315  -4.227   3.953  0.00  0.00    -0.310 NA
ATOM     21  H   UNL     1      -1.914  -3.463   4.476  0.00  0.00    +0.122 HD
ATOM     22  H   UNL     1      -0.302  -7.845   2.919  0.00  0.00    +0.160 HD
ENDBRANCH   5   8
BRANCH   1  28
ATOM     23  C   UNL     1      -2.434  -0.685  -1.384  0.00  0.00    +0.044 C 
ATOM     24  C   UNL     1      -1.144  -1.187  -0.790  0.00  0.00    -0.049 A 
ATOM     25  C   UNL     1       0.043  -1.032  -1.484  0.00  0.00    +0.003 A 
ATOM     26  C   UNL     1       1.229  -1.490  -0.942  0.00  0.00    +0.002 A 
ATOM     27  C   UNL     1       1.233  -2.106   0.295  0.00  0.00    +0.023 A 
ATOM     28  C   UNL     1       0.043  -2.263   0.994  0.00  0.00    +0.041 A 
ATOM     29  C   UNL     1      -1.146  -1.796   0.449  0.00  0.00    +0.027 A 
ENDBRANCH   1  28
BRANCH   4  30
ATOM     30  O   UNL     1       0.986  -4.643   5.834  0.00  0.00    -0.495 OA
ATOM     31  H   UNL     1       1.310  -4.011   6.491  0.00  0.00    +0.293 HD
ENDBRANCH   4  30
BRANCH   2  32
ATOM     32  O   UNL     1       1.001  -0.967   3.203  0.00  0.00    -0.356 OA
ATOM     33  H   UNL     1       1.097  -0.365   3.954  0.00  0.00    +0.214 HD
ENDBRANCH   2  32
TORSDOF 4
