REMARK  Name = ZINC35711451
REMARK  15 active torsions:
REMARK  status: ('A' for Active; 'I' for Inactive)
REMARK    1  A    between atoms: C_1  and  C_2
REMARK    2  A    between atoms: C_2  and  C_3
REMARK    3  A    between atoms: C_3  and  N_4
REMARK    4  A    between atoms: C_5  and  C_37
REMARK    5  A    between atoms: C_6  and  C_32
REMARK    6  A    between atoms: C_7  and  C_12
REMARK    7  A    between atoms: C_15  and  N_18
REMARK    8  A    between atoms: N_21  and  C_22
REMARK    9  A    between atoms: C_24  and  O_30
REMARK   10  A    between atoms: C_26  and  O_28
REMARK   11  A    between atoms: O_28  and  C_29
REMARK   12  A    between atoms: O_30  and  C_31
REMARK   13  A    between atoms: C_32  and  O_34
REMARK   14  A    between atoms: O_34  and  C_35
REMARK   15  A    between atoms: C_35  and  C_36
REMARK                            x       y       z     vdW  Elec       q    Type
REMARK                         _______ _______ _______ _____ _____    ______ ____
ROOT
ATOM      1  C   UNL     1       0.376  -5.589  -0.080  0.00  0.00    -0.022 A 
ATOM      2  C   UNL     1      -0.357  -5.028   0.950  0.00  0.00    +0.007 A 
ATOM      3  C   UNL     1      -0.733  -5.799   2.032  0.00  0.00    +0.024 A 
ATOM      4  C   UNL     1      -0.375  -7.140   2.085  0.00  0.00    +0.035 A 
ATOM      5  C   UNL     1       0.361  -7.700   1.049  0.00  0.00    +0.024 A 
ATOM      6  C   UNL     1       0.730  -6.925  -0.033  0.00  0.00    +0.007 A 
ENDROOT
BRANCH   1  10
ATOM      7  N   UNL     1       0.783  -1.980  -1.361  0.00  0.00    -0.259 N 
ATOM      8  C   UNL     1       1.925  -2.595  -0.934  0.00  0.00    +0.024 C 
ATOM      9  C   UNL     1       2.005  -3.941  -0.857  0.00  0.00    +0.078 C 
ATOM     10  C   UNL     1       0.785  -4.744  -1.259  0.00  0.00    +0.143 C 
ATOM     11  N   UNL     1      -0.396  -3.985  -1.704  0.00  0.00    -0.288 N 
ATOM     12  C   UNL     1      -0.325  -2.639  -1.723  0.00  0.00    +0.307 C 
ATOM     13  O   UNL     1      -1.295  -2.004  -2.085  0.00  0.00    -0.252 OA
ATOM     14  C   UNL     1       3.116  -1.758  -0.544  0.00  0.00    +0.061 C 
ATOM     15  H   UNL     1      -1.208  -4.443  -1.974  0.00  0.00    +0.151 HD
BRANCH   9  16
ATOM     16  C   UNL     1       3.188  -4.579  -0.416  0.00  0.00    +0.339 C 
ATOM     17  O   UNL     1       4.156  -3.914  -0.099  0.00  0.00    -0.245 OA
BRANCH  16  18
ATOM     18  O   UNL     1       3.243  -5.925  -0.347  0.00  0.00    -0.462 OA
BRANCH  18  19
ATOM     19  C   UNL     1       4.469  -6.503   0.106  0.00  0.00    +0.229 C 
ATOM     20  C   UNL     1       4.341  -8.027   0.117  0.00  0.00    +0.048 C 
ENDBRANCH  18  19
ENDBRANCH  16  18
ENDBRANCH   9  16
BRANCH   7  21
ATOM     21  C   UNL     1       0.767  -0.516  -1.421  0.00  0.00    +0.114 C 
BRANCH  21  23
ATOM     22  C   UNL     1       1.355   1.476  -2.809  0.00  0.00    +0.005 C 
ATOM     23  C   UNL     1       1.372  -0.053  -2.747  0.00  0.00    +0.016 C 
ENDBRANCH  21  23
ENDBRANCH   7  21
ENDBRANCH   1  10
BRANCH   4  24
ATOM     24  N   UNL     1      -0.754  -7.925   3.180  0.00  0.00    -0.269 N 
ATOM     25  C   UNL     1      -1.941  -7.712   3.782  0.00  0.00    +0.308 C 
ATOM     26  O   UNL     1      -2.646  -6.788   3.427  0.00  0.00    -0.252 OA
ATOM     27  N   UNL     1      -2.345  -8.524   4.779  0.00  0.00    -0.269 N 
ATOM     28  H   UNL     1      -0.162  -8.621   3.506  0.00  0.00    +0.156 HD
ATOM     29  H   UNL     1      -1.750  -9.211   5.117  0.00  0.00    +0.156 HD
BRANCH  27  30
ATOM     30  C   UNL     1      -3.625  -8.377   5.325  0.00  0.00    +0.042 A 
ATOM     31  C   UNL     1      -4.687  -8.002   4.514  0.00  0.00    +0.069 A 
ATOM     32  C   UNL     1      -5.955  -7.856   5.056  0.00  0.00    +0.125 A 
ATOM     33  C   UNL     1      -6.162  -8.085   6.409  0.00  0.00    +0.091 A 
ATOM     34  C   UNL     1      -5.101  -8.460   7.219  0.00  0.00    +0.125 A 
ATOM     35  C   UNL     1      -3.834  -8.612   6.677  0.00  0.00    +0.069 A 
BRANCH  34  36
ATOM     36  O   UNL     1      -5.304  -8.684   8.544  0.00  0.00    -0.495 OA
ATOM     37  C   UNL     1      -6.636  -8.514   9.034  0.00  0.00    +0.277 C 
ENDBRANCH  34  36
BRANCH  32  38
ATOM     38  O   UNL     1      -6.995  -7.489   4.263  0.00  0.00    -0.495 OA
ATOM     39  C   UNL     1      -8.274  -7.358   4.888  0.00  0.00    +0.277 C 
ENDBRANCH  32  38
ENDBRANCH  27  30
ENDBRANCH   4  24
TORSDOF 10
