REMARK  Name = ZINC55374974
REMARK  7 active torsions:
REMARK  status: ('A' for Active; 'I' for Inactive)
REMARK    1  A    between atoms: C_1  and  C_2
REMARK    2  A    between atoms: C_2  and  C_4
REMARK    3  A    between atoms: C_2  and  N_13
REMARK    4  A    between atoms: N_13  and  C_14
REMARK    5  A    between atoms: C_14  and  C_16
REMARK    6  A    between atoms: C_14  and  C_17
REMARK    7  A    between atoms: N_19  and  C_20
REMARK                            x       y       z     vdW  Elec       q    Type
REMARK                         _______ _______ _______ _____ _____    ______ ____
ROOT
ATOM      1  N   UNL     1      -1.372  -0.527   0.005  0.00  0.00    +0.391 N 
ATOM      2  H   UNL     1      -1.365  -1.533   0.085  0.00  0.00    -0.084 HD
ATOM      3  H   UNL     1      -1.863  -0.131   0.791  0.00  0.00    -0.084 HD
ENDROOT
BRANCH   1   5
ATOM      4  C   UNL     1       0.000   1.501  -0.006  0.00  0.00    -0.009 C 
ATOM      5  C   UNL     1       0.010  -0.029  -0.011  0.00  0.00    -0.043 C 
BRANCH   5   6
ATOM      6  C   UNL     1       0.739  -0.530   1.209  0.00  0.00    -0.058 A 
ATOM      7  C   UNL     1       0.090  -0.577   2.429  0.00  0.00    +0.006 A 
ATOM      8  C   UNL     1       0.754  -1.036   3.552  0.00  0.00    +0.050 A 
ATOM      9  C   UNL     1       2.073  -1.450   3.456  0.00  0.00    +0.166 A 
ATOM     10  C   UNL     1       2.726  -1.403   2.227  0.00  0.00    +0.166 A 
ATOM     11  C   UNL     1       2.053  -0.947   1.105  0.00  0.00    +0.051 A 
ATOM     12  O   UNL     1       4.002  -1.860   2.393  0.00  0.00    -0.453 OA
ATOM     13  C   UNL     1       4.249  -1.801   3.811  0.00  0.00    +0.466 C 
ATOM     14  O   UNL     1       2.939  -1.936   4.392  0.00  0.00    -0.453 OA
ENDBRANCH   5   6
ENDBRANCH   1   5
BRANCH   1  15
ATOM     15  C   UNL     1      -2.046  -0.140  -1.241  0.00  0.00    +0.014 C 
ATOM     16  C   UNL     1      -1.376  -0.842  -2.424  0.00  0.00    -0.004 C 
BRANCH  15  17
ATOM     17  C   UNL     1      -3.497  -0.543  -1.174  0.00  0.00    +0.203 C 
ATOM     18  O   UNL     1      -3.926  -1.099  -0.185  0.00  0.00    -0.277 OA
ATOM     19  N   UNL     1      -4.316  -0.286  -2.212  0.00  0.00    -0.286 N 
ATOM     20  H   UNL     1      -3.995   0.228  -2.968  0.00  0.00    +0.155 HD
BRANCH  19  21
ATOM     21  C   UNL     1      -5.633  -0.763  -2.199  0.00  0.00    +0.053 A 
ATOM     22  C   UNL     1      -5.961  -1.879  -1.441  0.00  0.00    +0.044 A 
ATOM     23  C   UNL     1      -7.262  -2.346  -1.430  0.00  0.00    +0.043 A 
ATOM     24  C   UNL     1      -8.236  -1.703  -2.173  0.00  0.00    +0.021 A 
ATOM     25  C   UNL     1      -7.912  -0.592  -2.929  0.00  0.00    +0.023 A 
ATOM     26  C   UNL     1      -6.615  -0.116  -2.939  0.00  0.00    +0.062 A 
ATOM     27 CL   UNL     1      -6.210   1.284  -3.883  0.00  0.00    -0.082 Cl
ATOM     28 CL   UNL     1      -7.673  -3.742  -0.483  0.00  0.00    -0.083 Cl
ENDBRANCH  19  21
ENDBRANCH  15  17
ENDBRANCH   1  15
TORSDOF 5
