REMARK  Name = ZINC60016005
REMARK  12 active torsions:
REMARK  status: ('A' for Active; 'I' for Inactive)
REMARK    1  A    between atoms: C_1  and  C_2
REMARK    2  A    between atoms: C_2  and  C_3
REMARK    3  A    between atoms: C_3  and  C_4
REMARK    4  A    between atoms: C_4  and  C_5
REMARK    5  A    between atoms: C_5  and  C_7
REMARK    6  A    between atoms: C_5  and  N_24
REMARK    7  A    between atoms: N_9  and  C_10
REMARK    8  A    between atoms: C_10  and  C_12
REMARK    9  A    between atoms: C_10  and  C_13
REMARK   10  A    between atoms: C_13  and  N_14
REMARK   11  A    between atoms: C_16  and  C_23
REMARK   12  A    between atoms: C_19  and  C_22
REMARK                            x       y       z     vdW  Elec       q    Type
REMARK                         _______ _______ _______ _____ _____    ______ ____
ROOT
ATOM      1  C   UNL     1       1.455  -2.521  -2.524  0.00  0.00    +0.158 C 
ENDROOT
BRANCH   1   2
ATOM      2  N   UNL     1       2.862  -2.114  -2.477  0.00  0.00    -0.316 N 
ATOM      3  C   UNL     1       3.232  -0.862  -2.917  0.00  0.00    +0.150 C 
ATOM      4  N   UNL     1       2.342  -0.037  -3.368  0.00  0.00    -0.113 NA
ATOM      5  S   UNL     1       3.178   1.349  -3.794  0.00  0.00    +0.101 S 
ATOM      6  O   UNL     1       3.119   1.474  -5.208  0.00  0.00    -0.146 OA
ATOM      7  O   UNL     1       2.788   2.382  -2.899  0.00  0.00    -0.146 OA
ATOM      8  C   UNL     1       4.825   0.855  -3.364  0.00  0.00    +0.123 A 
ATOM      9  C   UNL     1       4.642  -0.446  -2.873  0.00  0.00    +0.043 A 
ATOM     10  C   UNL     1       5.782  -1.135  -2.432  0.00  0.00    +0.013 A 
ATOM     11  C   UNL     1       7.021  -0.535  -2.486  0.00  0.00    +0.001 A 
ATOM     12  C   UNL     1       7.169   0.751  -2.972  0.00  0.00    +0.002 A 
ATOM     13  C   UNL     1       6.053   1.445  -3.420  0.00  0.00    +0.030 A 
ATOM     14  H   UNL     1       3.532  -2.727  -2.135  0.00  0.00    +0.148 HD
ENDBRANCH   1   2
BRANCH   1  15
ATOM     15  C   UNL     1       1.369  -4.024  -2.595  0.00  0.00    +0.233 C 
ATOM     16  O   UNL     1       2.382  -4.690  -2.604  0.00  0.00    -0.274 OA
ATOM     17  N   UNL     1       0.165  -4.628  -2.647  0.00  0.00    -0.313 N 
ATOM     18  H   UNL     1      -0.646  -4.095  -2.639  0.00  0.00    +0.149 HD
BRANCH  17  19
ATOM     19  C   UNL     1       0.081  -6.088  -2.716  0.00  0.00    +0.053 C 
ATOM     20  C   UNL     1       0.206  -6.539  -4.173  0.00  0.00    +0.026 C 
BRANCH  19  21
ATOM     21  C   UNL     1      -1.266  -6.549  -2.154  0.00  0.00    -0.057 C 
BRANCH  21  22
ATOM     22  N   UNL     1      -1.438  -6.015  -0.796  0.00  0.00    +0.381 N 
ATOM     23  C   UNL     1      -0.420  -6.595   0.088  0.00  0.00    -0.076 C 
ATOM     24  C   UNL     1      -0.544  -5.982   1.485  0.00  0.00    -0.031 C 
ATOM     25  C   UNL     1      -1.938  -6.279   2.045  0.00  0.00    +0.003 C 
ATOM     26  C   UNL     1      -2.993  -5.735   1.077  0.00  0.00    -0.031 C 
ATOM     27  C   UNL     1      -2.778  -6.357  -0.304  0.00  0.00    -0.076 C 
ATOM     28  C   UNL     1      -4.389  -6.093   1.589  0.00  0.00    +0.005 C 
ATOM     29  C   UNL     1       0.517  -6.589   2.405  0.00  0.00    +0.005 C 
ATOM     30  H   UNL     1      -1.333  -5.012  -0.814  0.00  0.00    -0.082 HD
ENDBRANCH  21  22
ENDBRANCH  19  21
ENDBRANCH  17  19
ENDBRANCH   1  15
BRANCH   1  31
ATOM     31  C   UNL     1       0.739  -2.027  -1.265  0.00  0.00    +0.032 C 
BRANCH  31  32
ATOM     32  C   UNL     1       0.718  -0.497  -1.257  0.00  0.00    +0.002 C 
BRANCH  32  34
ATOM     33  C   UNL     1      -0.019   1.526   0.010  0.00  0.00    +0.004 C 
ATOM     34  C   UNL     1       0.002  -0.004   0.002  0.00  0.00    -0.003 C 
ENDBRANCH  32  34
ENDBRANCH  31  32
ENDBRANCH   1  31
TORSDOF 8
