REMARK  Name = ZINC45606147
REMARK  7 active torsions:
REMARK  status: ('A' for Active; 'I' for Inactive)
REMARK    1  A    between atoms: C_1  and  C_2
REMARK    2  A    between atoms: C_2  and  C_4
REMARK    3  A    between atoms: C_2  and  N_14
REMARK    4  A    between atoms: N_10  and  C_11
REMARK    5  A    between atoms: N_10  and  C_12
REMARK    6  A    between atoms: N_17  and  C_20
REMARK    7  A    between atoms: C_20  and  C_21
REMARK                            x       y       z     vdW  Elec       q    Type
REMARK                         _______ _______ _______ _____ _____    ______ ____
ROOT
ATOM      1  N   UNL     1       0.894  -0.381   1.107  0.00  0.00    -0.296 NA
ATOM      2  C   UNL     1       0.301  -0.031   2.405  0.00  0.00    +0.066 C 
ATOM      3  C   UNL     1       1.232  -0.492   3.529  0.00  0.00    -0.063 C 
ATOM      4  N   UNL     1       2.541   0.157   3.377  0.00  0.00    +0.387 N 
ATOM      5  C   UNL     1       3.132  -0.222   2.087  0.00  0.00    -0.063 C 
ATOM      6  C   UNL     1       2.216   0.242   0.952  0.00  0.00    +0.066 C 
ATOM      7  H   UNL     1       2.426   1.159   3.413  0.00  0.00    -0.081 HD
ENDROOT
BRANCH   1   9
ATOM      8  C   UNL     1      -1.329  -0.745   0.146  0.00  0.00    +0.032 C 
ATOM      9  C   UNL     1       0.002  -0.004   0.002  0.00  0.00    +0.122 C 
BRANCH   9  10
ATOM     10  C   UNL     1       0.643  -0.374  -1.310  0.00  0.00    +0.153 A 
ATOM     11  N   UNL     1       1.181  -1.572  -1.467  0.00  0.00    -0.198 NA
ATOM     12  C   UNL     1       1.748  -1.903  -2.624  0.00  0.00    +0.217 A 
ATOM     13  N   UNL     1       1.773  -1.028  -3.624  0.00  0.00    -0.181 NA
ATOM     14  C   UNL     1       1.232   0.175  -3.463  0.00  0.00    +0.222 A 
ATOM     15  N   UNL     1       0.662   0.497  -2.304  0.00  0.00    -0.198 NA
ATOM     16  N   UNL     1       1.257   1.087  -4.498  0.00  0.00    -0.306 N 
ATOM     17  C   UNL     1       1.879   0.730  -5.775  0.00  0.00    +0.132 C 
ATOM     18  C   UNL     1       0.660   2.413  -4.319  0.00  0.00    +0.132 C 
ATOM     19  N   UNL     1       2.309  -3.153  -2.786  0.00  0.00    -0.327 N 
ATOM     20  H   UNL     1       2.290  -3.791  -2.056  0.00  0.00    +0.145 HD
ATOM     21  H   UNL     1       2.722  -3.394  -3.630  0.00  0.00    +0.145 HD
ENDBRANCH   9  10
ENDBRANCH   1   9
BRANCH   4  22
ATOM     22  C   UNL     1       3.429  -0.272   4.466  0.00  0.00    +0.019 C 
BRANCH  22  23
ATOM     23  C   UNL     1       4.729   0.485   4.383  0.00  0.00    +0.199 C 
ATOM     24  O   UNL     1       4.899   1.302   3.503  0.00  0.00    -0.278 OA
ATOM     25  N   UNL     1       5.703   0.255   5.286  0.00  0.00    -0.303 N 
ATOM     26  C   UNL     1       5.632  -0.708   6.395  0.00  0.00    +0.108 C 
ATOM     27  C   UNL     1       6.960  -0.607   7.174  0.00  0.00    +0.020 C 
ATOM     28  C   UNL     1       7.477   0.806   6.799  0.00  0.00    +0.020 C 
ATOM     29  C   UNL     1       7.017   0.922   5.322  0.00  0.00    +0.108 C 
ENDBRANCH  22  23
ENDBRANCH   4  22
TORSDOF 4
