REMARK  Name = ZINC65381423
REMARK  9 active torsions:
REMARK  status: ('A' for Active; 'I' for Inactive)
REMARK    1  A    between atoms: C_1  and  C_2
REMARK    2  A    between atoms: C_2  and  O_3
REMARK    3  A    between atoms: O_3  and  C_4
REMARK    4  A    between atoms: C_6  and  C_11
REMARK    5  A    between atoms: C_9  and  O_10
REMARK    6  A    between atoms: N_16  and  C_30
REMARK    7  A    between atoms: C_20  and  C_22
REMARK    8  A    between atoms: C_20  and  C_24
REMARK    9  A    between atoms: C_22  and  O_23
REMARK                            x       y       z     vdW  Elec       q    Type
REMARK                         _______ _______ _______ _____ _____    ______ ____
ROOT
ATOM      1  C   UNL     1       0.484  -4.996   0.701  0.00  0.00    +0.086 C 
ATOM      2  C   UNL     1       0.743  -5.126  -0.804  0.00  0.00    -0.003 C 
ATOM      3  C   UNL     1      -0.474  -4.619  -1.594  0.00  0.00    -0.074 C 
ATOM      4  N   UNL     1      -0.984  -5.762  -2.382  0.00  0.00    +0.378 N 
ATOM      5  C   UNL     1      -0.599  -6.978  -1.625  0.00  0.00    -0.073 C 
ATOM      6  C   UNL     1       0.836  -6.648  -1.087  0.00  0.00    +0.002 C 
ATOM      7  C   UNL     1       0.998  -7.286   0.307  0.00  0.00    +0.070 C 
ATOM      8  N   UNL     1       0.352  -6.355   1.254  0.00  0.00    -0.298 NA
ATOM      9  C   UNL     1      -2.446  -5.682  -2.504  0.00  0.00    -0.096 C 
ATOM     10  H   UNL     1       0.775  -6.417   2.167  0.00  0.00    +0.123 HD
ATOM     11  H   UNL     1      -0.557  -5.772  -3.297  0.00  0.00    -0.082 HD
ENDROOT
BRANCH   1  14
ATOM     12  C   UNL     1      -1.914  -2.139   1.298  0.00  0.00    +0.162 A 
ATOM     13  C   UNL     1      -0.745  -2.850   1.081  0.00  0.00    +0.054 A 
ATOM     14  C   UNL     1      -0.789  -4.224   0.936  0.00  0.00    -0.027 A 
ATOM     15  C   UNL     1      -1.998  -4.892   1.006  0.00  0.00    +0.009 A 
ATOM     16  C   UNL     1      -3.168  -4.188   1.221  0.00  0.00    +0.049 A 
ATOM     17  C   UNL     1      -3.130  -2.811   1.373  0.00  0.00    +0.158 A 
BRANCH  17  18
ATOM     18  O   UNL     1      -4.280  -2.118   1.591  0.00  0.00    -0.503 OA
ATOM     19  H   UNL     1      -4.720  -1.822   0.782  0.00  0.00    +0.292 HD
ENDBRANCH  17  18
BRANCH  12  20
ATOM     20  O   UNL     1      -1.873  -0.787   1.441  0.00  0.00    -0.489 OA
BRANCH  20  22
ATOM     21  C   UNL     1      -0.743   1.347   1.536  0.00  0.00    +0.048 C 
ATOM     22  C   UNL     1      -0.590  -0.164   1.351  0.00  0.00    +0.226 C 
ENDBRANCH  20  22
ENDBRANCH  12  20
ENDBRANCH   1  14
BRANCH   7  23
ATOM     23  C   UNL     1       2.459  -7.437   0.643  0.00  0.00    -0.025 A 
ATOM     24  C   UNL     1       3.043  -6.603   1.577  0.00  0.00    +0.005 A 
ATOM     25  C   UNL     1       4.383  -6.742   1.886  0.00  0.00    +0.000 A 
ATOM     26  C   UNL     1       5.139  -7.715   1.260  0.00  0.00    +0.000 A 
ATOM     27  C   UNL     1       4.555  -8.550   0.327  0.00  0.00    +0.000 A 
ATOM     28  C   UNL     1       3.213  -8.414   0.021  0.00  0.00    +0.005 A 
ENDBRANCH   7  23
BRANCH   7  29
ATOM     29  C   UNL     1       0.302  -8.648   0.348  0.00  0.00    +0.183 C 
BRANCH  29  30
ATOM     30  O   UNL     1       0.360  -9.172   1.675  0.00  0.00    -0.393 OA
ATOM     31  H   UNL     1      -0.063 -10.036   1.776  0.00  0.00    +0.209 HD
ENDBRANCH  29  30
ENDBRANCH   7  29
TORSDOF 7
