REMARK  Name = ZINC39675444
REMARK  9 active torsions:
REMARK  status: ('A' for Active; 'I' for Inactive)
REMARK    1  A    between atoms: C_1  and  C_2
REMARK    2  A    between atoms: C_2  and  C_4
REMARK    3  A    between atoms: C_2  and  N_14
REMARK    4  A    between atoms: C_4  and  C_5
REMARK    5  A    between atoms: C_5  and  C_6
REMARK    6  A    between atoms: C_9  and  O_12
REMARK    7  A    between atoms: O_12  and  C_13
REMARK    8  A    between atoms: C_15  and  C_17
REMARK    9  A    between atoms: C_28  and  C_30
REMARK                            x       y       z     vdW  Elec       q    Type
REMARK                         _______ _______ _______ _____ _____    ______ ____
ROOT
ATOM      1  C   UNL     1      -2.712  -0.597  -1.261  0.00  0.00    +0.100 C 
ATOM      2  C   UNL     1      -3.930  -0.116  -0.441  0.00  0.00    +0.121 C 
ATOM      3  N   UNL     1      -4.631   0.835  -1.335  0.00  0.00    -0.300 N 
ATOM      4  C   UNL     1      -4.534   0.217  -2.680  0.00  0.00    +0.115 C 
ATOM      5  C   UNL     1      -3.113  -0.380  -2.730  0.00  0.00    -0.004 C 
ATOM      6  C   UNL     1      -2.154   0.599  -3.401  0.00  0.00    -0.010 C 
ATOM      7  C   UNL     1      -2.540   0.755  -4.874  0.00  0.00    -0.082 C 
ATOM      8  N   UNL     1      -2.481  -0.553  -5.539  0.00  0.00    +0.379 N 
ATOM      9  C   UNL     1      -3.472  -1.460  -4.948  0.00  0.00    -0.082 C 
ATOM     10  C   UNL     1      -3.126  -1.710  -3.477  0.00  0.00    -0.010 C 
ATOM     11  C   UNL     1      -5.224   1.998  -1.002  0.00  0.00    +0.219 C 
ATOM     12  O   UNL     1      -5.152   2.411   0.136  0.00  0.00    -0.275 OA
ATOM     13  H   UNL     1      -2.676  -0.439  -6.522  0.00  0.00    -0.086 HD
ATOM     14  H   UNL     1      -1.558  -0.945  -5.425  0.00  0.00    -0.086 HD
ENDROOT
BRANCH  11  15
ATOM     15  C   UNL     1      -5.975   2.787  -2.043  0.00  0.00    +0.079 C 
ATOM     16  C   UNL     1      -6.011   4.267  -1.643  0.00  0.00    +0.017 C 
ATOM     17  C   UNL     1      -6.620   5.066  -2.797  0.00  0.00    +0.027 C 
ATOM     18  C   UNL     1      -7.899   4.427  -3.251  0.00  0.00    -0.031 C 
ATOM     19  C   UNL     1      -8.243   3.212  -2.967  0.00  0.00    -0.030 C 
ATOM     20  C   UNL     1      -7.413   2.272  -2.140  0.00  0.00    +0.039 C 
ENDBRANCH  11  15
BRANCH   1  22
ATOM     21  N   UNL     1      -0.265  -0.322  -1.017  0.00  0.00    -0.312 N 
ATOM     22  C   UNL     1      -1.494   0.224  -0.923  0.00  0.00    +0.218 C 
ATOM     23  O   UNL     1      -1.620   1.377  -0.567  0.00  0.00    -0.275 OA
ATOM     24  H   UNL     1      -0.165  -1.243  -1.302  0.00  0.00    +0.149 HD
BRANCH  21  26
ATOM     25  C   UNL     1       1.169   0.421   0.820  0.00  0.00    +0.028 C 
ATOM     26  C   UNL     1       0.918   0.477  -0.689  0.00  0.00    +0.070 C 
BRANCH  26  27
ATOM     27  C   UNL     1       2.134  -0.085  -1.429  0.00  0.00    +0.026 C 
BRANCH  27  28
ATOM     28  C   UNL     1       1.936   0.086  -2.937  0.00  0.00    +0.037 C 
BRANCH  28  29
ATOM     29  C   UNL     1       3.134  -0.467  -3.666  0.00  0.00    -0.047 A 
ATOM     30  C   UNL     1       4.212   0.352  -3.942  0.00  0.00    +0.007 A 
ATOM     31  C   UNL     1       5.311  -0.152  -4.611  0.00  0.00    +0.046 A 
ATOM     32  C   UNL     1       5.331  -1.483  -5.004  0.00  0.00    +0.120 A 
ATOM     33  C   UNL     1       4.248  -2.303  -4.725  0.00  0.00    +0.046 A 
ATOM     34  C   UNL     1       3.154  -1.795  -4.052  0.00  0.00    +0.007 A 
BRANCH  32  35
ATOM     35  O   UNL     1       6.411  -1.981  -5.663  0.00  0.00    -0.495 OA
ATOM     36  C   UNL     1       6.363  -3.359  -6.037  0.00  0.00    +0.277 C 
ENDBRANCH  32  35
ENDBRANCH  28  29
ENDBRANCH  27  28
ENDBRANCH  26  27
ENDBRANCH  21  26
ENDBRANCH   1  22
TORSDOF 7
