REMARK  Name = ZINC59170677
REMARK  6 active torsions:
REMARK  status: ('A' for Active; 'I' for Inactive)
REMARK    1  A    between atoms: C_6  and  N_7
REMARK    2  A    between atoms: C_8  and  C_10
REMARK    3  A    between atoms: C_14  and  N_31
REMARK    4  A    between atoms: N_20  and  C_21
REMARK    5  A    between atoms: C_24  and  S_27
REMARK    6  A    between atoms: S_27  and  N_30
REMARK                            x       y       z     vdW  Elec       q    Type
REMARK                         _______ _______ _______ _____ _____    ______ ____
ROOT
ATOM      1  C   UNL     1      -2.435  -2.788  -0.250  0.00  0.00    +0.098 A 
ATOM      2  C   UNL     1      -2.437  -4.177  -0.246  0.00  0.00    +0.030 A 
ATOM      3  C   UNL     1      -3.737  -4.848  -0.296  0.00  0.00    +0.020 A 
ATOM      4  C   UNL     1      -3.848  -6.218  -0.030  0.00  0.00    +0.044 A 
ATOM      5  C   UNL     1      -5.073  -6.821  -0.080  0.00  0.00    +0.127 A 
ATOM      6  C   UNL     1      -6.208  -6.087  -0.392  0.00  0.00    +0.036 A 
ATOM      7  C   UNL     1      -6.121  -4.736  -0.659  0.00  0.00    +0.049 A 
ATOM      8  C   UNL     1      -4.888  -4.102  -0.616  0.00  0.00    +0.138 A 
ATOM      9  O   UNL     1      -4.781  -2.778  -0.882  0.00  0.00    -0.439 OA
ATOM     10  C   UNL     1      -3.748  -2.114  -0.297  0.00  0.00    +0.212 A 
ATOM     11  N   UNL     1      -3.910  -0.909   0.205  0.00  0.00    -0.325 N 
ATOM     12  H   UNL     1      -3.193  -0.494   0.711  0.00  0.00    +0.169 HD
ENDROOT
BRANCH  11  13
ATOM     13  C   UNL     1      -5.088  -0.242   0.016  0.00  0.00    +0.042 A 
ATOM     14  C   UNL     1      -5.691  -0.226  -1.244  0.00  0.00    +0.027 A 
ATOM     15  C   UNL     1      -6.880   0.449  -1.428  0.00  0.00    +0.030 A 
ATOM     16  C   UNL     1      -7.476   1.109  -0.367  0.00  0.00    +0.105 A 
ATOM     17  C   UNL     1      -6.884   1.097   0.884  0.00  0.00    +0.030 A 
ATOM     18  C   UNL     1      -5.699   0.421   1.084  0.00  0.00    +0.027 A 
BRANCH  16  19
ATOM     19  S   UNL     1      -8.994   1.968  -0.611  0.00  0.00    +0.056 S 
ATOM     20  O   UNL     1      -9.068   2.960   0.405  0.00  0.00    -0.153 OA
ATOM     21  O   UNL     1      -9.062   2.288  -1.994  0.00  0.00    -0.153 OA
BRANCH  19  22
ATOM     22  N   UNL     1     -10.219   0.894  -0.312  0.00  0.00    -0.204 NA
ATOM     23  H   UNL     1     -11.068   1.210   0.033  0.00  0.00    +0.144 HD
ATOM     24  H   UNL     1     -10.086  -0.052  -0.484  0.00  0.00    +0.144 HD
ENDBRANCH  19  22
ENDBRANCH  16  19
ENDBRANCH  11  13
BRANCH   1  26
ATOM     25  N   UNL     1      -1.202  -0.681  -0.344  0.00  0.00    -0.281 N 
ATOM     26  C   UNL     1      -1.179  -2.021  -0.202  0.00  0.00    +0.253 C 
ATOM     27  O   UNL     1      -0.121  -2.597  -0.033  0.00  0.00    -0.270 OA
ATOM     28  H   UNL     1      -2.049  -0.216  -0.425  0.00  0.00    +0.155 HD
BRANCH  25  34
ATOM     29  C   UNL     1       0.113   1.163  -1.184  0.00  0.00    +0.026 A 
ATOM     30  C   UNL     1       1.297   1.873  -1.213  0.00  0.00    +0.040 A 
ATOM     31  C   UNL     1       2.369   1.466  -0.437  0.00  0.00    +0.124 A 
ATOM     32  C   UNL     1       2.256   0.346   0.370  0.00  0.00    +0.040 A 
ATOM     33  C   UNL     1       1.074  -0.367   0.403  0.00  0.00    +0.026 A 
ATOM     34  C   UNL     1      -0.003   0.040  -0.375  0.00  0.00    +0.034 A 
ATOM     35  F   UNL     1       3.526   2.162  -0.467  0.00  0.00    -0.205 F 
ENDBRANCH  25  34
ENDBRANCH   1  26
BRANCH   5  36
ATOM     36  N   UNL     1      -5.190  -8.270   0.201  0.00  0.00    +0.056 N 
ATOM     37  O   UNL     1      -4.204  -8.915   0.472  0.00  0.00    -0.126 OA
ATOM     38  O   UNL     1      -6.271  -8.809   0.158  0.00  0.00    -0.126 OA
ENDBRANCH   5  36
TORSDOF 6
