REMARK  Name = ZINC29003891
REMARK  7 active torsions:
REMARK  status: ('A' for Active; 'I' for Inactive)
REMARK    1  A    between atoms: C_1  and  C_2
REMARK    2  A    between atoms: C_2  and  N_3
REMARK    3  A    between atoms: C_7  and  N_8
REMARK    4  A    between atoms: N_8  and  C_9
REMARK    5  A    between atoms: C_10  and  C_15
REMARK    6  A    between atoms: N_19  and  C_22
REMARK    7  A    between atoms: C_22  and  C_23
REMARK                            x       y       z     vdW  Elec       q    Type
REMARK                         _______ _______ _______ _____ _____    ______ ____
ROOT
ATOM      1  N   UNL     1       7.661  -1.758  -0.395  0.00  0.00    -0.249 N 
ATOM      2  C   UNL     1       6.319  -1.824  -0.284  0.00  0.00    +0.258 C 
ATOM      3  O   UNL     1       5.743  -2.896  -0.290  0.00  0.00    -0.269 OA
ATOM      4  C   UNL     1       5.567  -0.562  -0.158  0.00  0.00    +0.113 C 
ATOM      5  C   UNL     1       4.191  -0.550  -0.041  0.00  0.00    +0.091 C 
ATOM      6  C   UNL     1       6.349   0.688  -0.168  0.00  0.00    +0.258 C 
ATOM      7  O   UNL     1       5.800   1.770  -0.073  0.00  0.00    -0.269 OA
ATOM      8  N   UNL     1       7.691   0.600  -0.280  0.00  0.00    -0.249 N 
ATOM      9  C   UNL     1       8.308  -0.585  -0.391  0.00  0.00    +0.149 C 
ATOM     10  S   UNL     1      10.014  -0.599  -0.536  0.00  0.00    -0.018 S 
ENDROOT
BRANCH   1  12
ATOM     11  C   UNL     1       8.576  -3.359  -2.002  0.00  0.00    +0.025 C 
ATOM     12  C   UNL     1       8.430  -2.999  -0.522  0.00  0.00    +0.112 C 
ENDBRANCH   1  12
BRANCH   5  13
ATOM     13  N   UNL     1       3.522   0.624  -0.052  0.00  0.00    -0.304 N 
ATOM     14  H   UNL     1       4.077   1.573  -0.069  0.00  0.00    +0.153 HD
BRANCH  13  15
ATOM     15  C   UNL     1       2.137   0.631  -0.043  0.00  0.00    +0.136 A 
ATOM     16  C   UNL     1       1.317   1.755  -0.053  0.00  0.00    +0.111 A 
ATOM     17  C   UNL     1      -0.019   1.293  -0.037  0.00  0.00    +0.155 A 
ATOM     18  N   UNL     1       0.001  -0.011  -0.019  0.00  0.00    -0.179 NA
ATOM     19  N   UNL     1       1.329  -0.450  -0.022  0.00  0.00    -0.263 N 
ATOM     20  H   UNL     1       1.764  -1.461  -0.011  0.00  0.00    +0.190 HD
BRANCH  16  21
ATOM     21  C   UNL     1       1.745   3.121  -0.075  0.00  0.00    +0.104 C 
ATOM     22  N   UNL     1       2.084   4.205  -0.092  0.00  0.00    -0.191 NA
ENDBRANCH  16  21
ENDBRANCH  13  15
ENDBRANCH   5  13
BRANCH   8  23
ATOM     23  C   UNL     1       8.491   1.827  -0.287  0.00  0.00    +0.112 C 
ATOM     24  C   UNL     1       8.647   2.326  -1.725  0.00  0.00    +0.025 C 
ENDBRANCH   8  23
TORSDOF 5
