REMARK  Name = ZINC00685324
REMARK  11 active torsions:
REMARK  status: ('A' for Active; 'I' for Inactive)
REMARK    1  A    between atoms: C_1  and  C_2
REMARK    2  A    between atoms: C_2  and  O_3
REMARK    3  A    between atoms: O_3  and  C_4
REMARK    4  A    between atoms: C_4  and  C_6
REMARK    5  A    between atoms: C_7  and  C_38
REMARK    6  A    between atoms: C_14  and  C_15
REMARK    7  A    between atoms: C_18  and  N_20
REMARK    8  A    between atoms: N_23  and  C_26
REMARK    9  A    between atoms: C_28  and  C_30
REMARK   10  A    between atoms: C_35  and  O_36
REMARK   11  A    between atoms: O_36  and  C_37
REMARK                            x       y       z     vdW  Elec       q    Type
REMARK                         _______ _______ _______ _____ _____    ______ ____
ROOT
ATOM      1  C   UNL     1      -2.713  -2.363   0.572  0.00  0.00    +0.085 C 
ATOM      2  C   UNL     1      -2.800  -3.720   0.425  0.00  0.00    +0.053 C 
ATOM      3  N   UNL     1      -3.971  -4.304   0.216  0.00  0.00    -0.228 NA
ATOM      4  C   UNL     1      -5.120  -3.673   0.134  0.00  0.00    +0.178 A 
ATOM      5  N   UNL     1      -5.252  -2.312   0.254  0.00  0.00    -0.275 N 
ATOM      6  C   UNL     1      -6.481  -1.785   0.149  0.00  0.00    +0.268 A 
ATOM      7  O   UNL     1      -6.671  -0.585   0.245  0.00  0.00    -0.266 OA
ATOM      8  C   UNL     1      -7.546  -2.691  -0.078  0.00  0.00    +0.084 A 
ATOM      9  C   UNL     1      -8.893  -2.436  -0.225  0.00  0.00    +0.067 C 
ATOM     10  S   UNL     1      -6.677  -4.247  -0.123  0.00  0.00    -0.046 S 
ATOM     11  C   UNL     1      -3.991  -1.559   0.496  0.00  0.00    +0.165 C 
ATOM     12  C   UNL     1      -1.551  -4.560   0.499  0.00  0.00    +0.066 C 
ENDROOT
BRANCH  11  13
ATOM     13  C   UNL     1      -4.139  -0.800   1.789  0.00  0.00    +0.022 A 
ATOM     14  C   UNL     1      -3.889   0.558   1.827  0.00  0.00    +0.009 A 
ATOM     15  C   UNL     1      -4.025   1.254   3.013  0.00  0.00    +0.001 A 
ATOM     16  C   UNL     1      -4.411   0.594   4.165  0.00  0.00    +0.004 A 
ATOM     17  C   UNL     1      -4.662  -0.764   4.133  0.00  0.00    +0.046 A 
ATOM     18  C   UNL     1      -4.532  -1.464   2.942  0.00  0.00    +0.126 A 
BRANCH  18  19
ATOM     19  O   UNL     1      -4.784  -2.799   2.906  0.00  0.00    -0.495 OA
ATOM     20  C   UNL     1      -5.286  -3.397   4.104  0.00  0.00    +0.277 C 
ENDBRANCH  18  19
ENDBRANCH  11  13
BRANCH   9  21
ATOM     21  C   UNL     1      -9.789  -3.497  -0.446  0.00  0.00    +0.131 A 
ATOM     22  C   UNL     1     -11.159  -3.386  -0.616  0.00  0.00    +0.051 A 
ATOM     23  C   UNL     1     -11.646  -4.681  -0.806  0.00  0.00    +0.066 A 
ATOM     24  C   UNL     1     -10.577  -5.527  -0.748  0.00  0.00    +0.189 A 
ATOM     25  O   UNL     1      -9.464  -4.807  -0.537  0.00  0.00    -0.442 OA
BRANCH  24  26
ATOM     26  N   UNL     1     -10.630  -6.899  -0.887  0.00  0.00    -0.305 N 
ATOM     27  C   UNL     1     -11.909  -7.586  -1.128  0.00  0.00    +0.089 C 
ATOM     28  C   UNL     1     -11.740  -8.520  -2.331  0.00  0.00    -0.060 C 
ATOM     29  N   UNL     1     -10.604  -9.420  -2.095  0.00  0.00    +0.380 N 
ATOM     30  C   UNL     1      -9.360  -8.645  -2.019  0.00  0.00    -0.060 C 
ATOM     31  C   UNL     1      -9.410  -7.716  -0.806  0.00  0.00    +0.089 C 
ATOM     32  C   UNL     1     -10.511 -10.386  -3.198  0.00  0.00    -0.096 C 
ATOM     33  H   UNL     1     -10.744  -9.915  -1.228  0.00  0.00    -0.082 HD
ENDBRANCH  24  26
ENDBRANCH   9  21
BRANCH   1  34
ATOM     34  C   UNL     1      -1.476  -1.737   0.792  0.00  0.00    +0.339 C 
ATOM     35  O   UNL     1      -0.478  -2.409   0.983  0.00  0.00    -0.245 OA
BRANCH  34  36
ATOM     36  O   UNL     1      -1.392  -0.389   0.794  0.00  0.00    -0.462 OA
BRANCH  36  38
ATOM     37  C   UNL     1      -0.201   1.702   1.018  0.00  0.00    +0.048 C 
ATOM     38  C   UNL     1      -0.087   0.180   0.913  0.00  0.00    +0.229 C 
ENDBRANCH  36  38
ENDBRANCH  34  36
ENDBRANCH   1  34
TORSDOF 7
