REMARK  Name = ZINC17084786
REMARK  1 active torsions:
REMARK  status: ('A' for Active; 'I' for Inactive)
REMARK    1  A    between atoms: C_3  and  N_9
REMARK                            x       y       z     vdW  Elec       q    Type
REMARK                         _______ _______ _______ _____ _____    ______ ____
ROOT
ATOM      1  N   UNL     1       3.586   2.129  -0.021  0.00  0.00    -0.208 N 
ATOM      2  C   UNL     1       4.193   2.510  -1.151  0.00  0.00    +0.233 C 
ATOM      3  O   UNL     1       3.788   2.287  -2.271  0.00  0.00    -0.274 OA
ATOM      4  C   UNL     1       5.461   3.260  -0.814  0.00  0.00    +0.123 C 
ATOM      5  C   UNL     1       6.678   2.355  -1.177  0.00  0.00    +0.154 C 
ATOM      6  C   UNL     1       7.913   3.162  -0.767  0.00  0.00    +0.003 C 
ATOM      7  C   UNL     1       7.951   3.144   0.554  0.00  0.00    +0.003 C 
ATOM      8  C   UNL     1       6.742   2.325   1.013  0.00  0.00    +0.154 C 
ATOM      9  C   UNL     1       5.480   3.246   0.747  0.00  0.00    +0.123 C 
ATOM     10  C   UNL     1       4.218   2.494   1.100  0.00  0.00    +0.233 C 
ATOM     11  O   UNL     1       3.838   2.255   2.226  0.00  0.00    -0.274 OA
ATOM     12  O   UNL     1       6.618   1.356  -0.104  0.00  0.00    -0.364 OA
ENDROOT
BRANCH   1  15
ATOM     13  C   UNL     1      -0.017   1.378   0.010  0.00  0.00    +0.003 A 
ATOM     14  C   UNL     1       1.169   2.087   0.002  0.00  0.00    +0.025 A 
ATOM     15  C   UNL     1       2.381   1.411  -0.013  0.00  0.00    +0.064 A 
ATOM     16  C   UNL     1       2.399   0.022  -0.021  0.00  0.00    +0.081 A 
ATOM     17  C   UNL     1       1.208  -0.682  -0.013  0.00  0.00    +0.061 A 
ATOM     18  C   UNL     1       0.002  -0.004   0.002  0.00  0.00    +0.021 A 
ATOM     19 CL   UNL     1       1.228  -2.418  -0.023  0.00  0.00    -0.082 Cl
ATOM     20 CL   UNL     1       3.912  -0.828  -0.040  0.00  0.00    -0.080 Cl
ENDBRANCH   1  15
TORSDOF 1
