REMARK  Name = ZINC09612630
REMARK  10 active torsions:
REMARK  status: ('A' for Active; 'I' for Inactive)
REMARK    1  A    between atoms: C_1  and  C_2
REMARK    2  A    between atoms: C_2  and  C_28
REMARK    3  A    between atoms: C_4  and  N_9
REMARK    4  A    between atoms: C_6  and  C_7
REMARK    5  A    between atoms: C_6  and  C_8
REMARK    6  A    between atoms: N_9  and  C_10
REMARK    7  A    between atoms: C_10  and  N_12
REMARK    8  A    between atoms: N_12  and  C_13
REMARK    9  A    between atoms: C_16  and  S_19
REMARK   10  A    between atoms: S_19  and  N_22
REMARK                            x       y       z     vdW  Elec       q    Type
REMARK                         _______ _______ _______ _____ _____    ______ ____
ROOT
ATOM      1  N   UNL     1       1.237  -2.079  -0.021  0.00  0.00    -0.297 N 
ATOM      2  H   UNL     1       0.410  -2.578   0.065  0.00  0.00    +0.154 HD
ENDROOT
BRANCH   1   3
ATOM      3  C   UNL     1       1.214  -0.680  -0.024  0.00  0.00    +0.033 A 
ATOM      4  C   UNL     1       2.011   0.027  -0.914  0.00  0.00    +0.025 A 
ATOM      5  C   UNL     1       1.986   1.408  -0.915  0.00  0.00    +0.030 A 
ATOM      6  C   UNL     1       1.168   2.086  -0.030  0.00  0.00    +0.106 A 
ATOM      7  C   UNL     1       0.372   1.385   0.858  0.00  0.00    +0.030 A 
ATOM      8  C   UNL     1       0.393   0.004   0.863  0.00  0.00    +0.025 A 
BRANCH   6   9
ATOM      9  S   UNL     1       1.139   3.848  -0.033  0.00  0.00    +0.061 S 
ATOM     10  O   UNL     1       0.701   4.249   1.258  0.00  0.00    -0.153 OA
ATOM     11  O   UNL     1       2.377   4.273  -0.584  0.00  0.00    -0.153 OA
BRANCH   9  12
ATOM     12  N   UNL     1      -0.039   4.316  -1.099  0.00  0.00    -0.172 NA
ATOM     13  C   UNL     1       0.273   4.548  -2.518  0.00  0.00    +0.137 C 
ATOM     14  C   UNL     1      -0.738   3.760  -3.366  0.00  0.00    +0.177 C 
ATOM     15  O   UNL     1      -2.063   4.092  -2.946  0.00  0.00    -0.377 OA
ATOM     16  C   UNL     1      -2.354   3.736  -1.592  0.00  0.00    +0.177 C 
ATOM     17  C   UNL     1      -1.427   4.518  -0.654  0.00  0.00    +0.137 C 
ENDBRANCH   9  12
ENDBRANCH   6   9
ENDBRANCH   1   3
BRANCH   1  18
ATOM     18  C   UNL     1       2.410  -2.734  -0.138  0.00  0.00    +0.135 C 
ATOM     19  S   UNL     1       3.881  -1.859  -0.147  0.00  0.00    -0.019 S 
BRANCH  18  20
ATOM     20  N   UNL     1       2.424  -4.077  -0.247  0.00  0.00    -0.324 N 
ATOM     21  H   UNL     1       1.590  -4.573  -0.242  0.00  0.00    +0.148 HD
BRANCH  20  25
ATOM     22  C   UNL     1       5.819  -6.550   1.083  0.00  0.00    -0.010 C 
ATOM     23  C   UNL     1       4.839  -6.996  -0.009  0.00  0.00    -0.072 C 
ATOM     24  C   UNL     1       3.531  -6.222   0.132  0.00  0.00    +0.009 C 
ATOM     25  C   UNL     1       3.701  -4.790  -0.374  0.00  0.00    +0.069 C 
ATOM     26  C   UNL     1       4.105  -4.840  -1.847  0.00  0.00    +0.009 C 
ATOM     27  C   UNL     1       5.422  -5.596  -2.011  0.00  0.00    -0.072 C 
ATOM     28  C   UNL     1       6.583  -4.708  -1.547  0.00  0.00    -0.010 C 
ATOM     29  C   UNL     1       5.623  -5.859  -3.520  0.00  0.00    -0.010 C 
ATOM     30  C   UNL     1       4.526  -8.488   0.239  0.00  0.00    -0.010 C 
ATOM     31  N   UNL     1       5.463  -6.932  -1.358  0.00  0.00    +0.386 N 
ATOM     32  H   UNL     1       4.973  -7.598  -1.967  0.00  0.00    -0.084 HD
ATOM     33  H   UNL     1       6.447  -7.211  -1.267  0.00  0.00    -0.084 HD
ENDBRANCH  20  25
ENDBRANCH  18  20
ENDBRANCH   1  18
TORSDOF 6
