REMARK  Name = ZINC28895597
REMARK  13 active torsions:
REMARK  status: ('A' for Active; 'I' for Inactive)
REMARK    1  A    between atoms: C_1  and  N_2
REMARK    2  A    between atoms: N_2  and  C_3
REMARK    3  A    between atoms: N_2  and  C_20
REMARK    4  A    between atoms: C_3  and  C_4
REMARK    5  A    between atoms: C_4  and  C_5
REMARK    6  A    between atoms: N_7  and  C_8
REMARK    7  A    between atoms: C_8  and  C_9
REMARK    8  A    between atoms: C_9  and  C_10
REMARK    9  A    between atoms: C_13  and  S_16
REMARK   10  A    between atoms: S_16  and  N_19
REMARK   11  A    between atoms: C_20  and  C_21
REMARK   12  A    between atoms: C_21  and  O_22
REMARK   13  A    between atoms: O_22  and  C_23
REMARK                            x       y       z     vdW  Elec       q    Type
REMARK                         _______ _______ _______ _____ _____    ______ ____
ROOT
ATOM      1  C   UNL     1       0.588  -0.563  -3.683  0.00  0.00    +0.211 C 
ATOM      2  O   UNL     1       1.633  -1.170  -3.587  0.00  0.00    -0.276 OA
ATOM      3  N   UNL     1       0.057  -0.323  -4.898  0.00  0.00    -0.315 N 
ATOM      4  H   UNL     1      -0.780   0.162  -4.975  0.00  0.00    +0.149 HD
ENDROOT
BRANCH   1   5
ATOM      5  C   UNL     1      -0.118  -0.077  -2.443  0.00  0.00    +0.077 C 
BRANCH   5   6
ATOM      6  C   UNL     1       0.690  -0.478  -1.207  0.00  0.00    -0.070 C 
BRANCH   6   8
ATOM      7  C   UNL     1      -0.018   1.465   0.010  0.00  0.00    -0.096 C 
ATOM      8  N   UNL     1       0.002  -0.004   0.002  0.00  0.00    +0.380 N 
ATOM      9  H   UNL     1      -0.945  -0.353   0.009  0.00  0.00    -0.082 HD
BRANCH   8  10
ATOM     10  C   UNL     1       0.713  -0.491   1.192  0.00  0.00    -0.038 C 
BRANCH  10  11
ATOM     11  C   UNL     1      -0.071  -0.103   2.448  0.00  0.00    +0.210 C 
BRANCH  11  12
ATOM     12  O   UNL     1      -1.328  -0.783   2.454  0.00  0.00    -0.494 OA
BRANCH  12  13
ATOM     13  C   UNL     1      -2.152  -0.548   3.509  0.00  0.00    +0.120 A 
ATOM     14  C   UNL     1      -1.761   0.324   4.514  0.00  0.00    +0.047 A 
ATOM     15  C   UNL     1      -2.600   0.561   5.586  0.00  0.00    +0.023 A 
ATOM     16  C   UNL     1      -3.829  -0.070   5.656  0.00  0.00    +0.041 A 
ATOM     17  C   UNL     1      -4.221  -0.940   4.654  0.00  0.00    +0.023 A 
ATOM     18  C   UNL     1      -3.388  -1.175   3.578  0.00  0.00    +0.047 A 
ATOM     19 CL   UNL     1      -4.881   0.230   7.004  0.00  0.00    -0.084 Cl
ENDBRANCH  12  13
ENDBRANCH  11  12
ENDBRANCH  10  11
ENDBRANCH   8  10
ENDBRANCH   6   8
ENDBRANCH   5   6
ENDBRANCH   1   5
BRANCH   3  20
ATOM     20  C   UNL     1       0.742  -0.796  -6.103  0.00  0.00    +0.109 C 
BRANCH  20  21
ATOM     21  C   UNL     1      -0.065  -0.395  -7.340  0.00  0.00    +0.054 C 
BRANCH  21  22
ATOM     22  C   UNL     1       0.640  -0.881  -8.579  0.00  0.00    -0.046 A 
ATOM     23  C   UNL     1       1.572  -0.075  -9.205  0.00  0.00    +0.005 A 
ATOM     24  C   UNL     1       2.219  -0.520 -10.343  0.00  0.00    +0.029 A 
ATOM     25  C   UNL     1       1.935  -1.773 -10.854  0.00  0.00    +0.105 A 
ATOM     26  C   UNL     1       1.003  -2.580 -10.227  0.00  0.00    +0.029 A 
ATOM     27  C   UNL     1       0.359  -2.135  -9.088  0.00  0.00    +0.005 A 
BRANCH  25  28
ATOM     28  S   UNL     1       2.758  -2.341 -12.304  0.00  0.00    +0.056 S 
ATOM     29  O   UNL     1       1.917  -3.325 -12.890  0.00  0.00    -0.153 OA
ATOM     30  O   UNL     1       3.182  -1.183 -13.010  0.00  0.00    -0.153 OA
BRANCH  28  31
ATOM     31  N   UNL     1       4.132  -3.124 -11.812  0.00  0.00    -0.204 NA
ATOM     32  H   UNL     1       4.339  -3.193 -10.867  0.00  0.00    +0.144 HD
ATOM     33  H   UNL     1       4.730  -3.514 -12.469  0.00  0.00    +0.144 HD
ENDBRANCH  28  31
ENDBRANCH  25  28
ENDBRANCH  21  22
ENDBRANCH  20  21
ENDBRANCH   3  20
TORSDOF 12
