REMARK  Name = ZINC13455085
REMARK  10 active torsions:
REMARK  status: ('A' for Active; 'I' for Inactive)
REMARK    1  A    between atoms: C_1  and  C_2
REMARK    2  A    between atoms: N_4  and  C_11
REMARK    3  A    between atoms: C_14  and  N_33
REMARK    4  A    between atoms: C_16  and  C_19
REMARK    5  A    between atoms: C_19  and  O_20
REMARK    6  A    between atoms: O_20  and  P_21
REMARK    7  A    between atoms: P_21  and  O_24
REMARK    8  A    between atoms: O_24  and  P_25
REMARK    9  A    between atoms: P_25  and  O_28
REMARK   10  A    between atoms: O_28  and  P_29
REMARK                            x       y       z     vdW  Elec       q    Type
REMARK                         _______ _______ _______ _____ _____    ______ ____
ROOT
ATOM      1  C   UNL     1      -2.369  -2.831  -0.002  0.00  0.00    +0.226 C 
ATOM      2  C   UNL     1      -2.499  -3.656  -1.301  0.00  0.00    +0.087 C 
ATOM      3  C   UNL     1      -3.160  -4.976  -0.844  0.00  0.00    +0.178 C 
ATOM      4  C   UNL     1      -3.351  -4.791   0.678  0.00  0.00    +0.174 C 
ATOM      5  O   UNL     1      -2.362  -3.810   1.060  0.00  0.00    -0.349 OA
ENDROOT
BRANCH   1   9
ATOM      6  C   UNL     1      -0.018   1.503   0.010  0.00  0.00    +0.051 C 
ATOM      7  C   UNL     1       0.002  -0.004   0.002  0.00  0.00    +0.030 A 
ATOM      8  C   UNL     1      -1.153  -0.704   0.004  0.00  0.00    +0.101 A 
ATOM      9  N   UNL     1      -1.116  -2.072  -0.004  0.00  0.00    -0.274 N 
ATOM     10  C   UNL     1       0.060  -2.726  -0.013  0.00  0.00    +0.331 A 
ATOM     11  O   UNL     1       0.069  -3.942  -0.019  0.00  0.00    -0.246 OA
ATOM     12  N   UNL     1       1.226  -2.053  -0.015  0.00  0.00    -0.275 N 
ATOM     13  H   UNL     1       2.064  -2.540  -0.022  0.00  0.00    +0.173 HD
ATOM     14  C   UNL     1       1.232  -0.705  -0.013  0.00  0.00    +0.257 A 
ATOM     15  O   UNL     1       2.287  -0.095  -0.021  0.00  0.00    -0.267 OA
ENDBRANCH   1   9
BRANCH   3  16
ATOM     16  N   UNL     1      -4.454  -5.159  -1.507  0.00  0.00    -0.104 NA
ATOM     17  N   UNL     1      -4.496  -5.327  -2.618  0.00  0.00    -0.167 NA
ATOM     18  N   UNL     1      -4.538  -5.492  -3.705  0.00  0.00    +0.068 NA
ENDBRANCH   3  16
BRANCH   4  19
ATOM     19  C   UNL     1      -3.106  -6.112   1.410  0.00  0.00    +0.206 C 
BRANCH  19  20
ATOM     20  O   UNL     1      -3.400  -5.950   2.799  0.00  0.00    -0.282 OA
BRANCH  20  21
ATOM     21  P   UNL     1      -3.252  -7.141   3.872  0.00  0.00    +0.513 P 
ATOM     22  O   UNL     1      -4.080  -8.359   3.407  0.00  0.00    -0.224 OA
ATOM     23  O   UNL     1      -1.765  -7.545   3.991  0.00  0.00    -0.116 OA
BRANCH  21  24
ATOM     24  O   UNL     1      -3.789  -6.642   5.305  0.00  0.00    -0.183 OA
BRANCH  24  25
ATOM     25  P   UNL     1      -4.196  -7.393   6.670  0.00  0.00    +0.522 P 
ATOM     26  O   UNL     1      -4.964  -8.691   6.335  0.00  0.00    -0.224 OA
ATOM     27  O   UNL     1      -2.920  -7.740   7.467  0.00  0.00    -0.116 OA
BRANCH  25  28
ATOM     28  O   UNL     1      -5.135  -6.428   7.553  0.00  0.00    -0.181 OA
BRANCH  28  29
ATOM     29  P   UNL     1      -6.099  -6.661   8.822  0.00  0.00    +0.540 P 
ATOM     30  O   UNL     1      -6.877  -8.009   8.645  0.00  0.00    -0.222 OA
ATOM     31  O   UNL     1      -5.238  -6.722  10.129  0.00  0.00    -0.114 OA
ATOM     32  O   UNL     1      -7.121  -5.478   8.925  0.00  0.00    -0.114 OA
ENDBRANCH  28  29
ENDBRANCH  25  28
ENDBRANCH  24  25
ENDBRANCH  21  24
ENDBRANCH  20  21
ENDBRANCH  19  20
ENDBRANCH   4  19
TORSDOF 9
