REMARK  Name = ZINC08691489
REMARK  13 active torsions:
REMARK  status: ('A' for Active; 'I' for Inactive)
REMARK    1  A    between atoms: C_1  and  C_2
REMARK    2  A    between atoms: C_2  and  O_3
REMARK    3  A    between atoms: O_3  and  C_4
REMARK    4  A    between atoms: C_4  and  C_6
REMARK    5  A    between atoms: C_8  and  C_28
REMARK    6  A    between atoms: C_10  and  C_11
REMARK    7  A    between atoms: C_11  and  O_13
REMARK    8  A    between atoms: O_13  and  C_14
REMARK    9  A    between atoms: C_14  and  C_15
REMARK   10  A    between atoms: C_16  and  N_17
REMARK   11  A    between atoms: N_17  and  C_18
REMARK   12  A    between atoms: C_25  and  C_26
REMARK   13  A    between atoms: C_25  and  O_27
REMARK                            x       y       z     vdW  Elec       q    Type
REMARK                         _______ _______ _______ _____ _____    ______ ____
ROOT
ATOM      1  C   UNL     1       0.739  -2.245  -2.068  0.00  0.00    +0.141 C 
ATOM      2  C   UNL     1       0.343  -2.114  -3.540  0.00  0.00    +0.074 C 
ATOM      3  C   UNL     1      -0.916  -2.887  -3.808  0.00  0.00    +0.062 C 
ATOM      4  C   UNL     1      -1.388  -3.834  -2.991  0.00  0.00    +0.021 C 
ATOM      5  C   UNL     1      -0.720  -4.227  -1.705  0.00  0.00    +0.086 C 
ATOM      6  C   UNL     1       0.730  -3.731  -1.687  0.00  0.00    +0.082 C 
ATOM      7  C   UNL     1       1.323  -3.905  -0.287  0.00  0.00    +0.042 C 
ENDROOT
BRANCH   2   8
ATOM      8  C   UNL     1       0.114  -0.661  -3.868  0.00  0.00    -0.039 A 
ATOM      9  C   UNL     1       1.121   0.083  -4.454  0.00  0.00    +0.005 A 
ATOM     10  C   UNL     1       0.911   1.415  -4.755  0.00  0.00    +0.015 A 
ATOM     11  C   UNL     1      -0.307   2.005  -4.471  0.00  0.00    +0.018 A 
ATOM     12  C   UNL     1      -1.315   1.260  -3.884  0.00  0.00    +0.015 A 
ATOM     13  C   UNL     1      -1.106  -0.074  -3.588  0.00  0.00    +0.005 A 
ATOM     14 BR   UNL     1      -0.595   3.828  -4.882  0.00  0.00    -0.050 Br
ENDBRANCH   2   8
BRANCH   1  15
ATOM     15  C   UNL     1      -0.248  -1.497  -1.210  0.00  0.00    +0.314 C 
ATOM     16  O   UNL     1      -1.430  -1.728  -1.308  0.00  0.00    -0.250 OA
BRANCH  15  17
ATOM     17  O   UNL     1       0.186  -0.574  -0.338  0.00  0.00    -0.465 OA
BRANCH  17  19
ATOM     18  C   UNL     1      -0.138   1.124   1.352  0.00  0.00    +0.048 C 
ATOM     19  C   UNL     1      -0.791   0.017   0.521  0.00  0.00    +0.229 C 
ENDBRANCH  17  19
ENDBRANCH  15  17
ENDBRANCH   1  15
BRANCH   3  20
ATOM     20  C   UNL     1      -1.641  -2.597  -4.984  0.00  0.00    +0.337 C 
ATOM     21  O   UNL     1      -2.725  -3.116  -5.175  0.00  0.00    -0.245 OA
BRANCH  20  22
ATOM     22  O   UNL     1      -1.131  -1.745  -5.899  0.00  0.00    -0.462 OA
BRANCH  22  23
ATOM     23  C   UNL     1      -1.964  -1.413  -7.011  0.00  0.00    +0.229 C 
ATOM     24  C   UNL     1      -1.178  -0.543  -7.994  0.00  0.00    +0.048 C 
ENDBRANCH  22  23
ENDBRANCH  20  22
ENDBRANCH   3  20
BRANCH   4  25
ATOM     25  N   UNL     1      -2.538  -4.481  -3.346  0.00  0.00    -0.317 N 
ATOM     26  H   UNL     1      -3.368  -3.984  -3.426  0.00  0.00    +0.152 HD
BRANCH  25  27
ATOM     27  C   UNL     1      -2.520  -5.856  -3.593  0.00  0.00    +0.031 A 
ATOM     28  C   UNL     1      -1.313  -6.544  -3.610  0.00  0.00    +0.023 A 
ATOM     29  C   UNL     1      -1.299  -7.903  -3.855  0.00  0.00    +0.002 A 
ATOM     30  C   UNL     1      -2.483  -8.579  -4.082  0.00  0.00    +0.000 A 
ATOM     31  C   UNL     1      -3.686  -7.897  -4.066  0.00  0.00    +0.002 A 
ATOM     32  C   UNL     1      -3.709  -6.539  -3.817  0.00  0.00    +0.023 A 
ENDBRANCH  25  27
ENDBRANCH   4  25
BRANCH   6  33
ATOM     33  O   UNL     1       1.501  -4.474  -2.634  0.00  0.00    -0.388 OA
ATOM     34  H   UNL     1       1.538  -5.423  -2.452  0.00  0.00    +0.210 HD
ENDBRANCH   6  33
TORSDOF 10
