REMARK  Name = ZINC28335263
REMARK  7 active torsions:
REMARK  status: ('A' for Active; 'I' for Inactive)
REMARK    1  A    between atoms: C_1  and  C_2
REMARK    2  A    between atoms: C_4  and  C_27
REMARK    3  A    between atoms: C_6  and  C_8
REMARK    4  A    between atoms: N_10  and  C_11
REMARK    5  A    between atoms: C_11  and  C_12
REMARK    6  A    between atoms: N_14  and  N_15
REMARK    7  A    between atoms: N_15  and  C_16
REMARK                            x       y       z     vdW  Elec       q    Type
REMARK                         _______ _______ _______ _____ _____    ______ ____
ROOT
ATOM      1  C   UNL     1      -1.403  -0.536   0.119  0.00  0.00    +0.246 C 
ATOM      2  O   UNL     1      -2.326   0.245   0.030  0.00  0.00    -0.273 OA
ATOM      3  N   UNL     1      -1.641  -1.863   0.120  0.00  0.00    -0.235 N 
ATOM      4  H   UNL     1      -0.804  -2.572   0.201  0.00  0.00    +0.173 HD
ENDROOT
BRANCH   3   5
ATOM      5  N   UNL     1      -2.954  -2.339   0.018  0.00  0.00    -0.259 N 
ATOM      6  H   UNL     1      -3.797  -1.632   0.024  0.00  0.00    +0.170 HD
BRANCH   5   7
ATOM      7  C   UNL     1      -3.194  -3.715  -0.093  0.00  0.00    +0.121 A 
ATOM      8  C   UNL     1      -2.315  -4.519  -0.808  0.00  0.00    +0.186 A 
ATOM      9  C   UNL     1      -2.550  -5.880  -0.911  0.00  0.00    +0.198 A 
ATOM     10  C   UNL     1      -3.669  -6.438  -0.312  0.00  0.00    +0.199 A 
ATOM     11  C   UNL     1      -4.551  -5.637   0.396  0.00  0.00    +0.198 A 
ATOM     12  C   UNL     1      -4.315  -4.277   0.506  0.00  0.00    +0.186 A 
ATOM     13  F   UNL     1      -5.175  -3.496   1.197  0.00  0.00    -0.200 F 
ATOM     14  F   UNL     1      -5.640  -6.183   0.979  0.00  0.00    -0.199 F 
ATOM     15  F   UNL     1      -3.900  -7.765  -0.419  0.00  0.00    -0.199 F 
ATOM     16  F   UNL     1      -1.692  -6.664  -1.600  0.00  0.00    -0.199 F 
ATOM     17  F   UNL     1      -1.228  -3.975  -1.396  0.00  0.00    -0.200 F 
ENDBRANCH   5   7
ENDBRANCH   3   5
BRANCH   1  18
ATOM     18  C   UNL     1       0.010  -0.024   0.229  0.00  0.00    +0.202 C 
BRANCH  18  21
ATOM     19  C   UNL     1       1.162   2.122   0.292  0.00  0.00    +0.244 C 
ATOM     20  O   UNL     1       2.214   1.522   0.389  0.00  0.00    -0.270 OA
ATOM     21  N   UNL     1       0.002   1.440   0.206  0.00  0.00    -0.303 N 
ATOM     22  H   UNL     1      -0.950   1.984   0.118  0.00  0.00    +0.150 HD
BRANCH  19  28
ATOM     23  C   UNL     1      -1.356   6.422   0.014  0.00  0.00    +0.044 C 
ATOM     24  C   UNL     1      -0.054   5.673   0.135  0.00  0.00    -0.049 A 
ATOM     25  C   UNL     1       1.138   6.369   0.223  0.00  0.00    +0.006 A 
ATOM     26  C   UNL     1       2.338   5.689   0.334  0.00  0.00    -0.049 A 
ATOM     27  C   UNL     1       2.352   4.310   0.357  0.00  0.00    +0.016 A 
ATOM     28  C   UNL     1       1.153   3.600   0.268  0.00  0.00    +0.037 A 
ATOM     29  C   UNL     1      -0.053   4.293   0.151  0.00  0.00    +0.016 A 
ATOM     30  C   UNL     1       3.631   6.456   0.430  0.00  0.00    +0.044 C 
ENDBRANCH  19  28
ENDBRANCH  18  21
ENDBRANCH   1  18
TORSDOF 5
