REMARK  Name = ZINC09971128
REMARK  4 active torsions:
REMARK  status: ('A' for Active; 'I' for Inactive)
REMARK    1  A    between atoms: C_1  and  C_2
REMARK    2  A    between atoms: C_3  and  C_25
REMARK    3  A    between atoms: C_4  and  C_18
REMARK    4  A    between atoms: N_27  and  C_28
REMARK                            x       y       z     vdW  Elec       q    Type
REMARK                         _______ _______ _______ _____ _____    ______ ____
ROOT
ATOM      1  C   UNL     1       0.097   1.605  -0.061  0.00  0.00    +0.061 C 
ATOM      2  C   UNL     1      -0.672   1.792   1.221  0.00  0.00    +0.018 C 
ATOM      3  C   UNL     1      -0.046   1.684   2.408  0.00  0.00    +0.058 C 
ATOM      4  C   UNL     1      -0.798   1.855   3.697  0.00  0.00    +0.149 C 
ATOM      5  C   UNL     1      -2.633   2.586   2.305  0.00  0.00    +0.166 C 
ATOM      6  N   UNL     1      -2.014   2.078   1.185  0.00  0.00    -0.292 N 
ATOM      7  N   UNL     1      -3.858   3.204   2.176  0.00  0.00    -0.243 N 
ATOM      8  C   UNL     1      -4.490   3.724   3.288  0.00  0.00    +0.295 A 
ATOM      9  N   UNL     1      -4.019   3.678   4.507  0.00  0.00    -0.195 NA
ATOM     10  C   UNL     1      -4.904   4.289   5.340  0.00  0.00    +0.111 A 
ATOM     11  C   UNL     1      -4.923   4.533   6.715  0.00  0.00    +0.031 A 
ATOM     12  C   UNL     1      -5.996   5.189   7.277  0.00  0.00    +0.002 A 
ATOM     13  C   UNL     1      -7.055   5.608   6.486  0.00  0.00    +0.004 A 
ATOM     14  C   UNL     1      -7.049   5.373   5.126  0.00  0.00    +0.048 A 
ATOM     15  C   UNL     1      -5.978   4.715   4.544  0.00  0.00    +0.157 A 
ATOM     16  O   UNL     1      -5.682   4.345   3.277  0.00  0.00    -0.424 OA
ATOM     17  H   UNL     1      -2.525   1.921   0.376  0.00  0.00    +0.154 HD
ATOM     18  H   UNL     1      -4.277   3.274   1.303  0.00  0.00    +0.159 HD
ATOM     19  N   UNL     1      -2.132   2.535   3.543  0.00  0.00    -0.350 N 
ATOM     20  H   UNL     1      -2.630   2.938   4.346  0.00  0.00    +0.163 HD
ENDROOT
BRANCH   4  21
ATOM     21  C   UNL     1      -1.023   0.502   4.321  0.00  0.00    -0.020 A 
ATOM     22  C   UNL     1      -2.051  -0.304   3.869  0.00  0.00    +0.009 A 
ATOM     23  C   UNL     1      -2.255  -1.548   4.437  0.00  0.00    +0.039 A 
ATOM     24  C   UNL     1      -1.436  -1.981   5.466  0.00  0.00    +0.123 A 
ATOM     25  C   UNL     1      -0.410  -1.170   5.921  0.00  0.00    +0.039 A 
ATOM     26  C   UNL     1      -0.205   0.070   5.348  0.00  0.00    +0.009 A 
ATOM     27  F   UNL     1      -1.639  -3.193   6.026  0.00  0.00    -0.205 F 
ENDBRANCH   4  21
BRANCH   3  28
ATOM     28  C   UNL     1       1.342   1.405   2.441  0.00  0.00    +0.248 C 
ATOM     29  O   UNL     1       1.935   1.145   1.410  0.00  0.00    -0.270 OA
ATOM     30  N   UNL     1       2.005   1.427   3.614  0.00  0.00    -0.282 N 
ATOM     31  H   UNL     1       1.524   1.584   4.441  0.00  0.00    +0.155 HD
BRANCH  30  32
ATOM     32  C   UNL     1       3.389   1.225   3.638  0.00  0.00    +0.034 A 
ATOM     33  C   UNL     1       3.977   0.333   2.751  0.00  0.00    +0.023 A 
ATOM     34  C   UNL     1       5.345   0.138   2.775  0.00  0.00    +0.002 A 
ATOM     35  C   UNL     1       6.126   0.823   3.687  0.00  0.00    +0.000 A 
ATOM     36  C   UNL     1       5.543   1.709   4.575  0.00  0.00    +0.002 A 
ATOM     37  C   UNL     1       4.177   1.911   4.553  0.00  0.00    +0.023 A 
ENDBRANCH  30  32
ENDBRANCH   3  28
TORSDOF 3
