REMARK  Name = ZINC39639086
REMARK  13 active torsions:
REMARK  status: ('A' for Active; 'I' for Inactive)
REMARK    1  A    between atoms: C_1  and  C_2
REMARK    2  A    between atoms: C_2  and  C_3
REMARK    3  A    between atoms: C_3  and  C_5
REMARK    4  A    between atoms: C_3  and  C_6
REMARK    5  A    between atoms: C_10  and  C_19
REMARK    6  A    between atoms: N_21  and  C_22
REMARK    7  A    between atoms: C_22  and  C_23
REMARK    8  A    between atoms: C_24  and  O_33
REMARK    9  A    between atoms: C_26  and  O_31
REMARK   10  A    between atoms: C_28  and  O_29
REMARK   11  A    between atoms: O_29  and  C_30
REMARK   12  A    between atoms: O_31  and  C_32
REMARK   13  A    between atoms: O_33  and  C_34
REMARK                            x       y       z     vdW  Elec       q    Type
REMARK                         _______ _______ _______ _____ _____    ______ ____
ROOT
ATOM      1  C   UNL     1       0.786  -1.742  -1.383  0.00  0.00    +0.218 C 
ATOM      2  O   UNL     1       0.288  -2.273  -0.412  0.00  0.00    -0.275 OA
ATOM      3  N   UNL     1       1.403  -2.491  -2.318  0.00  0.00    -0.300 N 
ATOM      4  C   UNL     1       2.069  -2.029  -3.558  0.00  0.00    +0.121 C 
ATOM      5  C   UNL     1       3.329  -2.915  -3.678  0.00  0.00    +0.100 C 
ATOM      6  C   UNL     1       2.993  -4.185  -2.878  0.00  0.00    -0.004 C 
ATOM      7  C   UNL     1       1.574  -3.964  -2.335  0.00  0.00    +0.115 C 
ATOM      8  C   UNL     1       3.974  -4.354  -1.721  0.00  0.00    -0.010 C 
ATOM      9  C   UNL     1       3.655  -5.653  -0.974  0.00  0.00    -0.082 C 
ATOM     10  N   UNL     1       3.756  -6.788  -1.899  0.00  0.00    +0.379 N 
ATOM     11  C   UNL     1       2.747  -6.664  -2.958  0.00  0.00    -0.082 C 
ATOM     12  C   UNL     1       3.028  -5.409  -3.788  0.00  0.00    -0.010 C 
ATOM     13  H   UNL     1       4.676  -6.802  -2.313  0.00  0.00    -0.086 HD
ATOM     14  H   UNL     1       3.606  -7.648  -1.392  0.00  0.00    -0.086 HD
ENDROOT
BRANCH   5  15
ATOM     15  C   UNL     1       4.522  -2.216  -3.081  0.00  0.00    +0.218 C 
ATOM     16  O   UNL     1       4.372  -1.437  -2.163  0.00  0.00    -0.275 OA
ATOM     17  N   UNL     1       5.757  -2.455  -3.566  0.00  0.00    -0.311 N 
ATOM     18  H   UNL     1       5.877  -3.078  -4.300  0.00  0.00    +0.149 HD
BRANCH  17  19
ATOM     19  C   UNL     1       6.917  -1.775  -2.986  0.00  0.00    +0.147 C 
BRANCH  19  20
ATOM     20  C   UNL     1       8.168  -2.214  -3.703  0.00  0.00    +0.053 A 
ATOM     21  C   UNL     1       8.874  -3.318  -3.251  0.00  0.00    +0.132 A 
ATOM     22  C   UNL     1      10.025  -3.722  -3.911  0.00  0.00    +0.091 A 
ATOM     23  C   UNL     1      10.469  -3.022  -5.022  0.00  0.00    +0.127 A 
ATOM     24  C   UNL     1       9.762  -1.918  -5.475  0.00  0.00    +0.091 A 
ATOM     25  C   UNL     1       8.609  -1.517  -4.817  0.00  0.00    +0.132 A 
BRANCH  25  26
ATOM     26  O   UNL     1       7.913  -0.438  -5.263  0.00  0.00    -0.495 OA
ATOM     27  C   UNL     1       8.425   0.233  -6.417  0.00  0.00    +0.277 C 
ENDBRANCH  25  26
BRANCH  23  28
ATOM     28  O   UNL     1      11.597  -3.418  -5.668  0.00  0.00    -0.495 OA
ATOM     29  C   UNL     1      11.996  -2.650  -6.806  0.00  0.00    +0.277 C 
ENDBRANCH  23  28
BRANCH  21  30
ATOM     30  O   UNL     1       8.439  -4.005  -2.162  0.00  0.00    -0.495 OA
ATOM     31  C   UNL     1       9.216  -5.132  -1.752  0.00  0.00    +0.277 C 
ENDBRANCH  21  30
ENDBRANCH  19  20
ENDBRANCH  17  19
ENDBRANCH   5  15
BRANCH   1  32
ATOM     32  C   UNL     1       0.714  -0.246  -1.543  0.00  0.00    +0.072 C 
ATOM     33  C   UNL     1      -0.029   0.093  -2.837  0.00  0.00    +0.017 C 
BRANCH  32  35
ATOM     34  C   UNL     1       0.001   1.886  -0.451  0.00  0.00    +0.004 C 
ATOM     35  C   UNL     1      -0.033   0.359  -0.353  0.00  0.00    +0.009 C 
ENDBRANCH  32  35
ENDBRANCH   1  32
TORSDOF 8
