REMARK  Name = ZINC46569458
REMARK  12 active torsions:
REMARK  status: ('A' for Active; 'I' for Inactive)
REMARK    1  A    between atoms: C_1  and  C_2
REMARK    2  A    between atoms: C_2  and  C_3
REMARK    3  A    between atoms: C_3  and  N_4
REMARK    4  A    between atoms: C_5  and  N_30
REMARK    5  A    between atoms: C_6  and  C_13
REMARK    6  A    between atoms: N_9  and  C_12
REMARK    7  A    between atoms: C_13  and  C_15
REMARK    8  A    between atoms: C_15  and  N_16
REMARK    9  A    between atoms: N_16  and  C_17
REMARK   10  A    between atoms: N_16  and  C_27
REMARK   11  A    between atoms: C_17  and  C_18
REMARK   12  A    between atoms: C_21  and  C_24
REMARK                            x       y       z     vdW  Elec       q    Type
REMARK                         _______ _______ _______ _____ _____    ______ ____
ROOT
ATOM      1  C   UNL     1      -1.510  -6.208  -2.261  0.00  0.00    +0.003 C 
ENDROOT
BRANCH   1   2
ATOM      2  C   UNL     1      -1.581  -4.704  -2.325  0.00  0.00    +0.155 C 
ATOM      3  O   UNL     1      -1.630  -4.144  -3.401  0.00  0.00    -0.294 OA
BRANCH   2   6
ATOM      4  N   UNL     1      -1.776  -1.864   0.017  0.00  0.00    -0.281 N 
ATOM      5  C   UNL     1      -1.773  -2.554  -1.162  0.00  0.00    +0.116 A 
ATOM      6  C   UNL     1      -1.592  -3.947  -1.134  0.00  0.00    +0.118 A 
ATOM      7  C   UNL     1      -1.413  -4.590   0.175  0.00  0.00    +0.269 A 
ATOM      8  O   UNL     1      -1.252  -5.794   0.259  0.00  0.00    -0.267 OA
ATOM      9  N   UNL     1      -1.432  -3.819   1.281  0.00  0.00    -0.263 N 
ATOM     10  C   UNL     1      -1.605  -2.490   1.192  0.00  0.00    +0.333 A 
ATOM     11  O   UNL     1      -1.610  -1.831   2.213  0.00  0.00    -0.246 OA
ATOM     12  C   UNL     1      -1.256  -4.439   2.597  0.00  0.00    +0.157 C 
BRANCH   5  13
ATOM     13  N   UNL     1      -1.944  -1.902  -2.344  0.00  0.00    -0.344 N 
ATOM     14  H   UNL     1      -2.147  -0.954  -2.350  0.00  0.00    +0.144 HD
ATOM     15  H   UNL     1      -1.861  -2.386  -3.181  0.00  0.00    +0.144 HD
ENDBRANCH   5  13
BRANCH   4  16
ATOM     16  C   UNL     1      -1.964  -0.411  -0.001  0.00  0.00    +0.128 C 
BRANCH  16  18
ATOM     17  C   UNL     1      -0.799   1.795  -0.138  0.00  0.00    +0.005 C 
ATOM     18  C   UNL     1      -0.603   0.278  -0.118  0.00  0.00    +0.018 C 
ENDBRANCH  16  18
ENDBRANCH   4  16
ENDBRANCH   2   6
ENDBRANCH   1   2
BRANCH   1  19
ATOM     19  N   UNL     1      -1.383  -6.751  -3.620  0.00  0.00    +0.389 N 
ATOM     20  H   UNL     1      -2.123  -6.384  -4.199  0.00  0.00    -0.080 HD
BRANCH  19  21
ATOM     21  C   UNL     1      -1.478  -8.216  -3.574  0.00  0.00    -0.068 C 
ATOM     22  C   UNL     1      -2.388  -8.897  -4.597  0.00  0.00    -0.017 C 
ATOM     23  C   UNL     1      -2.809  -8.823  -3.128  0.00  0.00    -0.017 C 
ENDBRANCH  19  21
BRANCH  19  24
ATOM     24  C   UNL     1      -0.082  -6.362  -4.182  0.00  0.00    -0.042 C 
BRANCH  24  25
ATOM     25  C   UNL     1      -0.001  -6.813  -5.618  0.00  0.00    -0.064 A 
ATOM     26  C   UNL     1       0.498  -8.068  -5.918  0.00  0.00    +0.002 A 
ATOM     27  C   UNL     1       0.575  -8.486  -7.231  0.00  0.00    +0.013 A 
ATOM     28  C   UNL     1       0.149  -7.640  -8.256  0.00  0.00    +0.037 A 
ATOM     29  C   UNL     1      -0.352  -6.375  -7.946  0.00  0.00    +0.013 A 
ATOM     30  C   UNL     1      -0.429  -5.971  -6.629  0.00  0.00    +0.002 A 
BRANCH  28  31
ATOM     31  C   UNL     1       0.230  -8.082  -9.665  0.00  0.00    +0.242 C 
ATOM     32  O   UNL     1       0.668  -9.184  -9.932  0.00  0.00    -0.270 OA
ATOM     33  N   UNL     1      -0.182  -7.263 -10.652  0.00  0.00    -0.325 N 
ATOM     34  H   UNL     1      -0.531  -6.384 -10.439  0.00  0.00    +0.145 HD
ATOM     35  H   UNL     1      -0.129  -7.553 -11.577  0.00  0.00    +0.145 HD
ENDBRANCH  28  31
ENDBRANCH  24  25
ENDBRANCH  19  24
ENDBRANCH   1  19
TORSDOF 10
