REMARK  Name = ZINC46560491
REMARK  13 active torsions:
REMARK  status: ('A' for Active; 'I' for Inactive)
REMARK    1  A    between atoms: C_1  and  C_2
REMARK    2  A    between atoms: C_2  and  C_3
REMARK    3  A    between atoms: C_8  and  N_9
REMARK    4  A    between atoms: C_10  and  C_12
REMARK    5  A    between atoms: C_12  and  N_13
REMARK    6  A    between atoms: N_13  and  C_14
REMARK    7  A    between atoms: N_13  and  C_15
REMARK    8  A    between atoms: C_15  and  C_17
REMARK    9  A    between atoms: C_15  and  C_23
REMARK   10  A    between atoms: N_25  and  C_26
REMARK   11  A    between atoms: C_31  and  O_32
REMARK   12  A    between atoms: O_32  and  C_33
REMARK   13  A    between atoms: C_33  and  C_34
REMARK                            x       y       z     vdW  Elec       q    Type
REMARK                         _______ _______ _______ _____ _____    ______ ____
ROOT
ATOM      1  C   UNL     1       7.148  -0.136   2.132  0.00  0.00    +0.051 C 
ENDROOT
BRANCH   1   2
ATOM      2  C   UNL     1       7.078   1.366   2.229  0.00  0.00    -0.052 A 
ATOM      3  C   UNL     1       7.111   2.135   1.081  0.00  0.00    +0.002 A 
ATOM      4  C   UNL     1       7.047   3.514   1.170  0.00  0.00    +0.000 A 
ATOM      5  C   UNL     1       6.949   4.122   2.408  0.00  0.00    +0.000 A 
ATOM      6  C   UNL     1       6.915   3.353   3.556  0.00  0.00    +0.000 A 
ATOM      7  C   UNL     1       6.975   1.975   3.466  0.00  0.00    +0.002 A 
ENDBRANCH   1   2
BRANCH   1   8
ATOM      8  C   UNL     1       8.582  -0.561   1.941  0.00  0.00    +0.208 C 
ATOM      9  O   UNL     1       8.950  -0.984   0.866  0.00  0.00    -0.277 OA
ATOM     10  N   UNL     1       9.453  -0.470   2.965  0.00  0.00    -0.284 N 
ATOM     11  H   UNL     1       9.144  -0.199   3.843  0.00  0.00    +0.155 HD
BRANCH  10  12
ATOM     12  C   UNL     1      10.807  -0.768   2.761  0.00  0.00    +0.076 A 
ATOM     13  C   UNL     1      11.404  -0.488   1.540  0.00  0.00    +0.027 A 
ATOM     14  C   UNL     1      12.740  -0.782   1.341  0.00  0.00    +0.002 A 
ATOM     15  C   UNL     1      13.484  -1.356   2.356  0.00  0.00    +0.004 A 
ATOM     16  C   UNL     1      12.896  -1.637   3.575  0.00  0.00    +0.047 A 
ATOM     17  C   UNL     1      11.559  -1.340   3.784  0.00  0.00    +0.142 A 
BRANCH  17  18
ATOM     18  O   UNL     1      10.980  -1.611   4.985  0.00  0.00    -0.490 OA
BRANCH  18  19
ATOM     19  C   UNL     1      11.812  -2.198   5.988  0.00  0.00    +0.226 C 
ATOM     20  C   UNL     1      10.992  -2.429   7.259  0.00  0.00    +0.048 C 
ENDBRANCH  18  19
ENDBRANCH  17  18
ENDBRANCH  10  12
ENDBRANCH   1   8
BRANCH   1  21
ATOM     21  N   UNL     1       6.346  -0.591   0.989  0.00  0.00    +0.394 N 
ATOM     22  C   UNL     1       6.300  -2.059   0.976  0.00  0.00    -0.094 C 
ATOM     23  H   UNL     1       6.764  -0.260   0.132  0.00  0.00    -0.080 HD
BRANCH  21  24
ATOM     24  C   UNL     1       4.982  -0.059   1.105  0.00  0.00    +0.020 C 
BRANCH  24  26
ATOM     25  N   UNL     1       2.908  -0.037  -0.242  0.00  0.00    -0.287 N 
ATOM     26  C   UNL     1       4.194  -0.422  -0.127  0.00  0.00    +0.201 C 
ATOM     27  O   UNL     1       4.718  -1.061  -1.015  0.00  0.00    -0.278 OA
ATOM     28  H   UNL     1       2.508   0.528   0.437  0.00  0.00    +0.155 HD
BRANCH  25  34
ATOM     29  C   UNL     1       0.794  -0.716  -1.194  0.00  0.00    -0.026 A 
ATOM     30  C   UNL     1       0.047  -1.119  -2.283  0.00  0.00    +0.005 A 
ATOM     31  C   UNL     1       0.648  -1.266  -3.520  0.00  0.00    +0.000 A 
ATOM     32  C   UNL     1       1.999  -1.009  -3.670  0.00  0.00    +0.002 A 
ATOM     33  C   UNL     1       2.751  -0.605  -2.585  0.00  0.00    +0.023 A 
ATOM     34  C   UNL     1       2.149  -0.452  -1.343  0.00  0.00    +0.036 A 
BRANCH  29  36
ATOM     35  C   UNL     1      -0.275   0.904   0.350  0.00  0.00    +0.009 C 
ATOM     36  C   UNL     1       0.138  -0.556   0.153  0.00  0.00    +0.033 C 
ENDBRANCH  29  36
ENDBRANCH  25  34
ENDBRANCH  24  26
ENDBRANCH  21  24
ENDBRANCH   1  21
TORSDOF 10
