REMARK  Name = ZINC41780096
REMARK  5 active torsions:
REMARK  status: ('A' for Active; 'I' for Inactive)
REMARK    1  A    between atoms: C_1  and  C_2
REMARK    2  A    between atoms: C_4  and  C_5
REMARK    3  A    between atoms: C_13  and  C_15
REMARK    4  A    between atoms: C_15  and  C_16
REMARK    5  A    between atoms: C_15  and  C_17
REMARK                            x       y       z     vdW  Elec       q    Type
REMARK                         _______ _______ _______ _____ _____    ______ ____
ROOT
ATOM      1  C   UNL     1       0.662   0.556   3.622  0.00  0.00    +0.219 C 
ATOM      2  O   UNL     1       0.665   1.769   3.596  0.00  0.00    -0.275 OA
ATOM      3  N   UNL     1       1.545  -0.103   4.398  0.00  0.00    -0.298 N 
ATOM      4  C   UNL     1       1.556  -1.572   4.435  0.00  0.00    +0.126 C 
ATOM      5  C   UNL     1       2.968  -2.061   4.086  0.00  0.00    +0.126 C 
ATOM      6  N   UNL     1       3.937  -1.324   4.910  0.00  0.00    -0.298 N 
ATOM      7  C   UNL     1       3.925   0.145   4.873  0.00  0.00    +0.126 C 
ATOM      8  C   UNL     1       2.517   0.633   5.217  0.00  0.00    +0.126 C 
ATOM      9  C   UNL     1       4.819  -1.984   5.685  0.00  0.00    +0.218 C 
ATOM     10  O   UNL     1       5.673  -1.369   6.290  0.00  0.00    -0.275 OA
ENDROOT
BRANCH   1  14
ATOM     11  C   UNL     1      -1.200   2.119   1.982  0.00  0.00    +0.008 C 
ATOM     12  C   UNL     1      -1.305   0.594   1.928  0.00  0.00    -0.002 C 
ATOM     13  C   UNL     1      -1.805  -0.124   3.183  0.00  0.00    +0.017 C 
ATOM     14  C   UNL     1      -0.329  -0.212   2.787  0.00  0.00    +0.078 C 
ENDBRANCH   1  14
BRANCH   9  15
ATOM     15  C   UNL     1       4.745  -3.484   5.802  0.00  0.00    +0.069 C 
ATOM     16  C   UNL     1       5.514  -4.124   4.645  0.00  0.00    +0.017 C 
ATOM     17  C   UNL     1       5.364  -3.923   7.131  0.00  0.00    +0.017 C 
ENDBRANCH   9  15
TORSDOF 2
