REMARK  Name = ZINC22623279
REMARK  11 active torsions:
REMARK  status: ('A' for Active; 'I' for Inactive)
REMARK    1  A    between atoms: C_1  and  C_2
REMARK    2  A    between atoms: C_2  and  C_3
REMARK    3  A    between atoms: C_2  and  N_4
REMARK    4  A    between atoms: N_4  and  C_5
REMARK    5  A    between atoms: N_4  and  C_23
REMARK    6  A    between atoms: C_5  and  C_6
REMARK    7  A    between atoms: C_6  and  N_7
REMARK    8  A    between atoms: C_8  and  C_10
REMARK    9  A    between atoms: N_16  and  C_17
REMARK   10  A    between atoms: C_23  and  C_24
REMARK   11  A    between atoms: C_23  and  C_25
REMARK                            x       y       z     vdW  Elec       q    Type
REMARK                         _______ _______ _______ _____ _____    ______ ____
ROOT
ATOM      1  N   UNL     1      -4.068  -0.086  -1.836  0.00  0.00    -0.312 N 
ATOM      2  C   UNL     1      -3.122  -0.585  -2.656  0.00  0.00    +0.262 C 
ATOM      3  O   UNL     1      -3.084  -1.779  -2.885  0.00  0.00    -0.269 OA
ATOM      4  H   UNL     1      -4.160   1.002  -1.699  0.00  0.00    +0.149 HD
ENDROOT
BRANCH   2   5
ATOM      5  C   UNL     1      -2.139   0.312  -3.272  0.00  0.00    +0.127 A 
ATOM      6  C   UNL     1      -1.067  -0.058  -4.008  0.00  0.00    +0.116 A 
ATOM      7  N   UNL     1      -0.409   1.080  -4.393  0.00  0.00    -0.339 N 
ATOM      8  H   UNL     1       0.501   1.008  -5.007  0.00  0.00    +0.167 HD
ATOM      9  C   UNL     1      -1.065   2.147  -3.901  0.00  0.00    +0.163 A 
ATOM     10  S   UNL     1      -0.618   3.785  -4.120  0.00  0.00    -0.013 S 
ATOM     11  N   UNL     1      -2.134   1.709  -3.206  0.00  0.00    -0.284 N 
BRANCH  11  12
ATOM     12  C   UNL     1      -3.073   2.509  -2.543  0.00  0.00    +0.049 A 
ATOM     13  C   UNL     1      -4.332   2.707  -3.095  0.00  0.00    +0.026 A 
ATOM     14  C   UNL     1      -5.258   3.492  -2.437  0.00  0.00    +0.002 A 
ATOM     15  C   UNL     1      -4.928   4.090  -1.234  0.00  0.00    +0.000 A 
ATOM     16  C   UNL     1      -3.674   3.900  -0.684  0.00  0.00    +0.002 A 
ATOM     17  C   UNL     1      -2.746   3.111  -1.335  0.00  0.00    +0.026 A 
ENDBRANCH  11  12
ENDBRANCH   2   5
BRANCH   1  18
ATOM     18  C   UNL     1      -4.975  -0.992  -1.127  0.00  0.00    +0.086 C 
BRANCH  18  19
ATOM     19  C   UNL     1      -5.945  -0.176  -0.270  0.00  0.00    -0.059 C 
BRANCH  19  20
ATOM     20  N   UNL     1      -6.947  -1.072   0.323  0.00  0.00    +0.384 N 
ATOM     21  H   UNL     1      -7.274  -1.776  -0.456  0.00  0.00    -0.081 HD
BRANCH  20  23
ATOM     22  C   UNL     1      -5.755  -3.140   0.869  0.00  0.00    -0.014 C 
ATOM     23  C   UNL     1      -6.368  -1.853   1.424  0.00  0.00    -0.074 C 
ATOM     24  C   UNL     1      -5.282  -1.030   2.119  0.00  0.00    -0.014 C 
ENDBRANCH  20  23
BRANCH  20  25
ATOM     25  C   UNL     1      -8.124  -0.319   0.775  0.00  0.00    -0.074 C 
ATOM     26  C   UNL     1      -9.260  -1.292   1.096  0.00  0.00    -0.014 C 
ATOM     27  C   UNL     1      -7.768   0.481   2.029  0.00  0.00    -0.014 C 
ENDBRANCH  20  25
ENDBRANCH  19  20
ENDBRANCH  18  19
ENDBRANCH   1  18
TORSDOF 7
