REMARK  Name = ZINC21783259
REMARK  5 active torsions:
REMARK  status: ('A' for Active; 'I' for Inactive)
REMARK    1  A    between atoms: N_9  and  C_11
REMARK    2  A    between atoms: C_11  and  C_12
REMARK    3  A    between atoms: C_12  and  N_13
REMARK    4  A    between atoms: N_16  and  C_17
REMARK    5  A    between atoms: C_22  and  C_23
REMARK                            x       y       z     vdW  Elec       q    Type
REMARK                         _______ _______ _______ _____ _____    ______ ____
ROOT
ATOM      1  N   UNL     1      -1.665   5.768  -3.545  0.00  0.00    -0.301 N 
ATOM      2  C   UNL     1      -1.714   7.109  -3.673  0.00  0.00    +0.304 C 
ATOM      3  O   UNL     1      -1.439   7.821  -2.726  0.00  0.00    -0.253 OA
ATOM      4  N   UNL     1      -2.067   7.661  -4.851  0.00  0.00    -0.269 N 
ATOM      5  H   UNL     1      -1.913   5.125  -4.402  0.00  0.00    +0.150 HD
ATOM      6  H   UNL     1      -2.243   7.021  -5.728  0.00  0.00    +0.156 HD
ENDROOT
BRANCH   4   7
ATOM      7  C   UNL     1      -2.209   9.049  -4.958  0.00  0.00    +0.046 A 
ATOM      8  C   UNL     1      -1.379   9.892  -4.231  0.00  0.00    +0.024 A 
ATOM      9  C   UNL     1      -1.519  11.262  -4.343  0.00  0.00    +0.002 A 
ATOM     10  C   UNL     1      -2.492  11.793  -5.170  0.00  0.00    +0.001 A 
ATOM     11  C   UNL     1      -3.324  10.957  -5.891  0.00  0.00    +0.014 A 
ATOM     12  C   UNL     1      -3.185   9.586  -5.787  0.00  0.00    +0.076 A 
BRANCH  12  13
ATOM     13  C   UNL     1      -4.093   8.675  -6.573  0.00  0.00    +0.419 C 
ATOM     14  F   UNL     1      -4.985   9.443  -7.329  0.00  0.00    -0.166 F 
ATOM     15  F   UNL     1      -3.325   7.877  -7.428  0.00  0.00    -0.166 F 
ATOM     16  F   UNL     1      -4.810   7.859  -5.692  0.00  0.00    -0.166 F 
ENDBRANCH  12  13
ENDBRANCH   4   7
BRANCH   1  17
ATOM     17  C   UNL     1      -1.281   5.168  -2.265  0.00  0.00    +0.087 C 
BRANCH  17  18
ATOM     18  C   UNL     1      -1.305   3.644  -2.389  0.00  0.00    -0.059 C 
BRANCH  18  27
ATOM     19  C   UNL     1      -0.993   1.354   3.607  0.00  0.00    +0.000 A 
ATOM     20  C   UNL     1      -1.907   2.390   3.572  0.00  0.00    +0.000 A 
ATOM     21  C   UNL     1      -2.195   3.010   2.378  0.00  0.00    +0.002 A 
ATOM     22  C   UNL     1      -1.576   2.600   1.206  0.00  0.00    -0.061 A 
ATOM     23  C   UNL     1      -0.664   1.569   1.239  0.00  0.00    -0.048 A 
ATOM     24  C   UNL     1      -0.373   0.946   2.443  0.00  0.00    +0.004 A 
ATOM     25  C   UNL     1       0.040   1.092  -0.006  0.00  0.00    +0.017 C 
ATOM     26  C   UNL     1      -0.701   1.594  -1.246  0.00  0.00    -0.074 C 
ATOM     27  N   UNL     1      -0.920   3.042  -1.105  0.00  0.00    +0.384 N 
ATOM     28  C   UNL     1      -1.932   3.305  -0.077  0.00  0.00    -0.043 C 
ATOM     29  H   UNL     1       0.024   3.510  -0.787  0.00  0.00    -0.081 HD
ENDBRANCH  18  27
ENDBRANCH  17  18
ENDBRANCH   1  17
TORSDOF 5
