REMARK  Name = ZINC07689249
REMARK  7 active torsions:
REMARK  status: ('A' for Active; 'I' for Inactive)
REMARK    1  A    between atoms: C_1  and  N_47
REMARK    2  A    between atoms: C_2  and  C_3
REMARK    3  A    between atoms: C_2  and  N_47
REMARK    4  A    between atoms: C_12  and  C_13
REMARK    5  A    between atoms: C_12  and  N_47
REMARK    6  A    between atoms: N_15  and  C_16
REMARK    7  A    between atoms: C_17  and  C_24
REMARK                            x       y       z     vdW  Elec       q    Type
REMARK                         _______ _______ _______ _____ _____    ______ ____
ROOT
ATOM      1  C   UNL     1      -1.864   9.654  -2.788  0.00  0.00    +0.201 C 
ATOM      2  O   UNL     1      -1.704   8.853  -3.684  0.00  0.00    -0.278 OA
ATOM      3  N   UNL     1      -1.937  10.971  -3.066  0.00  0.00    -0.281 N 
ATOM      4  H   UNL     1      -2.065  11.612  -2.350  0.00  0.00    +0.155 HD
ENDROOT
BRANCH   3   5
ATOM      5  C   UNL     1      -1.830  11.409  -4.378  0.00  0.00    +0.084 A 
ATOM      6  C   UNL     1      -1.885  12.706  -4.859  0.00  0.00    +0.068 A 
ATOM      7  C   UNL     1      -1.739  12.900  -6.301  0.00  0.00    -0.023 A 
ATOM      8  C   UNL     1      -1.573  11.772  -7.015  0.00  0.00    -0.004 A 
ATOM      9  S   UNL     1      -1.601  10.467  -5.811  0.00  0.00    -0.077 S 
ATOM     10  C   UNL     1      -1.433  12.052  -8.487  0.00  0.00    +0.043 C 
ATOM     11  C   UNL     1      -1.101  13.559  -8.567  0.00  0.00    +0.010 C 
ATOM     12  C   UNL     1      -1.731  14.089  -7.263  0.00  0.00    +0.037 C 
BRANCH   6  13
ATOM     13  C   UNL     1      -2.080  13.844  -3.955  0.00  0.00    +0.244 C 
ATOM     14  O   UNL     1      -1.116  14.404  -3.465  0.00  0.00    -0.270 OA
ATOM     15  N   UNL     1      -3.325  14.270  -3.666  0.00  0.00    -0.325 N 
ATOM     16  H   UNL     1      -4.093  13.824  -4.056  0.00  0.00    +0.145 HD
ATOM     17  H   UNL     1      -3.454  15.023  -3.067  0.00  0.00    +0.145 HD
ENDBRANCH   6  13
ENDBRANCH   3   5
BRANCH   1  18
ATOM     18  C   UNL     1      -1.980   9.178  -1.363  0.00  0.00    +0.019 C 
BRANCH  18  20
ATOM     19  C   UNL     1      -3.011   7.082  -1.999  0.00  0.00    -0.095 C 
ATOM     20  N   UNL     1      -1.845   7.707  -1.339  0.00  0.00    +0.388 N 
ATOM     21  H   UNL     1      -0.993   7.441  -1.847  0.00  0.00    -0.081 HD
BRANCH  20  22
ATOM     22  C   UNL     1      -1.740   7.231   0.057  0.00  0.00    -0.015 C 
BRANCH  22  23
ATOM     23  C   UNL     1      -1.385   5.767   0.046  0.00  0.00    +0.063 A 
ATOM     24  N   UNL     1      -0.201   5.223   0.032  0.00  0.00    -0.246 NA
ATOM     25  C   UNL     1      -0.017   3.886   0.023  0.00  0.00    +0.078 A 
ATOM     26  C   UNL     1       1.190   3.152   0.007  0.00  0.00    +0.029 A 
ATOM     27  C   UNL     1       1.176   1.792   0.001  0.00  0.00    +0.002 A 
ATOM     28  C   UNL     1      -0.013   1.076   0.008  0.00  0.00    +0.001 A 
ATOM     29  C   UNL     1      -1.215   1.757   0.017  0.00  0.00    +0.017 A 
ATOM     30  C   UNL     1      -1.212   3.130   0.030  0.00  0.00    +0.039 A 
ATOM     31  S   UNL     1      -2.454   4.399   0.049  0.00  0.00    -0.074 S 
ENDBRANCH  22  23
ENDBRANCH  20  22
ENDBRANCH  18  20
ENDBRANCH   1  18
TORSDOF 6
