REMARK  Name = ZINC03841142
REMARK  4 active torsions:
REMARK  status: ('A' for Active; 'I' for Inactive)
REMARK    1  A    between atoms: C_6  and  C_7
REMARK    2  A    between atoms: C_7  and  CA_8
REMARK    3  A    between atoms: C_15  and  N_23
REMARK    4  A    between atoms: C_24  and  C_26
REMARK                            x       y       z     vdW  Elec       q    Type
REMARK                         _______ _______ _______ _____ _____    ______ ____
ROOT
ATOM      1  CA  UNL     1      -1.316   1.983   0.019  0.00  0.00    +0.163 C 
ATOM      2  C   UNL     1      -0.014   1.209   0.009  0.00  0.00    +0.237 C 
ATOM      3  O   UNL     1       0.002  -0.004   0.002  0.00  0.00    -0.274 OA
ATOM      4  N   UNL     1       1.142   1.940   0.002  0.00  0.00    -0.288 N 
ATOM      5  C   UNL     1       2.405   1.226  -0.120  0.00  0.00    +0.110 C 
ATOM      6  C   UNL     1       3.587   2.139   0.205  0.00  0.00    +0.041 C 
ATOM      7  C   UNL     1       3.414   3.430  -0.609  0.00  0.00    +0.077 C 
ATOM      8  C   UNL     1       2.247   4.207  -0.002  0.00  0.00    +0.054 C 
ATOM      9  CA  UNL     1       0.993   3.381   0.075  0.00  0.00    +0.164 C 
ATOM     10  C   UNL     1      -0.056   3.823  -0.917  0.00  0.00    +0.234 C 
ATOM     11  O   UNL     1       0.116   4.773  -1.651  0.00  0.00    -0.274 OA
ATOM     12  N   UNL     1      -1.208   3.093  -0.939  0.00  0.00    -0.302 N 
ATOM     13  H   UNL     1      -1.924   3.295  -1.562  0.00  0.00    +0.150 HD
ENDROOT
BRANCH   7  14
ATOM     14  N   UNL     1       4.638   4.232  -0.535  0.00  0.00    -0.314 N 
ATOM     15  C   UNL     1       5.654   3.990  -1.387  0.00  0.00    +0.200 C 
ATOM     16  O   UNL     1       5.555   3.108  -2.213  0.00  0.00    -0.278 OA
ATOM     17  H   UNL     1       4.717   4.937   0.126  0.00  0.00    +0.149 HD
BRANCH  15  18
ATOM     18  C   UNL     1       6.913   4.814  -1.311  0.00  0.00    +0.027 C 
ATOM     19  C   UNL     1       6.674   6.181  -2.005  0.00  0.00    +0.060 C 
ATOM     20  S   UNL     1       8.354   6.543  -2.670  0.00  0.00    -0.181 S 
ATOM     21  C   UNL     1       9.193   4.988  -2.142  0.00  0.00    -0.011 C 
ATOM     22  N   UNL     1       8.012   4.085  -1.977  0.00  0.00    +0.393 N 
ATOM     23  H   UNL     1       7.697   3.763  -2.899  0.00  0.00    -0.084 HD
ATOM     24  H   UNL     1       8.279   3.275  -1.404  0.00  0.00    -0.084 HD
ENDBRANCH  15  18
ENDBRANCH   7  14
BRANCH   1  25
ATOM     25  C   UNL     1      -2.467   1.061  -0.389  0.00  0.00    +0.067 C 
BRANCH  25  31
ATOM     26  C   UNL     1      -4.475   1.760   0.931  0.00  0.00    +0.006 A 
ATOM     27  C   UNL     1      -5.671   2.443   1.053  0.00  0.00    +0.038 A 
ATOM     28  C   UNL     1      -6.171   3.159  -0.021  0.00  0.00    +0.123 A 
ATOM     29  C   UNL     1      -5.470   3.196  -1.214  0.00  0.00    +0.038 A 
ATOM     30  C   UNL     1      -4.272   2.517  -1.332  0.00  0.00    +0.006 A 
ATOM     31  C   UNL     1      -3.773   1.802  -0.259  0.00  0.00    -0.045 A 
ATOM     32  F   UNL     1      -7.342   3.823   0.095  0.00  0.00    -0.205 F 
ENDBRANCH  25  31
ENDBRANCH   1  25
TORSDOF 4
