REMARK  Name = ZINC35051130
REMARK  12 active torsions:
REMARK  status: ('A' for Active; 'I' for Inactive)
REMARK    1  A    between atoms: C_1  and  C_2
REMARK    2  A    between atoms: C_2  and  C_4
REMARK    3  A    between atoms: C_2  and  N_22
REMARK    4  A    between atoms: C_11  and  C_18
REMARK    5  A    between atoms: C_13  and  O_14
REMARK    6  A    between atoms: C_23  and  C_25
REMARK    7  A    between atoms: C_25  and  C_27
REMARK    8  A    between atoms: C_25  and  N_32
REMARK    9  A    between atoms: C_27  and  C_28
REMARK   10  A    between atoms: C_28  and  C_29
REMARK   11  A    between atoms: C_29  and  C_30
REMARK   12  A    between atoms: C_30  and  N_31
REMARK                            x       y       z     vdW  Elec       q    Type
REMARK                         _______ _______ _______ _____ _____    ______ ____
ROOT
ATOM      1  C   UNL     1       1.540  -1.194   0.585  0.00  0.00    +0.237 C 
ATOM      2  O   UNL     1       0.870  -1.861   1.354  0.00  0.00    -0.273 OA
ATOM      3  N   UNL     1       2.648  -0.617   1.007  0.00  0.00    -0.284 N 
ATOM      4  C   UNL     1       3.115  -0.872   2.260  0.00  0.00    +0.037 A 
ATOM      5  C   UNL     1       4.068  -0.016   2.839  0.00  0.00    +0.024 A 
ATOM      6  C   UNL     1       4.540  -0.259   4.090  0.00  0.00    +0.014 A 
ATOM      7  C   UNL     1       4.076  -1.373   4.811  0.00  0.00    +0.029 A 
ATOM      8  C   UNL     1       4.554  -1.643   6.111  0.00  0.00    +0.072 A 
ATOM      9  C   UNL     1       4.066  -2.750   6.776  0.00  0.00    +0.100 A 
ATOM     10  C   UNL     1       3.127  -3.567   6.164  0.00  0.00    +0.285 A 
ATOM     11  O   UNL     1       2.676  -3.308   4.932  0.00  0.00    -0.425 OA
ATOM     12  C   UNL     1       3.119  -2.240   4.237  0.00  0.00    +0.141 A 
ATOM     13  C   UNL     1       2.640  -1.979   2.965  0.00  0.00    +0.070 A 
ATOM     14  H   UNL     1       3.131  -0.010   0.424  0.00  0.00    +0.155 HD
ENDROOT
BRANCH   8  15
ATOM     15  C   UNL     1       5.576  -0.744   6.758  0.00  0.00    +0.418 C 
ATOM     16  F   UNL     1       4.955   0.433   7.189  0.00  0.00    -0.166 F 
ATOM     17  F   UNL     1       6.146  -1.399   7.854  0.00  0.00    -0.166 F 
ATOM     18  F   UNL     1       6.576  -0.431   5.830  0.00  0.00    -0.166 F 
ENDBRANCH   8  15
BRANCH   1  20
ATOM     19  C   UNL     1       0.883   0.454  -1.147  0.00  0.00    +0.038 C 
ATOM     20  C   UNL     1       1.103  -1.031  -0.848  0.00  0.00    +0.156 C 
BRANCH  20  21
ATOM     21  N   UNL     1      -0.147  -1.763  -1.063  0.00  0.00    -0.306 N 
ATOM     22  C   UNL     1      -0.472  -2.193  -2.299  0.00  0.00    +0.199 C 
ATOM     23  O   UNL     1       0.271  -1.974  -3.232  0.00  0.00    -0.278 OA
ATOM     24  H   UNL     1      -0.742  -1.938  -0.317  0.00  0.00    +0.149 HD
BRANCH  22  25
ATOM     25  C   UNL     1      -1.758  -2.946  -2.521  0.00  0.00    +0.013 C 
BRANCH  25  26
ATOM     26  N   UNL     1      -2.121  -2.886  -3.943  0.00  0.00    +0.386 N 
ATOM     27  H   UNL     1      -1.388  -3.304  -4.495  0.00  0.00    -0.089 HD
ATOM     28  H   UNL     1      -2.983  -3.390  -4.091  0.00  0.00    -0.089 HD
ATOM     29  H   UNL     1      -2.244  -1.923  -4.219  0.00  0.00    -0.089 HD
ENDBRANCH  25  26
BRANCH  25  30
ATOM     30  C   UNL     1      -1.573  -4.406  -2.103  0.00  0.00    -0.007 C 
BRANCH  30  31
ATOM     31  C   UNL     1      -2.911  -5.141  -2.210  0.00  0.00    -0.003 C 
BRANCH  31  32
ATOM     32  C   UNL     1      -2.726  -6.601  -1.792  0.00  0.00    -0.020 C 
BRANCH  32  33
ATOM     33  C   UNL     1      -4.063  -7.336  -1.899  0.00  0.00    -0.086 C 
BRANCH  33  34
ATOM     34  N   UNL     1      -3.886  -8.738  -1.497  0.00  0.00    +0.378 N 
ATOM     35  H   UNL     1      -3.210  -9.178  -2.104  0.00  0.00    -0.090 HD
ATOM     36  H   UNL     1      -3.557  -8.775  -0.544  0.00  0.00    -0.090 HD
ATOM     37  H   UNL     1      -4.768  -9.222  -1.568  0.00  0.00    -0.090 HD
ENDBRANCH  33  34
ENDBRANCH  32  33
ENDBRANCH  31  32
ENDBRANCH  30  31
ENDBRANCH  25  30
ENDBRANCH  22  25
ENDBRANCH  20  21
ENDBRANCH   1  20
BRANCH  10  38
ATOM     38  O   UNL     1       2.658  -4.643   6.824  0.00  0.00    -0.480 OA
ATOM     39  H   UNL     1       2.008  -5.157   6.327  0.00  0.00    +0.295 HD
ENDBRANCH  10  38
TORSDOF 11
