REMARK  Name = ZINC35982161
REMARK  4 active torsions:
REMARK  status: ('A' for Active; 'I' for Inactive)
REMARK    1  A    between atoms: C_1  and  C_2
REMARK    2  A    between atoms: C_5  and  S_8
REMARK    3  A    between atoms: S_8  and  N_11
REMARK    4  A    between atoms: N_14  and  C_17
REMARK                            x       y       z     vdW  Elec       q    Type
REMARK                         _______ _______ _______ _____ _____    ______ ____
ROOT
ATOM      1  S   UNL     1       0.063  -4.530  -0.023  0.00  0.00    +0.061 S 
ATOM      2  O   UNL     1      -0.476  -4.950   1.223  0.00  0.00    -0.153 OA
ATOM      3  O   UNL     1      -0.490  -4.937  -1.267  0.00  0.00    -0.153 OA
ENDROOT
BRANCH   1   8
ATOM      4  C   UNL     1      -0.018   1.503   0.010  0.00  0.00    +0.044 C 
ATOM      5  C   UNL     1       0.002  -0.004   0.002  0.00  0.00    -0.050 A 
ATOM      6  C   UNL     1       0.006  -0.689  -1.199  0.00  0.00    +0.005 A 
ATOM      7  C   UNL     1       0.025  -2.071  -1.206  0.00  0.00    +0.029 A 
ATOM      8  C   UNL     1       0.040  -2.768  -0.013  0.00  0.00    +0.105 A 
ATOM      9  C   UNL     1       0.037  -2.084   1.188  0.00  0.00    +0.029 A 
ATOM     10  C   UNL     1       0.023  -0.702   1.195  0.00  0.00    +0.005 A 
ENDBRANCH   1   8
BRANCH   1  11
ATOM     11  N   UNL     1       1.651  -4.999  -0.034  0.00  0.00    -0.174 NA
ATOM     12  C   UNL     1       2.370  -5.200  -1.302  0.00  0.00    +0.125 C 
ATOM     13  C   UNL     1       3.680  -4.408  -1.249  0.00  0.00    +0.101 C 
ATOM     14  N   UNL     1       4.429  -4.785  -0.044  0.00  0.00    -0.303 NA
ATOM     15  C   UNL     1       3.690  -4.432   1.176  0.00  0.00    +0.101 C 
ATOM     16  C   UNL     1       2.382  -5.220   1.223  0.00  0.00    +0.125 C 
ATOM     17  C   UNL     1       5.766  -4.177  -0.043  0.00  0.00    +0.105 C 
ENDBRANCH   1  11
TORSDOF 2
