REMARK  Name = ZINC36585005
REMARK  16 active torsions:
REMARK  status: ('A' for Active; 'I' for Inactive)
REMARK    1  A    between atoms: C_1  and  C_2
REMARK    2  A    between atoms: C_2  and  C_3
REMARK    3  A    between atoms: C_2  and  C_4
REMARK    4  A    between atoms: C_2  and  C_5
REMARK    5  A    between atoms: C_5  and  C_6
REMARK    6  A    between atoms: C_6  and  C_7
REMARK    7  A    between atoms: C_6  and  C_8
REMARK    8  A    between atoms: C_6  and  N_9
REMARK    9  A    between atoms: C_10  and  C_12
REMARK   10  A    between atoms: C_12  and  C_14
REMARK   11  A    between atoms: C_12  and  N_21
REMARK   12  A    between atoms: N_21  and  C_29
REMARK   13  A    between atoms: C_22  and  C_24
REMARK   14  A    between atoms: C_29  and  C_30
REMARK   15  A    between atoms: C_29  and  C_31
REMARK   16  A    between atoms: C_29  and  C_32
REMARK                            x       y       z     vdW  Elec       q    Type
REMARK                         _______ _______ _______ _____ _____    ______ ____
ROOT
ATOM      1  C   UNL     1       4.965   0.469  -4.530  0.00  0.00    +0.193 C 
ENDROOT
BRANCH   1   2
ATOM      2  C   UNL     1       4.663   0.997  -5.909  0.00  0.00    -0.018 A 
ATOM      3  C   UNL     1       5.472   1.969  -6.469  0.00  0.00    +0.007 A 
ATOM      4  C   UNL     1       5.196   2.454  -7.734  0.00  0.00    +0.020 A 
ATOM      5  C   UNL     1       4.110   1.966  -8.439  0.00  0.00    +0.041 A 
ATOM      6  C   UNL     1       3.301   0.994  -7.878  0.00  0.00    +0.020 A 
ATOM      7  C   UNL     1       3.581   0.506  -6.616  0.00  0.00    +0.007 A 
ATOM      8 CL   UNL     1       3.762   2.575 -10.027  0.00  0.00    -0.084 Cl
ENDBRANCH   1   2
BRANCH   1  10
ATOM      9  N   UNL     1       2.897   1.323  -3.476  0.00  0.00    -0.308 N 
ATOM     10  C   UNL     1       4.244   1.304  -3.504  0.00  0.00    +0.239 C 
ATOM     11  O   UNL     1       4.876   1.960  -2.703  0.00  0.00    -0.273 OA
ATOM     12  H   UNL     1       2.391   0.799  -4.117  0.00  0.00    +0.149 HD
BRANCH   9  13
ATOM     13  C   UNL     1       2.196   2.134  -2.478  0.00  0.00    +0.030 C 
ATOM     14  C   UNL     1       2.836   3.522  -2.408  0.00  0.00    +0.031 C 
ATOM     15  C   UNL     1       2.294   1.458  -1.109  0.00  0.00    +0.031 C 
BRANCH  13  16
ATOM     16  C   UNL     1       0.724   2.271  -2.874  0.00  0.00    +0.031 C 
BRANCH  16  18
ATOM     17  C   UNL     1       0.784   1.348  -5.195  0.00  0.00    +0.010 C 
ATOM     18  C   UNL     1       0.627   2.621  -4.361  0.00  0.00    -0.036 C 
ATOM     19  C   UNL     1       1.735   3.611  -4.726  0.00  0.00    +0.010 C 
ATOM     20  C   UNL     1      -0.737   3.253  -4.647  0.00  0.00    +0.010 C 
ENDBRANCH  16  18
ENDBRANCH  13  16
ENDBRANCH   9  13
ENDBRANCH   1  10
BRANCH   1  21
ATOM     21  N   UNL     1       6.408   0.535  -4.287  0.00  0.00    -0.274 N 
ATOM     22  C   UNL     1       6.993   1.720  -4.018  0.00  0.00    +0.283 C 
ATOM     23  O   UNL     1       6.307   2.703  -3.810  0.00  0.00    -0.267 OA
BRANCH  22  24
ATOM     24  C   UNL     1       8.455   1.823  -3.975  0.00  0.00    +0.189 A 
ATOM     25  C   UNL     1       9.171   2.919  -3.587  0.00  0.00    +0.054 A 
ATOM     26  C   UNL     1      10.527   2.575  -3.700  0.00  0.00    +0.042 A 
ATOM     27  C   UNL     1      10.579   1.301  -4.146  0.00  0.00    +0.196 A 
ATOM     28  O   UNL     1       9.329   0.849  -4.305  0.00  0.00    -0.458 OA
ENDBRANCH  22  24
BRANCH  21  29
ATOM     29  C   UNL     1       7.216  -0.686  -4.337  0.00  0.00    +0.030 C 
ATOM     30  C   UNL     1       6.294  -1.905  -4.402  0.00  0.00    +0.031 C 
ATOM     31  C   UNL     1       8.110  -0.656  -5.579  0.00  0.00    +0.031 C 
ATOM     32  C   UNL     1       8.088  -0.772  -3.083  0.00  0.00    +0.031 C 
ENDBRANCH  21  29
ENDBRANCH   1  21
TORSDOF 8
