REMARK  Name = ZINC36598569
REMARK  19 active torsions:
REMARK  status: ('A' for Active; 'I' for Inactive)
REMARK    1  A    between atoms: C_1  and  C_2
REMARK    2  A    between atoms: C_5  and  C_7
REMARK    3  A    between atoms: C_7  and  N_8
REMARK    4  A    between atoms: N_8  and  C_9
REMARK    5  A    between atoms: C_9  and  C_11
REMARK    6  A    between atoms: C_9  and  C_18
REMARK    7  A    between atoms: C_16  and  O_17
REMARK    8  A    between atoms: N_20  and  C_21
REMARK    9  A    between atoms: C_21  and  C_22
REMARK   10  A    between atoms: C_21  and  C_23
REMARK   11  A    between atoms: C_21  and  C_24
REMARK   12  A    between atoms: C_24  and  C_25
REMARK   13  A    between atoms: C_25  and  C_26
REMARK   14  A    between atoms: C_25  and  C_27
REMARK   15  A    between atoms: C_25  and  C_28
REMARK   16  A    between atoms: C_29  and  C_31
REMARK   17  A    between atoms: C_31  and  C_32
REMARK   18  A    between atoms: C_32  and  C_34
REMARK   19  A    between atoms: C_32  and  C_35
REMARK                            x       y       z     vdW  Elec       q    Type
REMARK                         _______ _______ _______ _____ _____    ______ ____
ROOT
ATOM      1  C   UNL     1       2.974  -1.489  -4.216  0.00  0.00    +0.196 C 
ENDROOT
BRANCH   1   2
ATOM      2  C   UNL     1       4.186  -1.937  -3.441  0.00  0.00    +0.023 A 
ATOM      3  C   UNL     1       4.603  -1.221  -2.335  0.00  0.00    +0.009 A 
ATOM      4  C   UNL     1       5.715  -1.632  -1.624  0.00  0.00    +0.001 A 
ATOM      5  C   UNL     1       6.412  -2.760  -2.016  0.00  0.00    +0.004 A 
ATOM      6  C   UNL     1       5.998  -3.479  -3.120  0.00  0.00    +0.046 A 
ATOM      7  C   UNL     1       4.880  -3.072  -3.833  0.00  0.00    +0.122 A 
BRANCH   7   8
ATOM      8  O   UNL     1       4.467  -3.781  -4.916  0.00  0.00    -0.506 OA
ATOM      9  H   UNL     1       4.919  -3.544  -5.737  0.00  0.00    +0.292 HD
ENDBRANCH   7   8
ENDBRANCH   1   2
BRANCH   1  10
ATOM     10  C   UNL     1       2.706  -0.033  -3.932  0.00  0.00    +0.239 C 
ATOM     11  O   UNL     1       1.747   0.288  -3.264  0.00  0.00    -0.273 OA
ATOM     12  N   UNL     1       3.533   0.912  -4.421  0.00  0.00    -0.308 N 
ATOM     13  H   UNL     1       4.245   0.665  -5.032  0.00  0.00    +0.149 HD
BRANCH  12  14
ATOM     14  C   UNL     1       3.358   2.313  -4.030  0.00  0.00    +0.030 C 
ATOM     15  C   UNL     1       2.071   2.859  -4.653  0.00  0.00    +0.031 C 
ATOM     16  C   UNL     1       3.268   2.410  -2.506  0.00  0.00    +0.031 C 
BRANCH  14  17
ATOM     17  C   UNL     1       4.551   3.134  -4.524  0.00  0.00    +0.031 C 
BRANCH  17  18
ATOM     18  C   UNL     1       5.811   2.707  -3.770  0.00  0.00    -0.036 C 
ATOM     19  C   UNL     1       5.777   1.195  -3.535  0.00  0.00    +0.010 C 
ATOM     20  C   UNL     1       7.047   3.067  -4.596  0.00  0.00    +0.010 C 
ATOM     21  C   UNL     1       5.869   3.431  -2.423  0.00  0.00    +0.010 C 
ENDBRANCH  17  18
ENDBRANCH  14  17
ENDBRANCH  12  14
ENDBRANCH   1  10
BRANCH   1  22
ATOM     22  N   UNL     1       1.813  -2.286  -3.812  0.00  0.00    -0.278 N 
ATOM     23  C   UNL     1       1.493  -2.398  -2.507  0.00  0.00    +0.217 C 
ATOM     24  O   UNL     1       2.166  -1.839  -1.668  0.00  0.00    -0.276 OA
BRANCH  22  25
ATOM     25  C   UNL     1       1.000  -2.962  -4.826  0.00  0.00    +0.183 C 
BRANCH  25  30
ATOM     26  C   UNL     1       3.763  -6.599  -6.964  0.00  0.00    +0.086 C 
ATOM     27  C   UNL     1       2.790  -5.899  -6.051  0.00  0.00    +0.102 A 
ATOM     28  C   UNL     1       2.071  -6.479  -5.073  0.00  0.00    +0.045 A 
ATOM     29  C   UNL     1       1.297  -5.460  -4.474  0.00  0.00    +0.046 A 
ATOM     30  C   UNL     1       1.589  -4.317  -5.121  0.00  0.00    +0.122 A 
ATOM     31  O   UNL     1       2.498  -4.588  -6.071  0.00  0.00    -0.463 OA
ENDBRANCH  25  30
ENDBRANCH  22  25
BRANCH  23  32
ATOM     32  C   UNL     1       0.299  -3.218  -2.092  0.00  0.00    +0.104 C 
BRANCH  32  33
ATOM     33  C   UNL     1       0.160  -3.181  -0.569  0.00  0.00    +0.025 C 
ATOM     34  C   UNL     1       1.367  -3.870   0.071  0.00  0.00    +0.013 C 
BRANCH  33  35
ATOM     35  C   UNL     1      -1.102  -3.898  -0.162  0.00  0.00    -0.044 A 
ATOM     36  C   UNL     1      -1.269  -5.234  -0.475  0.00  0.00    +0.004 A 
ATOM     37  C   UNL     1      -2.426  -5.891  -0.102  0.00  0.00    +0.000 A 
ATOM     38  C   UNL     1      -3.416  -5.213   0.585  0.00  0.00    +0.000 A 
ATOM     39  C   UNL     1      -3.248  -3.877   0.899  0.00  0.00    +0.000 A 
ATOM     40  C   UNL     1      -2.089  -3.221   0.529  0.00  0.00    +0.004 A 
ENDBRANCH  33  35
ENDBRANCH  32  33
ENDBRANCH  23  32
ENDBRANCH   1  22
TORSDOF 12
