REMARK  Name = ZINC55199692
REMARK  7 active torsions:
REMARK  status: ('A' for Active; 'I' for Inactive)
REMARK    1  A    between atoms: C_5  and  C_6
REMARK    2  A    between atoms: C_6  and  N_7
REMARK    3  A    between atoms: N_7  and  C_8
REMARK    4  A    between atoms: C_8  and  C_9
REMARK    5  A    between atoms: C_9  and  O_20
REMARK    6  A    between atoms: N_13  and  C_16
REMARK    7  A    between atoms: C_16  and  C_17
REMARK                            x       y       z     vdW  Elec       q    Type
REMARK                         _______ _______ _______ _____ _____    ______ ____
ROOT
ATOM      1  C   UNL     1      -2.928  -2.498  -2.890  0.00  0.00    +0.154 C 
ATOM      2  C   UNL     1      -4.202  -3.333  -3.037  0.00  0.00    +0.047 C 
ATOM      3  C   UNL     1      -4.588  -3.372  -4.521  0.00  0.00    +0.022 C 
ATOM      4  C   UNL     1      -5.013  -1.968  -4.953  0.00  0.00    +0.108 C 
ATOM      5  N   UNL     1      -4.007  -0.988  -4.563  0.00  0.00    -0.299 N 
ATOM      6  C   UNL     1      -3.080  -1.199  -3.628  0.00  0.00    +0.249 C 
ATOM      7  O   UNL     1      -2.320  -0.293  -3.358  0.00  0.00    -0.272 OA
ENDROOT
BRANCH   1   8
ATOM      8  O   UNL     1      -1.822  -3.224  -3.431  0.00  0.00    -0.378 OA
ATOM      9  H   UNL     1      -0.977  -2.757  -3.370  0.00  0.00    +0.211 HD
ENDBRANCH   1   8
BRANCH   1  10
ATOM     10  C   UNL     1      -2.674  -2.214  -1.409  0.00  0.00    +0.125 C 
BRANCH  10  11
ATOM     11  N   UNL     1      -2.564  -3.485  -0.679  0.00  0.00    -0.308 NA
ATOM     12  H   UNL     1      -1.790  -4.033  -1.022  0.00  0.00    +0.122 HD
BRANCH  11  13
ATOM     13  C   UNL     1      -2.445  -3.252   0.767  0.00  0.00    +0.123 C 
BRANCH  13  18
ATOM     14  C   UNL     1      -1.224  -5.286   1.792  0.00  0.00    +0.014 A 
ATOM     15  C   UNL     1      -1.364  -6.490   2.458  0.00  0.00    +0.028 A 
ATOM     16  C   UNL     1      -2.609  -6.923   2.780  0.00  0.00    +0.078 A 
ATOM     17  S   UNL     1      -3.634  -5.611   2.135  0.00  0.00    -0.080 S 
ATOM     18  C   UNL     1      -2.335  -4.575   1.481  0.00  0.00    +0.005 A 
ATOM     19 CL   UNL     1      -3.083  -8.375   3.604  0.00  0.00    -0.076 Cl
ENDBRANCH  13  18
ENDBRANCH  11  13
ENDBRANCH  10  11
ENDBRANCH   1  10
BRANCH   5  20
ATOM     20  C   UNL     1      -4.015   0.311  -5.242  0.00  0.00    +0.111 C 
BRANCH  20  21
ATOM     21  C   UNL     1      -4.913   1.282  -4.473  0.00  0.00    +0.006 C 
ATOM     22  C   UNL     1      -6.159   1.809  -5.189  0.00  0.00    +0.005 C 
ATOM     23  C   UNL     1      -4.962   2.733  -4.958  0.00  0.00    +0.005 C 
ENDBRANCH  20  21
ENDBRANCH   5  20
TORSDOF 7
