REMARK  Name = ZINC33512653
REMARK  9 active torsions:
REMARK  status: ('A' for Active; 'I' for Inactive)
REMARK    1  A    between atoms: C_1  and  C_2
REMARK    2  A    between atoms: C_2  and  C_3
REMARK    3  A    between atoms: C_2  and  C_4
REMARK    4  A    between atoms: C_4  and  C_6
REMARK    5  A    between atoms: C_4  and  N_12
REMARK    6  A    between atoms: N_8  and  C_9
REMARK    7  A    between atoms: C_9  and  C_10
REMARK    8  A    between atoms: C_10  and  N_11
REMARK    9  A    between atoms: C_14  and  N_19
REMARK                            x       y       z     vdW  Elec       q    Type
REMARK                         _______ _______ _______ _____ _____    ______ ____
ROOT
ATOM      1  C   UNL     1       3.675  -0.720  -0.094  0.00  0.00    +0.178 C 
ENDROOT
BRANCH   1   2
ATOM      2  N   UNL     1       2.236  -0.473   0.025  0.00  0.00    -0.301 N 
ATOM      3  C   UNL     1       1.375  -1.522   0.058  0.00  0.00    +0.122 A 
ATOM      4  C   UNL     1       0.042  -1.319   0.168  0.00  0.00    +0.142 A 
ATOM      5  C   UNL     1      -0.463  -0.014   0.248  0.00  0.00    +0.039 A 
ATOM      6  C   UNL     1       0.403   1.040   0.215  0.00  0.00    +0.072 A 
ATOM      7  C   UNL     1       1.782   0.793   0.101  0.00  0.00    +0.252 A 
ATOM      8  O   UNL     1       2.568   1.726   0.070  0.00  0.00    -0.268 OA
BRANCH   4   9
ATOM      9  N   UNL     1      -0.883  -2.474   0.202  0.00  0.00    +0.058 N 
ATOM     10  O   UNL     1      -0.444  -3.608   0.132  0.00  0.00    -0.126 OA
ATOM     11  O   UNL     1      -2.083  -2.291   0.301  0.00  0.00    -0.126 OA
ENDBRANCH   4   9
ENDBRANCH   1   2
BRANCH   1  12
ATOM     12  C   UNL     1       4.385  -0.143   1.104  0.00  0.00    +0.236 C 
ATOM     13  O   UNL     1       3.787   0.580   1.873  0.00  0.00    -0.274 OA
ATOM     14  N   UNL     1       5.683  -0.432   1.322  0.00  0.00    -0.315 N 
ATOM     15  H   UNL     1       6.204  -1.147   0.668  0.00  0.00    +0.149 HD
BRANCH  14  16
ATOM     16  C   UNL     1       6.399   0.206   2.429  0.00  0.00    +0.085 C 
BRANCH  16  17
ATOM     17  C   UNL     1       7.846  -0.292   2.454  0.00  0.00    -0.067 C 
BRANCH  17  18
ATOM     18  N   UNL     1       8.565   0.348   3.564  0.00  0.00    +0.379 N 
ATOM     19  H   UNL     1       9.605  -0.010   3.582  0.00  0.00    -0.090 HD
ATOM     20  H   UNL     1       8.073   0.093   4.515  0.00  0.00    -0.090 HD
ATOM     21  H   UNL     1       8.555   1.439   3.427  0.00  0.00    -0.090 HD
ENDBRANCH  17  18
ENDBRANCH  16  17
ENDBRANCH  14  16
ENDBRANCH   1  12
BRANCH   1  23
ATOM     22  C   UNL     1       5.673  -0.429  -1.565  0.00  0.00    +0.010 C 
ATOM     23  C   UNL     1       4.203  -0.056  -1.367  0.00  0.00    +0.015 C 
ATOM     24  C   UNL     1       3.388  -0.537  -2.569  0.00  0.00    +0.010 C 
ENDBRANCH   1  23
TORSDOF 7
