REMARK  Name = ZINC43263165
REMARK  11 active torsions:
REMARK  status: ('A' for Active; 'I' for Inactive)
REMARK    1  A    between atoms: C_1  and  C_2
REMARK    2  A    between atoms: C_2  and  C_3
REMARK    3  A    between atoms: C_3  and  C_5
REMARK    4  A    between atoms: C_3  and  N_22
REMARK    5  A    between atoms: C_5  and  C_7
REMARK    6  A    between atoms: C_5  and  N_13
REMARK    7  A    between atoms: N_13  and  C_14
REMARK    8  A    between atoms: N_13  and  C_19
REMARK    9  A    between atoms: C_14  and  C_15
REMARK   10  A    between atoms: C_19  and  C_20
REMARK   11  A    between atoms: C_19  and  C_21
REMARK                            x       y       z     vdW  Elec       q    Type
REMARK                         _______ _______ _______ _____ _____    ______ ____
ROOT
ATOM      1  C   UNL     1       0.772  -1.725  -1.308  0.00  0.00    +0.080 C 
ENDROOT
BRANCH   1   2
ATOM      2  C   UNL     1       1.545  -2.061  -2.558  0.00  0.00    +0.006 A 
ATOM      3  C   UNL     1       2.813  -2.523  -2.679  0.00  0.00    +0.014 A 
ATOM      4  C   UNL     1       3.321  -2.764  -3.941  0.00  0.00    +0.023 A 
ATOM      5  C   UNL     1       2.534  -2.532  -5.022  0.00  0.00    +0.055 A 
ATOM      6  S   UNL     1       1.023  -1.961  -4.262  0.00  0.00    -0.085 S 
ATOM      7 BR   UNL     1       2.933  -2.760  -6.856  0.00  0.00    -0.043 Br
ENDBRANCH   1   2
BRANCH   1   8
ATOM      8  C   UNL     1       0.710  -0.205  -1.140  0.00  0.00    -0.053 C 
BRANCH   8   9
ATOM      9  N   UNL     1       1.871   0.408  -1.797  0.00  0.00    +0.381 N 
ATOM     10  H   UNL     1       1.830   1.411  -1.687  0.00  0.00    -0.090 HD
ATOM     11  H   UNL     1       2.719   0.058  -1.377  0.00  0.00    -0.090 HD
ATOM     12  H   UNL     1       1.863   0.178  -2.779  0.00  0.00    -0.090 HD
ENDBRANCH   8   9
BRANCH   8  14
ATOM     13  C   UNL     1       0.514   1.651   0.521  0.00  0.00    +0.002 C 
ATOM     14  C   UNL     1       0.722   0.145   0.349  0.00  0.00    -0.018 C 
ENDBRANCH   8  14
ENDBRANCH   1   8
BRANCH   1  15
ATOM     15  N   UNL     1      -0.591  -2.262  -1.415  0.00  0.00    -0.286 NA
BRANCH  15  16
ATOM     16  C   UNL     1      -0.623  -3.688  -1.065  0.00  0.00    +0.051 C 
ATOM     17  C   UNL     1       0.350  -4.456  -1.962  0.00  0.00    +0.024 C 
ATOM     18  C   UNL     1      -0.213  -3.864   0.399  0.00  0.00    +0.024 C 
ENDBRANCH  15  16
BRANCH  15  19
ATOM     19  C   UNL     1      -1.526  -1.494  -0.583  0.00  0.00    +0.199 C 
BRANCH  19  20
ATOM     20  C   UNL     1      -2.939  -2.056  -0.753  0.00  0.00    +0.402 C 
ATOM     21  F   UNL     1      -2.999  -3.342  -0.206  0.00  0.00    -0.169 F 
ATOM     22  F   UNL     1      -3.853  -1.226  -0.094  0.00  0.00    -0.169 F 
ATOM     23  F   UNL     1      -3.257  -2.113  -2.114  0.00  0.00    -0.169 F 
ENDBRANCH  19  20
ENDBRANCH  15  19
ENDBRANCH   1  15
TORSDOF 8
