REMARK  Name = ZINC14543409
REMARK  8 active torsions:
REMARK  status: ('A' for Active; 'I' for Inactive)
REMARK    1  A    between atoms: C_1  and  N_2
REMARK    2  A    between atoms: C_5  and  C_7
REMARK    3  A    between atoms: C_20  and  N_65
REMARK    4  A    between atoms: C_24  and  C_25
REMARK    5  A    between atoms: C_24  and  N_65
REMARK    6  A    between atoms: C_25  and  C_26
REMARK    7  A    between atoms: C_29  and  S_32
REMARK    8  A    between atoms: S_32  and  N_35
REMARK                            x       y       z     vdW  Elec       q    Type
REMARK                         _______ _______ _______ _____ _____    ______ ____
ROOT
ATOM      1  C   UNL     1      -2.048   3.924   8.122  0.00  0.00    +0.172 C 
ATOM      2  N   UNL     1      -1.583   2.662   7.541  0.00  0.00    -0.270 N 
ATOM      3  C   UNL     1      -1.177   2.502   6.271  0.00  0.00    +0.043 A 
ATOM      4  C   UNL     1      -0.829   1.200   6.122  0.00  0.00    +0.004 A 
ATOM      5  C   UNL     1      -1.048   0.596   7.371  0.00  0.00    +0.151 A 
ATOM      6  N   UNL     1      -1.503   1.543   8.175  0.00  0.00    -0.166 NA
ATOM      7  C   UNL     1      -0.320   0.593   4.843  0.00  0.00    +0.023 C 
ATOM      8  C   UNL     1      -0.648   1.552   3.691  0.00  0.00    -0.067 C 
ATOM      9  C   UNL     1      -0.194   2.967   4.058  0.00  0.00    -0.009 C 
ATOM     10  C   UNL     1      -1.093   3.526   5.168  0.00  0.00    +0.054 C 
ENDROOT
BRANCH   5  11
ATOM     11  C   UNL     1      -0.815  -0.820   7.720  0.00  0.00    +0.267 C 
ATOM     12  O   UNL     1      -0.494  -1.613   6.856  0.00  0.00    -0.268 OA
ATOM     13  N   UNL     1      -0.957  -1.232   8.995  0.00  0.00    -0.292 N 
ATOM     14  C   UNL     1      -0.654  -2.618   9.390  0.00  0.00    +0.113 C 
ATOM     15  C   UNL     1       0.524  -2.582  10.362  0.00  0.00    +0.054 C 
ATOM     16  C   UNL     1       0.310  -1.538  11.427  0.00  0.00    -0.041 A 
ATOM     17  C   UNL     1       1.044  -1.655  12.601  0.00  0.00    +0.004 A 
ATOM     18  C   UNL     1       0.902  -0.728  13.612  0.00  0.00    +0.000 A 
ATOM     19  C   UNL     1       0.025   0.329  13.458  0.00  0.00    +0.000 A 
ATOM     20  C   UNL     1      -0.708   0.446  12.295  0.00  0.00    +0.005 A 
ATOM     21  C   UNL     1      -0.571  -0.491  11.279  0.00  0.00    -0.027 A 
ATOM     22  C   UNL     1      -1.415  -0.317  10.046  0.00  0.00    +0.143 C 
ENDBRANCH   5  11
BRANCH   8  23
ATOM     23  N   UNL     1       0.060   1.108   2.475  0.00  0.00    +0.381 N 
ATOM     24  H   UNL     1       0.099   0.082   2.462  0.00  0.00    -0.086 HD
ATOM     25  H   UNL     1       1.014   1.487   2.482  0.00  0.00    -0.086 HD
BRANCH  23  26
ATOM     26  C   UNL     1      -0.645   1.583   1.270  0.00  0.00    -0.078 C 
BRANCH  26  27
ATOM     27  C   UNL     1       0.111   1.108   0.027  0.00  0.00    +0.016 C 
BRANCH  27  28
ATOM     28  C   UNL     1      -0.603   1.589  -1.210  0.00  0.00    -0.049 A 
ATOM     29  C   UNL     1      -1.579   0.804  -1.794  0.00  0.00    +0.005 A 
ATOM     30  C   UNL     1      -2.237   1.248  -2.926  0.00  0.00    +0.029 A 
ATOM     31  C   UNL     1      -1.912   2.472  -3.479  0.00  0.00    +0.105 A 
ATOM     32  C   UNL     1      -0.931   3.255  -2.898  0.00  0.00    +0.029 A 
ATOM     33  C   UNL     1      -0.277   2.813  -1.763  0.00  0.00    +0.005 A 
BRANCH  31  34
ATOM     34  S   UNL     1      -2.747   3.035  -4.925  0.00  0.00    +0.056 S 
ATOM     35  O   UNL     1      -3.999   2.365  -4.957  0.00  0.00    -0.153 OA
ATOM     36  O   UNL     1      -2.642   4.453  -4.928  0.00  0.00    -0.153 OA
BRANCH  34  37
ATOM     37  N   UNL     1      -1.885   2.494  -6.231  0.00  0.00    -0.204 NA
ATOM     38  H   UNL     1      -1.080   1.969  -6.097  0.00  0.00    +0.144 HD
ATOM     39  H   UNL     1      -2.185   2.701  -7.130  0.00  0.00    +0.144 HD
ENDBRANCH  34  37
ENDBRANCH  31  34
ENDBRANCH  27  28
ENDBRANCH  26  27
ENDBRANCH  23  26
ENDBRANCH   8  23
TORSDOF 7
