REMARK  Name = ZINC36586897
REMARK  20 active torsions:
REMARK  status: ('A' for Active; 'I' for Inactive)
REMARK    1  A    between atoms: C_1  and  C_2
REMARK    2  A    between atoms: C_2  and  C_3
REMARK    3  A    between atoms: C_2  and  C_4
REMARK    4  A    between atoms: C_2  and  C_5
REMARK    5  A    between atoms: C_5  and  C_6
REMARK    6  A    between atoms: C_6  and  C_7
REMARK    7  A    between atoms: C_6  and  C_8
REMARK    8  A    between atoms: C_6  and  N_9
REMARK    9  A    between atoms: C_10  and  C_12
REMARK   10  A    between atoms: C_12  and  C_14
REMARK   11  A    between atoms: C_12  and  N_22
REMARK   12  A    between atoms: C_18  and  O_20
REMARK   13  A    between atoms: O_20  and  C_21
REMARK   14  A    between atoms: N_22  and  C_33
REMARK   15  A    between atoms: C_23  and  C_25
REMARK   16  A    between atoms: C_29  and  O_32
REMARK   17  A    between atoms: C_30  and  O_31
REMARK   18  A    between atoms: C_33  and  C_34
REMARK   19  A    between atoms: C_33  and  C_35
REMARK   20  A    between atoms: C_33  and  C_36
REMARK                            x       y       z     vdW  Elec       q    Type
REMARK                         _______ _______ _______ _____ _____    ______ ____
ROOT
ATOM      1  C   UNL     1       5.932   0.564  -3.117  0.00  0.00    +0.193 C 
ENDROOT
BRANCH   1   2
ATOM      2  C   UNL     1       5.404   1.919  -2.723  0.00  0.00    -0.015 A 
ATOM      3  C   UNL     1       6.122   3.058  -3.037  0.00  0.00    +0.006 A 
ATOM      4  C   UNL     1       5.641   4.303  -2.677  0.00  0.00    +0.004 A 
ATOM      5  C   UNL     1       4.440   4.411  -2.001  0.00  0.00    +0.045 A 
ATOM      6  C   UNL     1       3.718   3.270  -1.685  0.00  0.00    +0.120 A 
ATOM      7  C   UNL     1       4.201   2.022  -2.053  0.00  0.00    +0.051 A 
BRANCH   6   8
ATOM      8  O   UNL     1       2.537   3.374  -1.020  0.00  0.00    -0.495 OA
ATOM      9  C   UNL     1       2.099   4.691  -0.678  0.00  0.00    +0.277 C 
ENDBRANCH   6   8
ENDBRANCH   1   2
BRANCH   1  11
ATOM     10  N   UNL     1       6.241  -0.266  -0.807  0.00  0.00    -0.308 N 
ATOM     11  C   UNL     1       6.790   0.016  -2.005  0.00  0.00    +0.239 C 
ATOM     12  O   UNL     1       7.974  -0.171  -2.189  0.00  0.00    -0.273 OA
ATOM     13  H   UNL     1       5.294  -0.117  -0.660  0.00  0.00    +0.149 HD
BRANCH  10  14
ATOM     14  C   UNL     1       7.075  -0.799   0.273  0.00  0.00    +0.030 C 
ATOM     15  C   UNL     1       8.333   0.060   0.417  0.00  0.00    +0.031 C 
ATOM     16  C   UNL     1       7.476  -2.239  -0.054  0.00  0.00    +0.031 C 
BRANCH  14  17
ATOM     17  C   UNL     1       6.288  -0.774   1.585  0.00  0.00    +0.031 C 
BRANCH  17  19
ATOM     18  C   UNL     1       4.356   0.590   0.777  0.00  0.00    +0.010 C 
ATOM     19  C   UNL     1       5.562   0.566   1.719  0.00  0.00    -0.036 C 
ATOM     20  C   UNL     1       6.518   1.703   1.351  0.00  0.00    +0.010 C 
ATOM     21  C   UNL     1       5.086   0.747   3.162  0.00  0.00    +0.010 C 
ENDBRANCH  17  19
ENDBRANCH  14  17
ENDBRANCH  10  14
ENDBRANCH   1  11
BRANCH   1  22
ATOM     22  N   UNL     1       6.734   0.688  -4.337  0.00  0.00    -0.277 N 
ATOM     23  C   UNL     1       7.977   1.205  -4.276  0.00  0.00    +0.252 C 
ATOM     24  O   UNL     1       8.524   1.350  -3.200  0.00  0.00    -0.270 OA
BRANCH  23  25
ATOM     25  C   UNL     1       8.675   1.595  -5.516  0.00  0.00    +0.082 A 
ATOM     26  C   UNL     1       8.342   0.988  -6.731  0.00  0.00    +0.017 A 
ATOM     27  C   UNL     1       8.995   1.355  -7.886  0.00  0.00    +0.005 A 
ATOM     28  C   UNL     1       9.983   2.326  -7.854  0.00  0.00    +0.049 A 
ATOM     29  C   UNL     1      10.325   2.936  -6.659  0.00  0.00    +0.159 A 
ATOM     30  C   UNL     1       9.669   2.580  -5.484  0.00  0.00    +0.171 A 
BRANCH  30  31
ATOM     31  O   UNL     1       9.997   3.180  -4.311  0.00  0.00    -0.503 OA
ATOM     32  H   UNL     1      10.702   2.733  -3.824  0.00  0.00    +0.292 HD
ENDBRANCH  30  31
BRANCH  29  33
ATOM     33  O   UNL     1      11.296   3.888  -6.634  0.00  0.00    -0.503 OA
ATOM     34  H   UNL     1      10.969   4.787  -6.772  0.00  0.00    +0.292 HD
ENDBRANCH  29  33
ENDBRANCH  23  25
BRANCH  22  35
ATOM     35  C   UNL     1       6.185   0.249  -5.622  0.00  0.00    +0.030 C 
ATOM     36  C   UNL     1       4.706  -0.105  -5.451  0.00  0.00    +0.031 C 
ATOM     37  C   UNL     1       6.323   1.377  -6.647  0.00  0.00    +0.031 C 
ATOM     38  C   UNL     1       6.951  -0.981  -6.111  0.00  0.00    +0.031 C 
ENDBRANCH  22  35
ENDBRANCH   1  22
TORSDOF 11
