REMARK  Name = ZINC09344822
REMARK  8 active torsions:
REMARK  status: ('A' for Active; 'I' for Inactive)
REMARK    1  A    between atoms: C_1  and  C_2
REMARK    2  A    between atoms: C_2  and  N_59
REMARK    3  A    between atoms: C_3  and  C_4
REMARK    4  A    between atoms: C_3  and  N_59
REMARK    5  A    between atoms: C_5  and  C_6
REMARK    6  A    between atoms: C_5  and  N_59
REMARK    7  A    between atoms: C_6  and  N_7
REMARK    8  A    between atoms: C_17  and  C_19
REMARK                            x       y       z     vdW  Elec       q    Type
REMARK                         _______ _______ _______ _____ _____    ______ ____
ROOT
ATOM      1  N   UNL     1      -1.692   7.133   0.096  0.00  0.00    -0.248 N 
ATOM      2  C   UNL     1      -1.376   5.785   0.091  0.00  0.00    +0.168 A 
ATOM      3  N   UNL     1      -0.192   5.218   0.108  0.00  0.00    -0.224 NA
ATOM      4  C   UNL     1      -0.030   3.877   0.099  0.00  0.00    +0.080 A 
ATOM      5  C   UNL     1       1.179   3.143   0.116  0.00  0.00    +0.029 A 
ATOM      6  C   UNL     1       1.166   1.773   0.104  0.00  0.00    +0.002 A 
ATOM      7  C   UNL     1      -0.023   1.059   0.075  0.00  0.00    +0.001 A 
ATOM      8  C   UNL     1      -1.224   1.744   0.052  0.00  0.00    +0.017 A 
ATOM      9  C   UNL     1      -1.222   3.116   0.070  0.00  0.00    +0.041 A 
ATOM     10  S   UNL     1      -2.474   4.376   0.058  0.00  0.00    -0.052 S 
ATOM     11  C   UNL     1      -0.716   8.054   0.219  0.00  0.00    +0.259 C 
ATOM     12  O   UNL     1      -1.001   9.231   0.330  0.00  0.00    -0.269 OA
ENDROOT
BRANCH  11  13
ATOM     13  C   UNL     1       0.694   7.636   0.218  0.00  0.00    +0.122 A 
ATOM     14  C   UNL     1       1.261   7.053  -0.909  0.00  0.00    +0.032 A 
ATOM     15  C   UNL     1       2.616   6.673  -0.865  0.00  0.00    +0.026 A 
ATOM     16  C   UNL     1       3.257   6.061  -2.032  0.00  0.00    -0.007 A 
ATOM     17  C   UNL     1       2.555   5.840  -3.219  0.00  0.00    +0.009 A 
ATOM     18  C   UNL     1       3.190   5.266  -4.282  0.00  0.00    +0.001 A 
ATOM     19  C   UNL     1       4.529   4.899  -4.199  0.00  0.00    +0.001 A 
ATOM     20  C   UNL     1       5.242   5.101  -3.055  0.00  0.00    +0.008 A 
ATOM     21  C   UNL     1       4.619   5.689  -1.943  0.00  0.00    -0.017 A 
ATOM     22  C   UNL     1       5.322   5.913  -0.743  0.00  0.00    +0.012 A 
ATOM     23  C   UNL     1       4.717   6.481   0.329  0.00  0.00    +0.047 A 
ATOM     24  C   UNL     1       3.372   6.870   0.299  0.00  0.00    +0.140 A 
ATOM     25  O   UNL     1       2.816   7.431   1.394  0.00  0.00    -0.422 OA
ATOM     26  C   UNL     1       1.530   7.818   1.409  0.00  0.00    +0.350 A 
ATOM     27  O   UNL     1       1.058   8.321   2.412  0.00  0.00    -0.244 OA
ENDBRANCH  11  13
BRANCH   1  28
ATOM     28  C   UNL     1      -3.088   7.558  -0.031  0.00  0.00    +0.097 C 
BRANCH  28  29
ATOM     29  C   UNL     1      -3.717   7.667   1.359  0.00  0.00    -0.059 C 
BRANCH  29  30
ATOM     30  N   UNL     1      -5.118   8.116   1.215  0.00  0.00    +0.380 N 
ATOM     31  H   UNL     1      -5.139   8.961   0.631  0.00  0.00    -0.082 HD
BRANCH  30  33
ATOM     32  C   UNL     1      -5.978   5.809   1.440  0.00  0.00    -0.017 C 
ATOM     33  C   UNL     1      -5.923   7.062   0.563  0.00  0.00    -0.082 C 
ENDBRANCH  30  33
BRANCH  30  34
ATOM     34  C   UNL     1      -5.685   8.436   2.542  0.00  0.00    -0.082 C 
ATOM     35  C   UNL     1      -6.986   9.217   2.345  0.00  0.00    -0.017 C 
ENDBRANCH  30  34
ENDBRANCH  29  30
ENDBRANCH  28  29
ENDBRANCH   1  28
TORSDOF 6
