REMARK  Name = ZINC44905876
REMARK  11 active torsions:
REMARK  status: ('A' for Active; 'I' for Inactive)
REMARK    1  A    between atoms: C_1  and  C_2
REMARK    2  A    between atoms: C_5  and  S_8
REMARK    3  A    between atoms: S_8  and  N_11
REMARK    4  A    between atoms: N_14  and  C_17
REMARK    5  A    between atoms: C_17  and  C_18
REMARK    6  A    between atoms: C_21  and  C_24
REMARK    7  A    between atoms: N_26  and  C_27
REMARK    8  A    between atoms: C_27  and  C_29
REMARK    9  A    between atoms: C_27  and  C_30
REMARK   10  A    between atoms: C_32  and  C_37
REMARK   11  A    between atoms: C_35  and  C_36
REMARK                            x       y       z     vdW  Elec       q    Type
REMARK                         _______ _______ _______ _____ _____    ______ ____
ROOT
ATOM      1  C   UNL     1       5.668  -7.890   1.042  0.00  0.00    -0.033 A 
ATOM      2  C   UNL     1       6.923  -7.350   0.820  0.00  0.00    +0.005 A 
ATOM      3  C   UNL     1       7.852  -7.315   1.839  0.00  0.00    +0.013 A 
ATOM      4  C   UNL     1       7.524  -7.825   3.096  0.00  0.00    +0.037 A 
ATOM      5  C   UNL     1       6.257  -8.368   3.313  0.00  0.00    +0.013 A 
ATOM      6  C   UNL     1       5.335  -8.392   2.287  0.00  0.00    +0.005 A 
ENDROOT
BRANCH   4   7
ATOM      7  C   UNL     1       8.515  -7.790   4.193  0.00  0.00    +0.245 C 
ATOM      8  O   UNL     1       9.618  -7.317   4.001  0.00  0.00    -0.270 OA
ATOM      9  N   UNL     1       8.195  -8.283   5.406  0.00  0.00    -0.305 N 
ATOM     10  H   UNL     1       7.315  -8.661   5.559  0.00  0.00    +0.150 HD
BRANCH   9  11
ATOM     11  C   UNL     1       9.177  -8.249   6.493  0.00  0.00    +0.101 C 
ATOM     12  C   UNL     1      10.087  -9.475   6.397  0.00  0.00    +0.033 C 
BRANCH  11  13
ATOM     13  C   UNL     1       8.459  -8.258   7.818  0.00  0.00    -0.024 A 
ATOM     14  C   UNL     1       7.192  -8.803   7.915  0.00  0.00    +0.009 A 
ATOM     15  C   UNL     1       6.535  -8.812   9.130  0.00  0.00    -0.050 A 
ATOM     16  C   UNL     1       7.144  -8.277  10.250  0.00  0.00    +0.003 A 
ATOM     17  C   UNL     1       8.411  -7.733  10.154  0.00  0.00    +0.004 A 
ATOM     18  C   UNL     1       9.070  -7.728   8.939  0.00  0.00    -0.046 A 
ATOM     19  C   UNL     1      10.454  -7.140   8.835  0.00  0.00    +0.044 C 
ATOM     20  C   UNL     1       5.153  -9.405   9.235  0.00  0.00    +0.044 C 
ENDBRANCH  11  13
ENDBRANCH   9  11
ENDBRANCH   4   7
BRANCH   1  21
ATOM     21  C   UNL     1       4.659  -7.926  -0.076  0.00  0.00    +0.119 C 
BRANCH  21  25
ATOM     22  N   UNL     1       1.651  -4.999  -0.034  0.00  0.00    -0.174 NA
ATOM     23  C   UNL     1       2.370  -5.200  -1.302  0.00  0.00    +0.125 C 
ATOM     24  C   UNL     1       3.038  -6.579  -1.269  0.00  0.00    +0.102 C 
ATOM     25  N   UNL     1       3.867  -6.689  -0.061  0.00  0.00    -0.296 NA
ATOM     26  C   UNL     1       3.048  -6.604   1.156  0.00  0.00    +0.102 C 
ATOM     27  C   UNL     1       2.382  -5.220   1.223  0.00  0.00    +0.125 C 
BRANCH  22  28
ATOM     28  S   UNL     1       0.063  -4.530  -0.023  0.00  0.00    +0.061 S 
ATOM     29  O   UNL     1      -0.476  -4.950   1.223  0.00  0.00    -0.153 OA
ATOM     30  O   UNL     1      -0.490  -4.937  -1.267  0.00  0.00    -0.153 OA
BRANCH  28  35
ATOM     31  C   UNL     1      -0.018   1.503   0.010  0.00  0.00    +0.044 C 
ATOM     32  C   UNL     1       0.002  -0.004   0.002  0.00  0.00    -0.050 A 
ATOM     33  C   UNL     1       0.006  -0.689  -1.199  0.00  0.00    +0.005 A 
ATOM     34  C   UNL     1       0.025  -2.071  -1.206  0.00  0.00    +0.029 A 
ATOM     35  C   UNL     1       0.040  -2.768  -0.013  0.00  0.00    +0.105 A 
ATOM     36  C   UNL     1       0.037  -2.084   1.188  0.00  0.00    +0.029 A 
ATOM     37  C   UNL     1       0.023  -0.702   1.195  0.00  0.00    +0.005 A 
ENDBRANCH  28  35
ENDBRANCH  22  28
ENDBRANCH  21  25
ENDBRANCH   1  21
TORSDOF 7
