REMARK  Name = ZINC35124820
REMARK  15 active torsions:
REMARK  status: ('A' for Active; 'I' for Inactive)
REMARK    1  A    between atoms: C_1  and  C_2
REMARK    2  A    between atoms: C_2  and  N_3
REMARK    3  A    between atoms: N_3  and  C_4
REMARK    4  A    between atoms: N_3  and  C_6
REMARK    5  A    between atoms: C_4  and  C_5
REMARK    6  A    between atoms: C_6  and  C_7
REMARK    7  A    between atoms: C_7  and  C_8
REMARK    8  A    between atoms: C_8  and  C_9
REMARK    9  A    between atoms: C_9  and  C_11
REMARK   10  A    between atoms: C_9  and  N_12
REMARK   11  A    between atoms: C_13  and  C_15
REMARK   12  A    between atoms: C_19  and  C_21
REMARK   13  A    between atoms: C_21  and  S_22
REMARK   14  A    between atoms: S_22  and  C_23
REMARK   15  A    between atoms: C_27  and  C_32
REMARK                            x       y       z     vdW  Elec       q    Type
REMARK                         _______ _______ _______ _____ _____    ______ ____
ROOT
ATOM      1  C   UNL     1       3.400  -2.884   4.434  0.00  0.00    +0.037 A 
ATOM      2  C   UNL     1       4.056  -2.927   3.202  0.00  0.00    +0.013 A 
ATOM      3  C   UNL     1       5.397  -2.613   3.127  0.00  0.00    +0.001 A 
ATOM      4  C   UNL     1       6.093  -2.257   4.270  0.00  0.00    +0.004 A 
ATOM      5  C   UNL     1       5.449  -2.213   5.493  0.00  0.00    -0.036 A 
ATOM      6  C   UNL     1       4.106  -2.519   5.581  0.00  0.00    +0.017 A 
ENDROOT
BRANCH   1   8
ATOM      7  N   UNL     1       1.284  -3.571   3.412  0.00  0.00    -0.309 N 
ATOM      8  C   UNL     1       1.963  -3.219   4.522  0.00  0.00    +0.244 C 
ATOM      9  O   UNL     1       1.393  -3.176   5.595  0.00  0.00    -0.270 OA
ATOM     10  H   UNL     1       1.739  -3.605   2.556  0.00  0.00    +0.149 HD
BRANCH   7  11
ATOM     11  C   UNL     1      -0.140  -3.903   3.499  0.00  0.00    +0.070 C 
ATOM     12  C   UNL     1      -0.298  -5.375   3.886  0.00  0.00    +0.028 C 
BRANCH  11  13
ATOM     13  C   UNL     1      -0.805  -3.658   2.143  0.00  0.00    +0.020 C 
BRANCH  13  14
ATOM     14  C   UNL     1      -0.756  -2.164   1.814  0.00  0.00    -0.017 C 
BRANCH  14  15
ATOM     15  C   UNL     1      -1.421  -1.919   0.458  0.00  0.00    -0.079 C 
BRANCH  15  16
ATOM     16  N   UNL     1      -1.374  -0.485   0.142  0.00  0.00    +0.379 N 
ATOM     17  H   UNL     1      -1.792   0.039   0.895  0.00  0.00    -0.082 HD
BRANCH  16  19
ATOM     18  C   UNL     1       0.082   1.451  -0.216  0.00  0.00    -0.017 C 
ATOM     19  C   UNL     1       0.024  -0.066  -0.029  0.00  0.00    -0.082 C 
ENDBRANCH  16  19
BRANCH  16  20
ATOM     20  C   UNL     1      -2.116  -0.233  -1.101  0.00  0.00    -0.082 C 
ATOM     21  C   UNL     1      -3.600  -0.533  -0.879  0.00  0.00    -0.017 C 
ENDBRANCH  16  20
ENDBRANCH  15  16
ENDBRANCH  14  15
ENDBRANCH  13  14
ENDBRANCH  11  13
ENDBRANCH   7  11
ENDBRANCH   1   8
BRANCH   5  22
ATOM     22  C   UNL     1       6.214  -1.825   6.732  0.00  0.00    +0.114 C 
BRANCH  22  23
ATOM     23  S   UNL     1       6.123  -0.028   6.961  0.00  0.00    -0.062 S 
BRANCH  23  24
ATOM     24  C   UNL     1       7.053   0.263   8.429  0.00  0.00    +0.258 A 
ATOM     25  N   UNL     1       7.248   1.438   8.973  0.00  0.00    -0.203 NA
ATOM     26  C   UNL     1       8.009   1.279  10.091  0.00  0.00    +0.111 A 
ATOM     27  C   UNL     1       8.515   2.163  11.045  0.00  0.00    +0.035 A 
ATOM     28  C   UNL     1       9.272   1.681  12.090  0.00  0.00    -0.048 A 
ATOM     29  C   UNL     1       9.534   0.324  12.198  0.00  0.00    +0.007 A 
ATOM     30  C   UNL     1       9.040  -0.561  11.261  0.00  0.00    +0.049 A 
ATOM     31  C   UNL     1       8.276  -0.093  10.205  0.00  0.00    +0.156 A 
ATOM     32  O   UNL     1       7.662  -0.690   9.157  0.00  0.00    -0.431 OA
ATOM     33  C   UNL     1       9.820   2.634  13.121  0.00  0.00    +0.044 C 
ENDBRANCH  23  24
ENDBRANCH  22  23
ENDBRANCH   5  22
TORSDOF 11
