REMARK  Name = ZINC35442268
REMARK  10 active torsions:
REMARK  status: ('A' for Active; 'I' for Inactive)
REMARK    1  A    between atoms: C_1  and  O_2
REMARK    2  A    between atoms: O_2  and  C_3
REMARK    3  A    between atoms: C_6  and  C_9
REMARK    4  A    between atoms: C_9  and  N_10
REMARK    5  A    between atoms: C_11  and  C_13
REMARK    6  A    between atoms: C_13  and  C_14
REMARK    7  A    between atoms: C_14  and  C_15
REMARK    8  A    between atoms: C_25  and  N_28
REMARK    9  A    between atoms: N_28  and  C_29
REMARK   10  A    between atoms: C_29  and  C_30
REMARK                            x       y       z     vdW  Elec       q    Type
REMARK                         _______ _______ _______ _____ _____    ______ ____
ROOT
ATOM      1  C   UNL     1       8.346  -4.502  -5.645  0.00  0.00    -0.050 C 
ATOM      2  C   UNL     1       8.974  -5.024  -6.946  0.00  0.00    +0.089 C 
ATOM      3  N   UNL     1      10.216  -5.747  -6.704  0.00  0.00    -0.318 N 
ATOM      4  C   UNL     1      10.666  -6.099  -5.483  0.00  0.00    +0.200 C 
ATOM      5  O   UNL     1      11.656  -6.791  -5.367  0.00  0.00    -0.278 OA
ATOM      6  C   UNL     1       9.928  -5.622  -4.275  0.00  0.00    +0.021 C 
ATOM      7  N   UNL     1       8.488  -5.543  -4.643  0.00  0.00    +0.391 N 
ATOM      8  C   UNL     1       7.781  -5.374  -3.378  0.00  0.00    -0.059 C 
ATOM      9  C   UNL     1       8.633  -6.124  -2.321  0.00  0.00    +0.036 C 
ATOM     10  C   UNL     1       9.917  -6.592  -3.085  0.00  0.00    +0.010 C 
ATOM     11  H   UNL     1      10.755  -5.991  -7.472  0.00  0.00    +0.149 HD
ATOM     12  H   UNL     1       8.207  -6.426  -5.044  0.00  0.00    -0.080 HD
ENDROOT
BRANCH   9  13
ATOM     13  N   UNL     1       7.892  -7.277  -1.793  0.00  0.00    -0.311 NA
ATOM     14  H   UNL     1       6.899  -7.099  -1.792  0.00  0.00    +0.122 HD
BRANCH  13  15
ATOM     15  C   UNL     1       8.364  -7.635  -0.449  0.00  0.00    +0.116 C 
BRANCH  15  16
ATOM     16  C   UNL     1       7.583  -8.820   0.059  0.00  0.00    -0.034 A 
ATOM     17  C   UNL     1       6.412  -8.623   0.768  0.00  0.00    +0.005 A 
ATOM     18  C   UNL     1       5.696  -9.710   1.233  0.00  0.00    +0.000 A 
ATOM     19  C   UNL     1       6.149 -10.993   0.990  0.00  0.00    +0.000 A 
ATOM     20  C   UNL     1       7.319 -11.189   0.280  0.00  0.00    +0.000 A 
ATOM     21  C   UNL     1       8.033 -10.103  -0.189  0.00  0.00    +0.005 A 
ENDBRANCH  15  16
ENDBRANCH  13  15
ENDBRANCH   9  13
BRANCH   1  22
ATOM     22  C   UNL     1       6.864  -4.195  -5.870  0.00  0.00    -0.005 C 
BRANCH  22  23
ATOM     23  C   UNL     1       6.728  -3.010  -6.827  0.00  0.00    +0.094 C 
BRANCH  23  25
ATOM     24  N   UNL     1       4.912  -1.606  -7.751  0.00  0.00    -0.311 N 
ATOM     25  C   UNL     1       5.275  -2.631  -6.955  0.00  0.00    +0.213 C 
ATOM     26  O   UNL     1       4.431  -3.249  -6.340  0.00  0.00    -0.276 OA
ATOM     27  H   UNL     1       5.587  -1.112  -8.243  0.00  0.00    +0.149 HD
BRANCH  24  28
ATOM     28  C   UNL     1       3.500  -1.238  -7.875  0.00  0.00    +0.139 C 
BRANCH  28  32
ATOM     29  C   UNL     1       3.119   2.073 -10.549  0.00  0.00    +0.120 A 
ATOM     30  C   UNL     1       3.064   0.776 -11.038  0.00  0.00    +0.046 A 
ATOM     31  C   UNL     1       3.188  -0.293 -10.171  0.00  0.00    +0.009 A 
ATOM     32  C   UNL     1       3.366  -0.071  -8.818  0.00  0.00    -0.030 A 
ATOM     33  C   UNL     1       3.420   1.221  -8.329  0.00  0.00    +0.009 A 
ATOM     34  C   UNL     1       3.303   2.294  -9.192  0.00  0.00    +0.046 A 
BRANCH  29  36
ATOM     35  C   UNL     1       2.811   2.825 -12.783  0.00  0.00    +0.277 C 
ATOM     36  O   UNL     1       2.998   3.127 -11.399  0.00  0.00    -0.495 OA
ENDBRANCH  29  36
ENDBRANCH  28  32
ENDBRANCH  24  28
ENDBRANCH  23  25
ENDBRANCH  22  23
ENDBRANCH   1  22
TORSDOF 9
