REMARK  Name = ZINC66967202
REMARK  13 active torsions:
REMARK  status: ('A' for Active; 'I' for Inactive)
REMARK    1  A    between atoms: C_1  and  C_2
REMARK    2  A    between atoms: C_2  and  C_3
REMARK    3  A    between atoms: C_3  and  C_4
REMARK    4  A    between atoms: C_4  and  N_5
REMARK    5  A    between atoms: C_11  and  N_14
REMARK    6  A    between atoms: N_14  and  C_15
REMARK    7  A    between atoms: C_15  and  C_17
REMARK    8  A    between atoms: C_15  and  C_18
REMARK    9  A    between atoms: N_20  and  C_21
REMARK   10  A    between atoms: C_22  and  C_29
REMARK   11  A    between atoms: C_26  and  C_27
REMARK   12  A    between atoms: C_27  and  C_28
REMARK   13  A    between atoms: C_29  and  C_30
REMARK                            x       y       z     vdW  Elec       q    Type
REMARK                         _______ _______ _______ _____ _____    ______ ____
ROOT
ATOM      1  N   UNL     1      -8.256  -5.846  -2.268  0.00  0.00    -0.333 N 
ATOM      2  H   UNL     1      -8.099  -6.218  -1.386  0.00  0.00    +0.147 HD
ENDROOT
BRANCH   1   9
ATOM      3  N   UNL     1      -7.967  -2.623   0.788  0.00  0.00    +0.385 N 
ATOM      4  C   UNL     1      -8.652  -1.645  -0.087  0.00  0.00    -0.042 C 
ATOM      5  C   UNL     1      -8.708  -2.289  -1.454  0.00  0.00    -0.061 A 
ATOM      6  C   UNL     1      -8.931  -1.761  -2.712  0.00  0.00    +0.002 A 
ATOM      7  C   UNL     1      -8.931  -2.585  -3.822  0.00  0.00    +0.002 A 
ATOM      8  C   UNL     1      -8.707  -3.940  -3.678  0.00  0.00    +0.023 A 
ATOM      9  C   UNL     1      -8.482  -4.475  -2.416  0.00  0.00    +0.029 A 
ATOM     10  C   UNL     1      -8.483  -3.646  -1.303  0.00  0.00    -0.042 A 
ATOM     11  C   UNL     1      -8.273  -3.932   0.166  0.00  0.00    -0.040 C 
ATOM     12  H   UNL     1      -6.971  -2.459   0.795  0.00  0.00    -0.081 HD
BRANCH   3  13
ATOM     13  C   UNL     1      -8.509  -2.562   2.153  0.00  0.00    -0.078 C 
BRANCH  13  14
ATOM     14  C   UNL     1      -8.073  -1.254   2.816  0.00  0.00    -0.019 C 
BRANCH  14  16
ATOM     15  C   UNL     1      -8.201   0.118   4.900  0.00  0.00    +0.004 C 
ATOM     16  C   UNL     1      -8.637  -1.190   4.237  0.00  0.00    -0.005 C 
ENDBRANCH  14  16
ENDBRANCH  13  14
ENDBRANCH   3  13
ENDBRANCH   1   9
BRANCH   1  17
ATOM     17  C   UNL     1      -8.256  -6.720  -3.443  0.00  0.00    +0.154 C 
ATOM     18  C   UNL     1      -9.691  -7.141  -3.766  0.00  0.00    +0.038 C 
BRANCH  17  19
ATOM     19  C   UNL     1      -7.425  -7.945  -3.158  0.00  0.00    +0.237 C 
ATOM     20  O   UNL     1      -6.886  -8.074  -2.079  0.00  0.00    -0.273 OA
ATOM     21  N   UNL     1      -7.281  -8.896  -4.102  0.00  0.00    -0.284 N 
ATOM     22  H   UNL     1      -7.787  -8.840  -4.928  0.00  0.00    +0.155 HD
BRANCH  21  23
ATOM     23  C   UNL     1      -6.401  -9.963  -3.892  0.00  0.00    +0.040 A 
ATOM     24  C   UNL     1      -5.038  -9.726  -3.761  0.00  0.00    -0.026 A 
ATOM     25  C   UNL     1      -4.172 -10.781  -3.554  0.00  0.00    +0.005 A 
ATOM     26  C   UNL     1      -4.660 -12.073  -3.475  0.00  0.00    +0.001 A 
ATOM     27  C   UNL     1      -6.016 -12.312  -3.605  0.00  0.00    +0.005 A 
ATOM     28  C   UNL     1      -6.888 -11.260  -3.807  0.00  0.00    -0.026 A 
BRANCH  28  29
ATOM     29  C   UNL     1      -8.366 -11.521  -3.941  0.00  0.00    +0.033 C 
ATOM     30  C   UNL     1      -8.731 -11.638  -5.422  0.00  0.00    +0.009 C 
ENDBRANCH  28  29
BRANCH  24  31
ATOM     31  C   UNL     1      -4.506  -8.319  -3.847  0.00  0.00    +0.033 C 
ATOM     32  C   UNL     1      -3.012  -8.318  -3.518  0.00  0.00    +0.009 C 
ENDBRANCH  24  31
ENDBRANCH  21  23
ENDBRANCH  17  19
ENDBRANCH   1  17
TORSDOF 9
