REMARK  Name = ZINC39923396
REMARK  11 active torsions:
REMARK  status: ('A' for Active; 'I' for Inactive)
REMARK    1  A    between atoms: C_1  and  O_2
REMARK    2  A    between atoms: O_2  and  C_3
REMARK    3  A    between atoms: C_6  and  C_11
REMARK    4  A    between atoms: C_8  and  O_9
REMARK    5  A    between atoms: O_9  and  C_10
REMARK    6  A    between atoms: C_15  and  S_24
REMARK    7  A    between atoms: N_17  and  C_18
REMARK    8  A    between atoms: S_24  and  C_25
REMARK    9  A    between atoms: C_25  and  C_26
REMARK   10  A    between atoms: N_28  and  N_29
REMARK   11  A    between atoms: C_30  and  C_31
REMARK                            x       y       z     vdW  Elec       q    Type
REMARK                         _______ _______ _______ _____ _____    ______ ____
ROOT
ATOM      1  C   UNL     1       2.599  -2.547   4.288  0.00  0.00    +0.189 C 
ATOM      2  N   UNL     1       3.153  -3.866   3.883  0.00  0.00    -0.230 NA
ATOM      3  N   UNL     1       4.210  -4.101   4.879  0.00  0.00    -0.226 NA
ATOM      4  C   UNL     1       4.807  -2.765   5.104  0.00  0.00    +0.218 C 
ATOM      5  N   UNL     1       3.778  -1.775   4.731  0.00  0.00    -0.284 N 
ATOM      6  H   UNL     1       3.537  -3.826   2.951  0.00  0.00    +0.143 HD
ATOM      7  H   UNL     1       3.825  -4.474   5.734  0.00  0.00    +0.143 HD
ENDROOT
BRANCH   1  11
ATOM      8  C   UNL     1       0.720  -0.629   0.960  0.00  0.00    +0.162 A 
ATOM      9  C   UNL     1       2.073  -0.926   0.919  0.00  0.00    +0.050 A 
ATOM     10  C   UNL     1       2.678  -1.546   1.997  0.00  0.00    +0.010 A 
ATOM     11  C   UNL     1       1.935  -1.871   3.117  0.00  0.00    -0.008 A 
ATOM     12  C   UNL     1       0.585  -1.579   3.164  0.00  0.00    +0.056 A 
ATOM     13  C   UNL     1      -0.026  -0.952   2.089  0.00  0.00    +0.162 A 
BRANCH   8  15
ATOM     14  C   UNL     1       0.952   0.282  -1.225  0.00  0.00    +0.277 C 
ATOM     15  O   UNL     1       0.124  -0.019  -0.099  0.00  0.00    -0.491 OA
ENDBRANCH   8  15
BRANCH  13  16
ATOM     16  O   UNL     1      -1.353  -0.657   2.136  0.00  0.00    -0.491 OA
ATOM     17  C   UNL     1      -2.055  -1.017   3.328  0.00  0.00    +0.277 C 
ENDBRANCH  13  16
ENDBRANCH   1  11
BRANCH   5  18
ATOM     18  C   UNL     1       3.895  -0.384   4.782  0.00  0.00    +0.033 A 
ATOM     19  C   UNL     1       2.790   0.417   4.525  0.00  0.00    +0.023 A 
ATOM     20  C   UNL     1       2.909   1.792   4.577  0.00  0.00    +0.002 A 
ATOM     21  C   UNL     1       4.127   2.371   4.884  0.00  0.00    +0.000 A 
ATOM     22  C   UNL     1       5.229   1.576   5.141  0.00  0.00    +0.002 A 
ATOM     23  C   UNL     1       5.116   0.200   5.096  0.00  0.00    +0.023 A 
ENDBRANCH   5  18
BRANCH   4  24
ATOM     24  S   UNL     1       5.249  -2.568   6.853  0.00  0.00    -0.112 S 
BRANCH  24  25
ATOM     25  C   UNL     1       3.680  -2.806   7.731  0.00  0.00    +0.169 C 
BRANCH  25  26
ATOM     26  C   UNL     1       3.909  -2.667   9.214  0.00  0.00    +0.242 C 
ATOM     27  O   UNL     1       5.021  -2.431   9.637  0.00  0.00    -0.273 OA
ATOM     28  N   UNL     1       2.877  -2.804  10.071  0.00  0.00    -0.206 N 
ATOM     29  H   UNL     1       1.988  -2.993   9.733  0.00  0.00    +0.177 HD
BRANCH  28  30
ATOM     30  N   UNL     1       3.090  -2.675  11.450  0.00  0.00    -0.188 NA
ATOM     31  C   UNL     1       2.088  -2.809  12.282  0.00  0.00    +0.136 C 
BRANCH  31  32
ATOM     32  C   UNL     1       2.301  -2.679  13.662  0.00  0.00    +0.000 C 
ATOM     33  C   UNL     1       1.353  -2.797  14.675  0.00  0.00    +0.004 A 
ATOM     34  C   UNL     1      -0.034  -3.065  14.658  0.00  0.00    +0.010 A 
ATOM     35  C   UNL     1      -0.723  -3.123  15.826  0.00  0.00    +0.001 A 
ATOM     36  C   UNL     1      -0.094  -2.923  17.058  0.00  0.00    +0.002 A 
ATOM     37  C   UNL     1       1.232  -2.662  17.151  0.00  0.00    +0.026 A 
ATOM     38  C   UNL     1       2.021  -2.586  15.972  0.00  0.00    +0.043 A 
ATOM     39  N   UNL     1       3.304  -2.350  15.796  0.00  0.00    -0.380 N 
ATOM     40  C   UNL     1       3.611  -2.389  14.363  0.00  0.00    +0.150 C 
ATOM     41  H   UNL     1       3.946  -2.180  16.503  0.00  0.00    +0.160 HD
ENDBRANCH  31  32
ENDBRANCH  28  30
ENDBRANCH  25  26
ENDBRANCH  24  25
ENDBRANCH   4  24
TORSDOF 9
