REMARK  Name = ZINC52586884
REMARK  11 active torsions:
REMARK  status: ('A' for Active; 'I' for Inactive)
REMARK    1  A    between atoms: C_1  and  C_2
REMARK    2  A    between atoms: C_7  and  C_9
REMARK    3  A    between atoms: C_7  and  N_27
REMARK    4  A    between atoms: C_9  and  N_10
REMARK    5  A    between atoms: N_13  and  N_14
REMARK    6  A    between atoms: C_15  and  C_17
REMARK    7  A    between atoms: C_17  and  O_18
REMARK    8  A    between atoms: O_18  and  C_19
REMARK    9  A    between atoms: C_22  and  C_25
REMARK   10  A    between atoms: N_27  and  C_28
REMARK   11  A    between atoms: N_27  and  C_29
REMARK                            x       y       z     vdW  Elec       q    Type
REMARK                         _______ _______ _______ _____ _____    ______ ____
ROOT
ATOM      1  N   UNL     1       1.168  -3.642   1.832  0.00  0.00    -0.300 N 
ATOM      2  C   UNL     1       1.450  -4.332   2.954  0.00  0.00    +0.316 C 
ATOM      3  O   UNL     1       1.771  -3.741   3.967  0.00  0.00    -0.251 OA
ATOM      4  N   UNL     1       1.376  -5.678   2.954  0.00  0.00    -0.218 N 
ATOM      5  H   UNL     1       0.912  -4.113   1.024  0.00  0.00    +0.150 HD
ATOM      6  H   UNL     1       1.578  -6.175   3.762  0.00  0.00    +0.174 HD
ENDROOT
BRANCH   4   7
ATOM      7  N   UNL     1       1.006  -6.359   1.787  0.00  0.00    -0.230 N 
ATOM      8  C   UNL     1       0.931  -7.705   1.787  0.00  0.00    +0.267 C 
ATOM      9  O   UNL     1       1.185  -8.326   2.797  0.00  0.00    -0.271 OA
ATOM     10  H   UNL     1       0.803  -5.862   0.979  0.00  0.00    +0.173 HD
BRANCH   8  11
ATOM     11  C   UNL     1       0.533  -8.437   0.532  0.00  0.00    +0.326 C 
BRANCH  11  12
ATOM     12  O   UNL     1       0.527  -9.844   0.783  0.00  0.00    -0.483 OA
BRANCH  12  13
ATOM     13  C   UNL     1       0.188 -10.654  -0.253  0.00  0.00    +0.121 A 
ATOM     14  C   UNL     1      -0.128 -10.102  -1.488  0.00  0.00    +0.047 A 
ATOM     15  C   UNL     1      -0.473 -10.920  -2.542  0.00  0.00    +0.022 A 
ATOM     16  C   UNL     1      -0.505 -12.306  -2.366  0.00  0.00    +0.052 A 
ATOM     17  C   UNL     1      -0.187 -12.856  -1.122  0.00  0.00    +0.022 A 
ATOM     18  C   UNL     1       0.162 -12.032  -0.075  0.00  0.00    +0.047 A 
BRANCH  16  19
ATOM     19  C   UNL     1      -0.863 -13.160  -3.459  0.00  0.00    +0.099 C 
ATOM     20  N   UNL     1      -1.147 -13.837  -4.325  0.00  0.00    -0.191 NA
ENDBRANCH  16  19
ENDBRANCH  12  13
ENDBRANCH  11  12
ENDBRANCH   8  11
ENDBRANCH   4   7
BRANCH   1  21
ATOM     21  C   UNL     1       1.249  -2.179   1.832  0.00  0.00    +0.094 C 
BRANCH  21  27
ATOM     22  C   UNL     1       0.744   1.923  -0.978  0.00  0.00    +0.007 C 
ATOM     23  C   UNL     1       0.796   0.394  -0.997  0.00  0.00    -0.015 C 
ATOM     24  C   UNL     1      -0.517  -0.154  -1.561  0.00  0.00    +0.003 C 
ATOM     25  C   UNL     1      -0.465  -1.683  -1.580  0.00  0.00    -0.001 C 
ATOM     26  C   UNL     1      -0.265  -2.205  -0.156  0.00  0.00    -0.010 C 
ATOM     27  C   UNL     1       1.048  -1.657   0.407  0.00  0.00    -0.050 C 
ATOM     28  C   UNL     1       0.997  -0.128   0.427  0.00  0.00    -0.007 C 
BRANCH  27  29
ATOM     29  N   UNL     1       2.166  -2.098  -0.438  0.00  0.00    +0.381 N 
ATOM     30  C   UNL     1       3.436  -1.698   0.181  0.00  0.00    -0.096 C 
ATOM     31  C   UNL     1       2.128  -3.561  -0.575  0.00  0.00    -0.096 C 
ATOM     32  H   UNL     1       2.087  -1.673  -1.349  0.00  0.00    -0.082 HD
ENDBRANCH  27  29
ENDBRANCH  21  27
ENDBRANCH   1  21
TORSDOF 8
