REMARK  Name = ZINC37005507
REMARK  10 active torsions:
REMARK  status: ('A' for Active; 'I' for Inactive)
REMARK    1  A    between atoms: C_1  and  C_2
REMARK    2  A    between atoms: C_2  and  C_3
REMARK    3  A    between atoms: C_2  and  C_4
REMARK    4  A    between atoms: C_4  and  C_5
REMARK    5  A    between atoms: C_5  and  C_7
REMARK    6  A    between atoms: C_5  and  N_24
REMARK    7  A    between atoms: N_9  and  C_10
REMARK    8  A    between atoms: C_15  and  O_18
REMARK    9  A    between atoms: O_18  and  C_19
REMARK   10  A    between atoms: C_19  and  C_20
REMARK                            x       y       z     vdW  Elec       q    Type
REMARK                         _______ _______ _______ _____ _____    ______ ____
ROOT
ATOM      1  C   UNL     1       3.163  -0.915  -2.097  0.00  0.00    +0.199 C 
ATOM      2  O   UNL     1       3.642  -0.236  -2.981  0.00  0.00    -0.278 OA
ATOM      3  N   UNL     1       3.466  -2.225  -2.015  0.00  0.00    -0.314 N 
ATOM      4  H   UNL     1       3.083  -2.768  -1.308  0.00  0.00    +0.149 HD
ENDROOT
BRANCH   3   5
ATOM      5  C   UNL     1       4.373  -2.831  -2.993  0.00  0.00    +0.075 C 
ATOM      6  C   UNL     1       3.581  -3.242  -4.236  0.00  0.00    +0.022 C 
ATOM      7  C   UNL     1       4.529  -3.874  -5.258  0.00  0.00    +0.004 C 
ATOM      8  C   UNL     1       5.191  -5.109  -4.643  0.00  0.00    +0.032 C 
ATOM      9  C   UNL     1       5.982  -4.698  -3.400  0.00  0.00    +0.120 C 
ATOM     10  C   UNL     1       5.035  -4.066  -2.378  0.00  0.00    +0.054 C 
BRANCH   9  11
ATOM     11  O   UNL     1       6.601  -5.851  -2.826  0.00  0.00    -0.368 OA
BRANCH  11  12
ATOM     12  C   UNL     1       7.910  -6.121  -3.332  0.00  0.00    +0.273 C 
BRANCH  12  13
ATOM     13  C   UNL     1       8.472  -7.370  -2.651  0.00  0.00    +0.413 C 
ATOM     14  F   UNL     1       7.636  -8.461  -2.915  0.00  0.00    -0.168 F 
ATOM     15  F   UNL     1       9.754  -7.635  -3.147  0.00  0.00    -0.168 F 
ATOM     16  F   UNL     1       8.540  -7.158  -1.270  0.00  0.00    -0.168 F 
ENDBRANCH  12  13
ENDBRANCH  11  12
ENDBRANCH   9  11
ENDBRANCH   3   5
BRANCH   1  17
ATOM     17  C   UNL     1       2.230  -0.292  -1.091  0.00  0.00    +0.013 C 
BRANCH  17  18
ATOM     18  N   UNL     1       2.424   1.164  -1.079  0.00  0.00    +0.386 N 
ATOM     19  H   UNL     1       1.874   1.571  -0.338  0.00  0.00    -0.089 HD
ATOM     20  H   UNL     1       3.400   1.373  -0.926  0.00  0.00    -0.089 HD
ATOM     21  H   UNL     1       2.133   1.550  -1.965  0.00  0.00    -0.089 HD
ENDBRANCH  17  18
BRANCH  17  22
ATOM     22  C   UNL     1       0.783  -0.611  -1.471  0.00  0.00    -0.004 C 
BRANCH  22  24
ATOM     23  C   UNL     1      -1.608  -0.283  -0.826  0.00  0.00    +0.007 C 
ATOM     24  C   UNL     1      -0.157  -0.094  -0.380  0.00  0.00    -0.018 C 
ATOM     25  C   UNL     1       0.085  -0.875   0.913  0.00  0.00    +0.007 C 
ENDBRANCH  22  24
ENDBRANCH  17  22
ENDBRANCH   1  17
TORSDOF 8
