REMARK  Name = ZINC58775575
REMARK  12 active torsions:
REMARK  status: ('A' for Active; 'I' for Inactive)
REMARK    1  A    between atoms: C_1  and  C_2
REMARK    2  A    between atoms: N_5  and  C_8
REMARK    3  A    between atoms: C_8  and  C_10
REMARK    4  A    between atoms: C_8  and  C_27
REMARK    5  A    between atoms: C_10  and  N_11
REMARK    6  A    between atoms: C_12  and  C_14
REMARK    7  A    between atoms: C_14  and  C_15
REMARK    8  A    between atoms: C_15  and  C_16
REMARK    9  A    between atoms: C_16  and  N_17
REMARK   10  A    between atoms: N_20  and  C_21
REMARK   11  A    between atoms: C_27  and  C_28
REMARK   12  A    between atoms: C_27  and  C_29
REMARK                            x       y       z     vdW  Elec       q    Type
REMARK                         _______ _______ _______ _____ _____    ______ ____
ROOT
ATOM      1  N   UNL     1       1.765  -3.793   0.561  0.00  0.00    -0.317 N 
ATOM      2  C   UNL     1       2.970  -4.172   0.092  0.00  0.00    +0.213 C 
ATOM      3  O   UNL     1       3.081  -5.206  -0.531  0.00  0.00    -0.276 OA
ATOM      4  H   UNL     1       1.676  -2.966   1.060  0.00  0.00    +0.149 HD
ENDROOT
BRANCH   1   5
ATOM      5  C   UNL     1       0.588  -4.631   0.318  0.00  0.00    +0.089 C 
BRANCH   5   6
ATOM      6  C   UNL     1      -0.615  -4.049   1.063  0.00  0.00    -0.049 C 
BRANCH   6  11
ATOM      7  C   UNL     1       0.575  -3.814   6.635  0.00  0.00    +0.007 C 
ATOM      8  C   UNL     1       0.461  -3.479   5.146  0.00  0.00    -0.018 C 
ATOM      9  C   UNL     1      -1.016  -3.435   4.743  0.00  0.00    -0.016 C 
ATOM     10  C   UNL     1      -1.121  -3.179   3.238  0.00  0.00    -0.078 C 
ATOM     11  N   UNL     1      -0.445  -4.257   2.507  0.00  0.00    +0.383 N 
ATOM     12  C   UNL     1       0.986  -4.260   2.834  0.00  0.00    -0.078 C 
ATOM     13  C   UNL     1       1.172  -4.557   4.323  0.00  0.00    -0.016 C 
ATOM     14  H   UNL     1      -0.850  -5.144   2.767  0.00  0.00    -0.081 HD
ENDBRANCH   6  11
BRANCH   6  15
ATOM     15  C   UNL     1      -1.893  -4.748   0.594  0.00  0.00    -0.029 C 
ATOM     16  C   UNL     1      -3.087  -4.215   1.387  0.00  0.00    +0.005 C 
ATOM     17  C   UNL     1      -2.107  -4.474  -0.896  0.00  0.00    +0.005 C 
ENDBRANCH   6  15
ENDBRANCH   5   6
ENDBRANCH   1   5
BRANCH   2  18
ATOM     18  C   UNL     1       4.181  -3.310   0.343  0.00  0.00    +0.097 C 
BRANCH  18  19
ATOM     19  C   UNL     1       5.411  -3.963  -0.290  0.00  0.00    +0.028 C 
BRANCH  19  20
ATOM     20  C   UNL     1       6.641  -3.088  -0.036  0.00  0.00    +0.106 C 
BRANCH  20  21
ATOM     21  N   UNL     1       7.819  -3.713  -0.642  0.00  0.00    -0.299 N 
ATOM     22  C   UNL     1       9.023  -3.116  -0.545  0.00  0.00    +0.300 C 
ATOM     23  O   UNL     1       9.132  -2.059   0.046  0.00  0.00    -0.253 OA
ATOM     24  N   UNL     1      10.107  -3.691  -1.102  0.00  0.00    -0.297 N 
ATOM     25  H   UNL     1       7.732  -4.556  -1.114  0.00  0.00    +0.150 HD
ATOM     26  H   UNL     1      10.020  -4.534  -1.574  0.00  0.00    +0.151 HD
BRANCH  24  27
ATOM     27  C   UNL     1      11.417  -3.043  -0.996  0.00  0.00    +0.074 C 
ATOM     28  C   UNL     1      11.568  -2.013  -2.117  0.00  0.00    +0.022 C 
ATOM     29  C   UNL     1      12.935  -1.335  -2.007  0.00  0.00    +0.002 C 
ATOM     30  C   UNL     1      14.038  -2.389  -2.130  0.00  0.00    +0.000 C 
ATOM     31  C   UNL     1      13.886  -3.419  -1.009  0.00  0.00    +0.002 C 
ATOM     32  C   UNL     1      12.519  -4.096  -1.119  0.00  0.00    +0.022 C 
ENDBRANCH  24  27
ENDBRANCH  20  21
ENDBRANCH  19  20
ENDBRANCH  18  19
ENDBRANCH   2  18
TORSDOF 9
