REMARK  Name = ZINC04372570
REMARK  9 active torsions:
REMARK  status: ('A' for Active; 'I' for Inactive)
REMARK    1  A    between atoms: C_3  and  C_8
REMARK    2  A    between atoms: C_8  and  O_10
REMARK    3  A    between atoms: O_10  and  C_11
REMARK    4  A    between atoms: C_14  and  C_17
REMARK    5  A    between atoms: N_18  and  N_19
REMARK    6  A    between atoms: C_20  and  C_22
REMARK    7  A    between atoms: C_22  and  O_23
REMARK    8  A    between atoms: O_23  and  C_24
REMARK    9  A    between atoms: C_27  and  N_30
REMARK                            x       y       z     vdW  Elec       q    Type
REMARK                         _______ _______ _______ _____ _____    ______ ____
ROOT
ATOM      1  C   UNL     1      -0.615  11.548  -0.080  0.00  0.00    +0.138 C 
ATOM      2  N   UNL     1       0.573  12.065  -0.158  0.00  0.00    -0.188 NA
ENDROOT
BRANCH   1   6
ATOM      3  C   UNL     1      -1.092   7.330   0.013  0.00  0.00    +0.132 A 
ATOM      4  C   UNL     1       0.181   7.882  -0.065  0.00  0.00    +0.047 A 
ATOM      5  C   UNL     1       0.340   9.250  -0.101  0.00  0.00    +0.013 A 
ATOM      6  C   UNL     1      -0.780  10.084  -0.048  0.00  0.00    -0.005 A 
ATOM      7  C   UNL     1      -2.058   9.524   0.036  0.00  0.00    +0.013 A 
ATOM      8  C   UNL     1      -2.208   8.155   0.066  0.00  0.00    +0.047 A 
BRANCH   3   9
ATOM      9  O   UNL     1      -1.244   5.981   0.043  0.00  0.00    -0.422 OA
BRANCH   9  10
ATOM     10  C   UNL     1      -1.648   5.386  -1.097  0.00  0.00    +0.344 C 
ATOM     11  O   UNL     1      -1.944   6.061  -2.062  0.00  0.00    -0.245 OA
BRANCH  10  14
ATOM     12  C   UNL     1      -2.226   1.917  -2.413  0.00  0.00    +0.002 A 
ATOM     13  C   UNL     1      -2.150   3.293  -2.350  0.00  0.00    +0.015 A 
ATOM     14  C   UNL     1      -1.732   3.913  -1.171  0.00  0.00    +0.060 A 
ATOM     15  C   UNL     1      -1.393   3.134  -0.062  0.00  0.00    +0.030 A 
ATOM     16  C   UNL     1      -1.479   1.759  -0.137  0.00  0.00    +0.019 A 
ATOM     17  C   UNL     1      -1.889   1.151  -1.312  0.00  0.00    +0.015 A 
ATOM     18 BR   UNL     1      -1.029   0.702   1.365  0.00  0.00    -0.050 Br
ENDBRANCH  10  14
ENDBRANCH   9  10
ENDBRANCH   3   9
ENDBRANCH   1   6
BRANCH   2  19
ATOM     19  N   UNL     1       0.731  13.457  -0.189  0.00  0.00    -0.204 N 
ATOM     20  C   UNL     1       1.964  13.994  -0.270  0.00  0.00    +0.270 C 
ATOM     21  O   UNL     1       2.938  13.272  -0.317  0.00  0.00    -0.270 OA
ATOM     22  H   UNL     1      -0.048  14.034  -0.153  0.00  0.00    +0.177 HD
BRANCH  20  23
ATOM     23  C   UNL     1       2.134  15.491  -0.304  0.00  0.00    +0.326 C 
BRANCH  23  24
ATOM     24  O   UNL     1       3.523  15.811  -0.391  0.00  0.00    -0.483 OA
BRANCH  24  25
ATOM     25  C   UNL     1       3.851  17.130  -0.431  0.00  0.00    +0.121 A 
ATOM     26  C   UNL     1       2.856  18.095  -0.393  0.00  0.00    +0.048 A 
ATOM     27  C   UNL     1       3.192  19.434  -0.429  0.00  0.00    +0.036 A 
ATOM     28  C   UNL     1       4.519  19.813  -0.513  0.00  0.00    +0.126 A 
ATOM     29  C   UNL     1       5.513  18.853  -0.556  0.00  0.00    +0.036 A 
ATOM     30  C   UNL     1       5.182  17.512  -0.515  0.00  0.00    +0.048 A 
BRANCH  28  31
ATOM     31  N   UNL     1       4.876  21.248  -0.557  0.00  0.00    +0.056 N 
ATOM     32  O   UNL     1       6.045  21.583  -0.630  0.00  0.00    -0.126 OA
ATOM     33  O   UNL     1       4.002  22.095  -0.519  0.00  0.00    -0.126 OA
ENDBRANCH  28  31
ENDBRANCH  24  25
ENDBRANCH  23  24
ENDBRANCH  20  23
ENDBRANCH   2  19
TORSDOF 9
