REMARK  Name = ZINC65496082
REMARK  10 active torsions:
REMARK  status: ('A' for Active; 'I' for Inactive)
REMARK    1  A    between atoms: C_1  and  N_2
REMARK    2  A    between atoms: C_3  and  C_5
REMARK    3  A    between atoms: C_5  and  C_6
REMARK    4  A    between atoms: N_13  and  C_14
REMARK    5  A    between atoms: C_14  and  C_15
REMARK    6  A    between atoms: N_17  and  C_18
REMARK    7  A    between atoms: C_20  and  O_26
REMARK    8  A    between atoms: C_22  and  O_24
REMARK    9  A    between atoms: O_24  and  C_25
REMARK   10  A    between atoms: O_26  and  C_27
REMARK                            x       y       z     vdW  Elec       q    Type
REMARK                         _______ _______ _______ _____ _____    ______ ____
ROOT
ATOM      1  C   UNL     1      -2.808  -2.671  -0.020  0.00  0.00    +0.029 C 
ATOM      2  C   UNL     1      -3.069  -4.125   0.253  0.00  0.00    +0.200 C 
ATOM      3  O   UNL     1      -2.325  -4.718   1.005  0.00  0.00    -0.278 OA
ATOM      4  N   UNL     1      -4.089  -4.792  -0.299  0.00  0.00    -0.318 N 
ATOM      5  C   UNL     1      -5.020  -4.170  -1.237  0.00  0.00    +0.085 C 
ATOM      6  C   UNL     1      -4.926  -2.646  -1.132  0.00  0.00    -0.058 C 
ATOM      7  N   UNL     1      -3.512  -2.254  -1.239  0.00  0.00    +0.394 N 
ATOM      8  H   UNL     1      -4.215  -5.725  -0.068  0.00  0.00    +0.149 HD
ATOM      9  H   UNL     1      -3.095  -2.703  -2.041  0.00  0.00    -0.080 HD
ENDROOT
BRANCH   1  10
ATOM     10  C   UNL     1      -1.305  -2.450  -0.202  0.00  0.00    +0.089 C 
BRANCH  10  13
ATOM     11  C   UNL     1       0.956  -4.021  -2.861  0.00  0.00    +0.128 C 
ATOM     12  N   UNL     1       0.472  -3.193  -1.754  0.00  0.00    -0.318 N 
ATOM     13  C   UNL     1      -0.807  -3.302  -1.340  0.00  0.00    +0.212 C 
ATOM     14  O   UNL     1      -1.556  -4.085  -1.885  0.00  0.00    -0.276 OA
ATOM     15  H   UNL     1       1.071  -2.567  -1.318  0.00  0.00    +0.148 HD
ENDBRANCH  10  13
ENDBRANCH   1  10
BRANCH   7  16
ATOM     16  C   UNL     1      -3.419  -0.795  -1.387  0.00  0.00    +0.020 C 
BRANCH  16  17
ATOM     17  C   UNL     1      -4.004  -0.386  -2.714  0.00  0.00    +0.201 C 
ATOM     18  O   UNL     1      -4.454  -1.227  -3.463  0.00  0.00    -0.278 OA
ATOM     19  N   UNL     1      -4.027   0.914  -3.068  0.00  0.00    -0.287 N 
ATOM     20  H   UNL     1      -3.737   1.593  -2.439  0.00  0.00    +0.155 HD
BRANCH  19  21
ATOM     21  C   UNL     1      -4.471   1.284  -4.342  0.00  0.00    +0.040 A 
ATOM     22  C   UNL     1      -5.136   2.489  -4.524  0.00  0.00    +0.069 A 
ATOM     23  C   UNL     1      -5.575   2.855  -5.787  0.00  0.00    +0.125 A 
ATOM     24  C   UNL     1      -5.350   2.018  -6.869  0.00  0.00    +0.091 A 
ATOM     25  C   UNL     1      -4.686   0.814  -6.689  0.00  0.00    +0.125 A 
ATOM     26  C   UNL     1      -4.241   0.449  -5.427  0.00  0.00    +0.069 A 
BRANCH  25  27
ATOM     27  O   UNL     1      -4.467  -0.007  -7.750  0.00  0.00    -0.495 OA
ATOM     28  C   UNL     1      -4.948   0.434  -9.021  0.00  0.00    +0.277 C 
ENDBRANCH  25  27
BRANCH  23  29
ATOM     29  O   UNL     1      -6.226   4.035  -5.964  0.00  0.00    -0.495 OA
ATOM     30  C   UNL     1      -6.650   4.348  -7.292  0.00  0.00    +0.277 C 
ENDBRANCH  23  29
ENDBRANCH  19  21
ENDBRANCH  16  17
ENDBRANCH   7  16
TORSDOF 7
