REMARK  Name = ZINC12507683
REMARK  5 active torsions:
REMARK  status: ('A' for Active; 'I' for Inactive)
REMARK    1  A    between atoms: C_3  and  C_12
REMARK    2  A    between atoms: C_6  and  O_7
REMARK    3  A    between atoms: O_7  and  C_8
REMARK    4  A    between atoms: C_8  and  C_9
REMARK    5  A    between atoms: C_9  and  O_10
REMARK                            x       y       z     vdW  Elec       q    Type
REMARK                         _______ _______ _______ _____ _____    ______ ____
ROOT
ATOM      1  C   UNL     1       3.671   2.188  -0.023  0.00  0.00    +0.210 C 
ATOM      2  N   UNL     1       3.436   3.572   0.429  0.00  0.00    -0.294 N 
ATOM      3  C   UNL     1       2.968   4.508  -0.454  0.00  0.00    +0.160 C 
ATOM      4  N   UNL     1       3.247   4.439  -1.744  0.00  0.00    -0.302 N 
ATOM      5  C   UNL     1       3.961   3.379  -2.192  0.00  0.00    +0.213 A 
ATOM      6  N   UNL     1       4.195   2.275  -1.391  0.00  0.00    -0.286 N 
ATOM      7  C   UNL     1       4.949   1.381  -2.113  0.00  0.00    +0.076 A 
ATOM      8  C   UNL     1       5.494   0.132  -1.843  0.00  0.00    +0.077 A 
ATOM      9  C   UNL     1       6.222  -0.526  -2.817  0.00  0.00    +0.164 A 
ATOM     10  C   UNL     1       6.416   0.055  -4.066  0.00  0.00    +0.164 A 
ATOM     11  C   UNL     1       5.883   1.295  -4.351  0.00  0.00    +0.079 A 
ATOM     12  C   UNL     1       5.143   1.971  -3.376  0.00  0.00    +0.095 A 
ATOM     13  N   UNL     1       4.508   3.182  -3.363  0.00  0.00    -0.212 NA
ATOM     14  O   UNL     1       7.138  -0.612  -5.015  0.00  0.00    -0.488 OA
ATOM     15  C   UNL     1       8.534  -0.758  -4.750  0.00  0.00    +0.232 C 
ATOM     16  C   UNL     1       8.791  -1.968  -3.866  0.00  0.00    +0.082 C 
ATOM     17  C   UNL     1       8.184  -1.813  -2.481  0.00  0.00    +0.232 C 
ATOM     18  O   UNL     1       6.758  -1.755  -2.556  0.00  0.00    -0.488 OA
ATOM     19  N   UNL     1       2.193   5.537   0.009  0.00  0.00    -0.332 N 
ATOM     20  H   UNL     1       1.982   5.598   0.954  0.00  0.00    +0.145 HD
ATOM     21  H   UNL     1       1.856   6.206  -0.607  0.00  0.00    +0.145 HD
ATOM     22  H   UNL     1       3.612   3.818   1.351  0.00  0.00    +0.151 HD
ATOM     23  H   UNL     1       2.948   5.131  -2.355  0.00  0.00    +0.171 HD
ENDROOT
BRANCH   1  26
ATOM     24  C   UNL     1       0.508   0.490  -1.190  0.00  0.00    +0.046 A 
ATOM     25  C   UNL     1       1.694   1.199  -1.196  0.00  0.00    +0.012 A 
ATOM     26  C   UNL     1       2.377   1.415  -0.013  0.00  0.00    +0.007 A 
ATOM     27  C   UNL     1       1.876   0.922   1.178  0.00  0.00    +0.028 A 
ATOM     28  C   UNL     1       0.690   0.212   1.189  0.00  0.00    +0.061 A 
ATOM     29  C   UNL     1       0.003  -0.005   0.003  0.00  0.00    +0.122 A 
ATOM     30 BR   UNL     1       2.813   1.220   2.793  0.00  0.00    -0.050 Br
BRANCH  29  31
ATOM     31  O   UNL     1      -1.163  -0.703   0.011  0.00  0.00    -0.490 OA
BRANCH  31  32
ATOM     32  C   UNL     1      -1.624  -1.183   1.275  0.00  0.00    +0.256 C 
BRANCH  32  33
ATOM     33  C   UNL     1      -2.941  -1.938   1.085  0.00  0.00    +0.196 C 
BRANCH  33  34
ATOM     34  O   UNL     1      -2.710  -3.108   0.298  0.00  0.00    -0.392 OA
ATOM     35  H   UNL     1      -3.503  -3.637   0.137  0.00  0.00    +0.210 HD
ENDBRANCH  33  34
ENDBRANCH  32  33
ENDBRANCH  31  32
ENDBRANCH  29  31
ENDBRANCH   1  26
TORSDOF 5
