REMARK  Name = ZINC03651070
REMARK  7 active torsions:
REMARK  status: ('A' for Active; 'I' for Inactive)
REMARK    1  A    between atoms: C_1  and  N_2
REMARK    2  A    between atoms: N_2  and  C_3
REMARK    3  A    between atoms: C_7  and  S_9
REMARK    4  A    between atoms: S_9  and  C_10
REMARK    5  A    between atoms: N_12  and  C_13
REMARK    6  A    between atoms: C_15  and  S_20
REMARK    7  A    between atoms: S_20  and  C_21
REMARK                            x       y       z     vdW  Elec       q    Type
REMARK                         _______ _______ _______ _____ _____    ______ ____
ROOT
ATOM      1  C   UNL     1      -2.054   5.161   3.304  0.00  0.00    +0.152 C 
ATOM      2  N   UNL     1      -1.028   6.172   3.034  0.00  0.00    -0.317 N 
ATOM      3  C   UNL     1      -1.254   7.488   3.370  0.00  0.00    +0.180 C 
ATOM      4  N   UNL     1      -2.392   7.837   4.061  0.00  0.00    -0.326 N 
ATOM      5  H   UNL     1      -0.422   9.345   3.287  0.00  0.00    +0.159 HD
ATOM      6  H   UNL     1      -2.989   7.147   4.392  0.00  0.00    +0.169 HD
ATOM      7  N   UNL     1      -0.341   8.371   2.993  0.00  0.00    -0.371 N 
ATOM      8  H   UNL     1       0.448   8.076   2.406  0.00  0.00    +0.159 HD
ENDROOT
BRANCH   4   9
ATOM      9  C   UNL     1      -2.688   9.185   4.287  0.00  0.00    +0.061 A 
ATOM     10  C   UNL     1      -2.306  10.145   3.361  0.00  0.00    +0.042 A 
ATOM     11  C   UNL     1      -2.606  11.482   3.587  0.00  0.00    +0.010 A 
ATOM     12  C   UNL     1      -3.278  11.856   4.744  0.00  0.00    +0.016 A 
ATOM     13  C   UNL     1      -3.652  10.899   5.668  0.00  0.00    +0.023 A 
ATOM     14  C   UNL     1      -3.360   9.566   5.444  0.00  0.00    +0.064 A 
ATOM     15 CL   UNL     1      -3.832   8.367   6.607  0.00  0.00    -0.081 Cl
BRANCH  11  16
ATOM     16  S   UNL     1      -2.128  12.703   2.410  0.00  0.00    -0.129 S 
ATOM     17  C   UNL     1      -2.716  14.260   3.131  0.00  0.00    +0.090 C 
ENDBRANCH  11  16
ENDBRANCH   4   9
BRANCH   2  18
ATOM     18  C   UNL     1       0.179   5.800   2.435  0.00  0.00    +0.045 A 
ATOM     19  C   UNL     1       0.480   6.235   1.149  0.00  0.00    +0.026 A 
ATOM     20  C   UNL     1       1.673   5.869   0.556  0.00  0.00    +0.003 A 
ATOM     21  C   UNL     1       2.573   5.074   1.240  0.00  0.00    +0.015 A 
ATOM     22  C   UNL     1       2.276   4.632   2.524  0.00  0.00    +0.010 A 
ATOM     23  C   UNL     1       1.078   4.998   3.123  0.00  0.00    +0.040 A 
BRANCH  22  24
ATOM     24  S   UNL     1       3.422   3.614   3.393  0.00  0.00    -0.129 S 
ATOM     25  C   UNL     1       4.800   3.412   2.231  0.00  0.00    +0.090 C 
ENDBRANCH  22  24
ENDBRANCH   2  18
TORSDOF 4
