REMARK  Name = ZINC21725634
REMARK  7 active torsions:
REMARK  status: ('A' for Active; 'I' for Inactive)
REMARK    1  A    between atoms: C_1  and  C_2
REMARK    2  A    between atoms: C_2  and  O_3
REMARK    3  A    between atoms: O_3  and  C_4
REMARK    4  A    between atoms: C_6  and  C_15
REMARK    5  A    between atoms: C_9  and  O_10
REMARK    6  A    between atoms: O_10  and  C_11
REMARK    7  A    between atoms: C_11  and  C_12
REMARK                            x       y       z     vdW  Elec       q    Type
REMARK                         _______ _______ _______ _____ _____    ______ ____
ROOT
ATOM      1  C   UNL     1       2.775  -0.826   3.682  0.00  0.00    +0.063 C 
ATOM      2  C   UNL     1       3.891  -0.076   4.416  0.00  0.00    +0.109 C 
ATOM      3  C   UNL     1       3.673  -0.084   5.902  0.00  0.00    +0.219 C 
ATOM      4  O   UNL     1       3.977   0.899   6.544  0.00  0.00    -0.275 OA
ATOM      5  N   UNL     1       3.150  -1.149   6.548  0.00  0.00    -0.270 N 
ATOM      6  C   UNL     1       2.680  -2.214   5.783  0.00  0.00    +0.134 A 
ATOM      7  C   UNL     1       2.489  -2.102   4.431  0.00  0.00    +0.020 A 
ATOM      8  C   UNL     1       2.015  -3.319   3.963  0.00  0.00    +0.141 A 
ATOM      9  N   UNL     1       1.922  -4.144   4.979  0.00  0.00    -0.171 NA
ATOM     10  N   UNL     1       2.337  -3.470   6.140  0.00  0.00    -0.194 N 
ATOM     11  C   UNL     1       2.385  -4.001   7.424  0.00  0.00    +0.196 A 
ATOM     12  N   UNL     1       2.767  -3.424   8.539  0.00  0.00    -0.221 NA
ATOM     13  C   UNL     1       2.758  -4.064   9.727  0.00  0.00    +0.081 A 
ATOM     14  C   UNL     1       3.137  -3.560  10.993  0.00  0.00    +0.029 A 
ATOM     15  C   UNL     1       3.072  -4.351  12.110  0.00  0.00    +0.002 A 
ATOM     16  C   UNL     1       2.637  -5.667  12.042  0.00  0.00    +0.001 A 
ATOM     17  C   UNL     1       2.259  -6.193  10.820  0.00  0.00    +0.017 A 
ATOM     18  C   UNL     1       2.320  -5.408   9.696  0.00  0.00    +0.041 A 
ATOM     19  S   UNL     1       1.950  -5.645   7.975  0.00  0.00    -0.048 S 
ATOM     20  H   UNL     1       3.105  -1.157   7.647  0.00  0.00    +0.156 HD
ENDROOT
BRANCH   1  23
ATOM     21  C   UNL     1      -0.148   1.182   2.380  0.00  0.00    +0.162 A 
ATOM     22  C   UNL     1       0.993   0.398   2.422  0.00  0.00    +0.053 A 
ATOM     23  C   UNL     1       1.534   0.028   3.639  0.00  0.00    -0.036 A 
ATOM     24  C   UNL     1       0.938   0.438   4.817  0.00  0.00    +0.008 A 
ATOM     25  C   UNL     1      -0.201   1.221   4.783  0.00  0.00    +0.050 A 
ATOM     26  C   UNL     1      -0.745   1.600   3.566  0.00  0.00    +0.163 A 
BRANCH  21  27
ATOM     27  O   UNL     1      -0.682   1.547   1.184  0.00  0.00    -0.489 OA
BRANCH  27  29
ATOM     28  C   UNL     1      -0.753   1.593  -1.232  0.00  0.00    +0.048 C 
ATOM     29  C   UNL     1      -0.013   1.086   0.008  0.00  0.00    +0.226 C 
ENDBRANCH  27  29
ENDBRANCH  21  27
BRANCH  26  30
ATOM     30  O   UNL     1      -1.862   2.374   3.531  0.00  0.00    -0.479 OA
BRANCH  30  31
ATOM     31  C   UNL     1      -2.420   2.766   4.787  0.00  0.00    +0.324 C 
BRANCH  31  32
ATOM     32  C   UNL     1      -3.644   3.613   4.550  0.00  0.00    +0.248 C 
ATOM     33  O   UNL     1      -4.003   3.858   3.418  0.00  0.00    -0.272 OA
ATOM     34  N   UNL     1      -4.340   4.099   5.597  0.00  0.00    -0.327 N 
ATOM     35  H   UNL     1      -5.233   4.718   5.425  0.00  0.00    +0.145 HD
ATOM     36  H   UNL     1      -4.014   3.878   6.624  0.00  0.00    +0.145 HD
ENDBRANCH  31  32
ENDBRANCH  30  31
ENDBRANCH  26  30
ENDBRANCH   1  23
TORSDOF 6
