REMARK  Name = ZINC40777792
REMARK  7 active torsions:
REMARK  status: ('A' for Active; 'I' for Inactive)
REMARK    1  A    between atoms: C_1  and  C_2
REMARK    2  A    between atoms: C_3  and  C_29
REMARK    3  A    between atoms: C_9  and  N_28
REMARK    4  A    between atoms: C_10  and  N_14
REMARK    5  A    between atoms: N_14  and  N_15
REMARK    6  A    between atoms: N_15  and  C_16
REMARK    7  A    between atoms: N_15  and  C_22
REMARK                            x       y       z     vdW  Elec       q    Type
REMARK                         _______ _______ _______ _____ _____    ______ ____
ROOT
ATOM      1  C   UNL     1       1.284  -2.939  -1.051  0.00  0.00    +0.066 C 
ATOM      2  C   UNL     1       1.432  -4.248  -0.320  0.00  0.00    +0.050 A 
ATOM      3  C   UNL     1       1.730  -5.396  -0.976  0.00  0.00    +0.011 A 
ATOM      4  S   UNL     1       1.770  -6.555   0.381  0.00  0.00    -0.057 S 
ATOM      5  C   UNL     1       1.409  -5.476   1.620  0.00  0.00    +0.164 A 
ATOM      6  N   UNL     1       1.282  -4.327   0.990  0.00  0.00    -0.230 NA
ATOM      7  N   UNL     1       1.281  -5.733   2.978  0.00  0.00    -0.277 N 
ATOM      8  C   UNL     1       0.975  -4.699   3.856  0.00  0.00    +0.150 A 
ATOM      9  C   UNL     1       0.849  -4.945   5.224  0.00  0.00    +0.105 A 
ATOM     10  C   UNL     1       0.541  -3.870   6.061  0.00  0.00    +0.139 A 
ATOM     11  N   UNL     1       0.381  -2.662   5.527  0.00  0.00    -0.332 N 
ATOM     12  C   UNL     1       0.508  -2.473   4.229  0.00  0.00    +0.200 A 
ATOM     13  N   UNL     1       0.804  -3.458   3.405  0.00  0.00    -0.221 NA
ATOM     14  C   UNL     1       1.963  -5.629  -2.447  0.00  0.00    +0.053 C 
ATOM     15  H   UNL     1       1.404  -6.635   3.314  0.00  0.00    +0.156 HD
ATOM     16  H   UNL     1       0.166  -1.910   6.101  0.00  0.00    +0.168 HD
ENDROOT
BRANCH   9  17
ATOM     17  N   UNL     1       1.027  -6.237   5.744  0.00  0.00    -0.353 N 
ATOM     18  H   UNL     1       1.240  -6.973   5.151  0.00  0.00    +0.143 HD
ATOM     19  H   UNL     1       0.936  -6.392   6.697  0.00  0.00    +0.143 HD
ENDBRANCH   9  17
BRANCH  10  20
ATOM     20  N   UNL     1       0.404  -4.060   7.431  0.00  0.00    -0.243 N 
ATOM     21  H   UNL     1       0.522  -4.944   7.813  0.00  0.00    +0.172 HD
BRANCH  20  22
ATOM     22  N   UNL     1       0.095  -2.975   8.261  0.00  0.00    -0.221 N 
BRANCH  22  23
ATOM     23  C   UNL     1      -1.195  -2.838   8.780  0.00  0.00    +0.053 A 
ATOM     24  C   UNL     1      -2.292  -2.828   7.927  0.00  0.00    +0.025 A 
ATOM     25  C   UNL     1      -3.565  -2.692   8.444  0.00  0.00    +0.002 A 
ATOM     26  C   UNL     1      -3.749  -2.566   9.809  0.00  0.00    +0.000 A 
ATOM     27  C   UNL     1      -2.660  -2.575  10.661  0.00  0.00    +0.002 A 
ATOM     28  C   UNL     1      -1.384  -2.716  10.151  0.00  0.00    +0.025 A 
ENDBRANCH  22  23
BRANCH  22  29
ATOM     29  C   UNL     1       1.076  -2.029   8.569  0.00  0.00    +0.053 A 
ATOM     30  C   UNL     1       2.399  -2.256   8.210  0.00  0.00    +0.025 A 
ATOM     31  C   UNL     1       3.366  -1.319   8.516  0.00  0.00    +0.002 A 
ATOM     32  C   UNL     1       3.020  -0.157   9.180  0.00  0.00    +0.000 A 
ATOM     33  C   UNL     1       1.704   0.072   9.540  0.00  0.00    +0.002 A 
ATOM     34  C   UNL     1       0.731  -0.858   9.232  0.00  0.00    +0.025 A 
ENDBRANCH  22  29
ENDBRANCH  20  22
ENDBRANCH  10  20
TORSDOF 5
