REMARK  Name = ZINC66514869
REMARK  8 active torsions:
REMARK  status: ('A' for Active; 'I' for Inactive)
REMARK    1  A    between atoms: C_1  and  C_2
REMARK    2  A    between atoms: C_2  and  C_3
REMARK    3  A    between atoms: C_3  and  N_4
REMARK    4  A    between atoms: C_10  and  N_13
REMARK    5  A    between atoms: C_14  and  C_16
REMARK    6  A    between atoms: C_16  and  C_17
REMARK    7  A    between atoms: C_17  and  N_18
REMARK    8  A    between atoms: C_19  and  C_21
REMARK                            x       y       z     vdW  Elec       q    Type
REMARK                         _______ _______ _______ _____ _____    ______ ____
ROOT
ATOM      1  N   UNL     1       2.662  -4.836   4.070  0.00  0.00    -0.285 N 
ATOM      2  C   UNL     1       3.285  -5.996   4.357  0.00  0.00    +0.219 C 
ATOM      3  O   UNL     1       2.755  -7.052   4.082  0.00  0.00    -0.275 OA
ATOM      4  H   UNL     1       3.118  -3.992   4.216  0.00  0.00    +0.155 HD
ENDROOT
BRANCH   1  11
ATOM      5  N   UNL     1       0.742  -1.982   1.245  0.00  0.00    +0.385 N 
ATOM      6  C   UNL     1      -0.610  -2.520   1.521  0.00  0.00    -0.042 C 
ATOM      7  C   UNL     1      -0.390  -3.796   2.301  0.00  0.00    -0.061 A 
ATOM      8  C   UNL     1      -1.220  -4.872   2.559  0.00  0.00    +0.002 A 
ATOM      9  C   UNL     1      -0.764  -5.935   3.316  0.00  0.00    +0.002 A 
ATOM     10  C   UNL     1       0.522  -5.926   3.819  0.00  0.00    +0.023 A 
ATOM     11  C   UNL     1       1.359  -4.848   3.562  0.00  0.00    +0.035 A 
ATOM     12  C   UNL     1       0.899  -3.782   2.801  0.00  0.00    -0.041 A 
ATOM     13  C   UNL     1       1.563  -2.496   2.364  0.00  0.00    -0.040 C 
ATOM     14  H   UNL     1       1.089  -2.328   0.363  0.00  0.00    -0.081 HD
BRANCH   5  15
ATOM     15  C   UNL     1       0.723  -0.513   1.251  0.00  0.00    -0.078 C 
BRANCH  15  17
ATOM     16  C   UNL     1      -0.046   1.523   0.024  0.00  0.00    +0.002 C 
ATOM     17  C   UNL     1      -0.027  -0.007   0.017  0.00  0.00    -0.022 C 
ENDBRANCH  15  17
ENDBRANCH   5  15
ENDBRANCH   1  11
BRANCH   2  18
ATOM     18  C   UNL     1       4.638  -5.982   5.019  0.00  0.00    +0.115 C 
BRANCH  18  19
ATOM     19  C   UNL     1       5.117  -7.419   5.231  0.00  0.00    +0.113 C 
BRANCH  19  20
ATOM     20  N   UNL     1       6.433  -7.405   5.875  0.00  0.00    -0.311 N 
ATOM     21  C   UNL     1       7.056  -8.566   6.162  0.00  0.00    +0.245 C 
ATOM     22  O   UNL     1       6.525  -9.625   5.886  0.00  0.00    -0.270 OA
ATOM     23  H   UNL     1       6.856  -6.561   6.096  0.00  0.00    +0.149 HD
BRANCH  21  24
ATOM     24  C   UNL     1       8.377  -8.552   6.809  0.00  0.00    +0.044 A 
ATOM     25  C   UNL     1       9.076  -9.774   7.126  0.00  0.00    +0.020 A 
ATOM     26  C   UNL     1      10.279  -9.625   7.716  0.00  0.00    +0.046 A 
ATOM     27  S   UNL     1      10.452  -7.858   7.837  0.00  0.00    -0.104 S 
ATOM     28  C   UNL     1       9.008  -7.372   7.135  0.00  0.00    +0.058 A 
ENDBRANCH  21  24
ENDBRANCH  19  20
ENDBRANCH  18  19
ENDBRANCH   2  18
TORSDOF 7
