REMARK  Name = ZINC16042461
REMARK  9 active torsions:
REMARK  status: ('A' for Active; 'I' for Inactive)
REMARK    1  A    between atoms: C_1  and  C_2
REMARK    2  A    between atoms: C_2  and  C_3
REMARK    3  A    between atoms: C_2  and  C_4
REMARK    4  A    between atoms: C_7  and  C_10
REMARK    5  A    between atoms: N_29  and  C_32
REMARK    6  A    between atoms: C_34  and  C_39
REMARK    7  A    between atoms: C_34  and  C_40
REMARK    8  A    between atoms: C_35  and  C_37
REMARK    9  A    between atoms: C_35  and  C_38
REMARK                            x       y       z     vdW  Elec       q    Type
REMARK                         _______ _______ _______ _____ _____    ______ ____
ROOT
ATOM      1  C   UNL     1      -2.553   3.869   0.047  0.00  0.00    +0.154 C 
ATOM      2  C   UNL     1      -3.179   3.771   1.419  0.00  0.00    +0.046 A 
ATOM      3  C   UNL     1      -4.466   3.414   1.627  0.00  0.00    -0.015 A 
ATOM      4  C   UNL     1      -4.686   3.438   3.059  0.00  0.00    +0.003 A 
ATOM      5  C   UNL     1      -5.804   3.172   3.853  0.00  0.00    +0.010 A 
ATOM      6  C   UNL     1      -5.647   3.297   5.212  0.00  0.00    +0.001 A 
ATOM      7  C   UNL     1      -4.442   3.673   5.782  0.00  0.00    +0.002 A 
ATOM      8  C   UNL     1      -3.318   3.946   5.022  0.00  0.00    +0.026 A 
ATOM      9  C   UNL     1      -3.448   3.827   3.639  0.00  0.00    +0.047 A 
ATOM     10  N   UNL     1      -2.563   4.018   2.617  0.00  0.00    -0.356 N 
ATOM     11  H   UNL     1      -1.637   4.287   2.724  0.00  0.00    +0.166 HD
ATOM     12  C   UNL     1      -5.447   3.065   0.537  0.00  0.00    +0.069 C 
ATOM     13  C   UNL     1      -4.907   3.586  -0.802  0.00  0.00    +0.167 C 
ATOM     14  N   UNL     1      -3.489   3.246  -0.913  0.00  0.00    -0.276 N 
ATOM     15  C   UNL     1      -3.010   2.406  -1.833  0.00  0.00    +0.234 C 
ATOM     16  O   UNL     1      -1.827   2.138  -1.792  0.00  0.00    -0.274 OA
ATOM     17  C   UNL     1      -3.831   1.772  -2.908  0.00  0.00    +0.204 C 
ATOM     18  N   UNL     1      -5.219   2.201  -2.859  0.00  0.00    -0.288 N 
ATOM     19  C   UNL     1      -5.711   3.013  -1.925  0.00  0.00    +0.237 C 
ATOM     20  O   UNL     1      -6.886   3.307  -1.990  0.00  0.00    -0.274 OA
ENDROOT
BRANCH  18  21
ATOM     21  C   UNL     1      -6.131   1.711  -3.900  0.00  0.00    +0.074 C 
ATOM     22  C   UNL     1      -6.155   0.183  -3.869  0.00  0.00    +0.009 C 
ATOM     23  C   UNL     1      -7.052  -0.366  -4.976  0.00  0.00    -0.072 C 
ATOM     24  C   UNL     1      -6.562   1.660  -6.364  0.00  0.00    -0.072 C 
ATOM     25  C   UNL     1      -5.619   2.163  -5.269  0.00  0.00    +0.009 C 
ATOM     26  C   UNL     1      -7.877   2.439  -6.322  0.00  0.00    -0.010 C 
ATOM     27  C   UNL     1      -5.891   1.957  -7.723  0.00  0.00    -0.010 C 
ATOM     28  C   UNL     1      -8.522  -0.200  -4.582  0.00  0.00    -0.010 C 
ATOM     29  C   UNL     1      -6.778  -1.884  -5.081  0.00  0.00    -0.010 C 
ATOM     30  N   UNL     1      -6.772   0.187  -6.328  0.00  0.00    +0.386 N 
ATOM     31  H   UNL     1      -7.568  -0.038  -6.937  0.00  0.00    -0.084 HD
ATOM     32  H   UNL     1      -5.925  -0.266  -6.690  0.00  0.00    -0.084 HD
ENDBRANCH  18  21
BRANCH   1  36
ATOM     33  C   UNL     1       1.175   1.783  -0.001  0.00  0.00    -0.045 A 
ATOM     34  C   UNL     1       1.103   3.080  -0.473  0.00  0.00    +0.004 A 
ATOM     35  C   UNL     1      -0.103   3.757  -0.453  0.00  0.00    +0.006 A 
ATOM     36  C   UNL     1      -1.238   3.133   0.030  0.00  0.00    -0.021 A 
ATOM     37  C   UNL     1      -1.165   1.836   0.503  0.00  0.00    +0.006 A 
ATOM     38  C   UNL     1       0.041   1.161   0.487  0.00  0.00    +0.004 A 
BRANCH  33  40
ATOM     39  C   UNL     1       2.871   0.651   1.411  0.00  0.00    +0.012 C 
ATOM     40  C   UNL     1       2.490   1.047  -0.017  0.00  0.00    +0.013 C 
ATOM     41  C   UNL     1       2.360  -0.211  -0.878  0.00  0.00    +0.012 C 
ENDBRANCH  33  40
ENDBRANCH   1  36
TORSDOF 3
