REMARK  Name = ZINC39631625
REMARK  11 active torsions:
REMARK  status: ('A' for Active; 'I' for Inactive)
REMARK    1  A    between atoms: C_1  and  C_2
REMARK    2  A    between atoms: C_2  and  C_4
REMARK    3  A    between atoms: C_2  and  N_11
REMARK    4  A    between atoms: C_4  and  C_5
REMARK    5  A    between atoms: C_5  and  C_6
REMARK    6  A    between atoms: C_6  and  C_7
REMARK    7  A    between atoms: C_7  and  C_8
REMARK    8  A    between atoms: C_7  and  C_9
REMARK    9  A    between atoms: C_7  and  O_10
REMARK   10  A    between atoms: C_12  and  C_14
REMARK   11  A    between atoms: C_25  and  C_27
REMARK                            x       y       z     vdW  Elec       q    Type
REMARK                         _______ _______ _______ _____ _____    ______ ____
ROOT
ATOM      1  C   UNL     1       0.262  -0.826   3.367  0.00  0.00    +0.100 C 
ATOM      2  C   UNL     1       1.588  -0.096   3.679  0.00  0.00    +0.121 C 
ATOM      3  N   UNL     1       1.264   0.799   4.815  0.00  0.00    -0.296 N 
ATOM      4  C   UNL     1       0.361  -0.006   5.672  0.00  0.00    +0.115 C 
ATOM      5  C   UNL     1      -0.538  -0.768   4.679  0.00  0.00    -0.004 C 
ATOM      6  C   UNL     1      -0.815  -2.178   5.192  0.00  0.00    -0.010 C 
ATOM      7  C   UNL     1      -1.663  -2.096   6.465  0.00  0.00    -0.082 C 
ATOM      8  N   UNL     1      -2.923  -1.404   6.172  0.00  0.00    +0.379 N 
ATOM      9  C   UNL     1      -2.652  -0.019   5.768  0.00  0.00    -0.082 C 
ATOM     10  C   UNL     1      -1.847  -0.013   4.466  0.00  0.00    -0.010 C 
ATOM     11  C   UNL     1       1.694   2.059   5.022  0.00  0.00    +0.248 C 
ATOM     12  O   UNL     1       1.415   2.634   6.056  0.00  0.00    -0.270 OA
ATOM     13  H   UNL     1      -3.403  -1.883   5.424  0.00  0.00    -0.086 HD
ATOM     14  H   UNL     1      -3.505  -1.405   6.996  0.00  0.00    -0.086 HD
ENDROOT
BRANCH  11  15
ATOM     15  C   UNL     1       2.504   2.743   3.992  0.00  0.00    +0.057 A 
ATOM     16  C   UNL     1       3.424   2.019   3.230  0.00  0.00    +0.014 A 
ATOM     17  C   UNL     1       4.178   2.662   2.271  0.00  0.00    +0.002 A 
ATOM     18  C   UNL     1       4.025   4.022   2.061  0.00  0.00    +0.021 A 
ATOM     19  C   UNL     1       3.116   4.746   2.812  0.00  0.00    +0.060 A 
ATOM     20  C   UNL     1       2.350   4.113   3.773  0.00  0.00    +0.071 A 
ATOM     21 CL   UNL     1       1.204   5.021   4.710  0.00  0.00    -0.081 Cl
ATOM     22 CL   UNL     1       2.933   6.452   2.542  0.00  0.00    -0.082 Cl
ENDBRANCH  11  15
BRANCH   1  24
ATOM     23  N   UNL     1      -1.308  -0.807   1.456  0.00  0.00    -0.312 N 
ATOM     24  C   UNL     1      -0.482  -0.116   2.266  0.00  0.00    +0.218 C 
ATOM     25  O   UNL     1      -0.338   1.078   2.109  0.00  0.00    -0.275 OA
ATOM     26  H   UNL     1      -1.423  -1.762   1.581  0.00  0.00    +0.149 HD
BRANCH  23  28
ATOM     27  C   UNL     1      -1.138  -0.017  -0.853  0.00  0.00    +0.028 C 
ATOM     28  C   UNL     1      -2.031  -0.116   0.385  0.00  0.00    +0.070 C 
BRANCH  28  29
ATOM     29  C   UNL     1      -3.299  -0.900   0.038  0.00  0.00    +0.022 C 
BRANCH  29  30
ATOM     30  C   UNL     1      -4.248  -0.892   1.239  0.00  0.00    +0.005 C 
BRANCH  30  31
ATOM     31  C   UNL     1      -5.515  -1.676   0.892  0.00  0.00    +0.034 C 
BRANCH  31  32
ATOM     32  C   UNL     1      -6.464  -1.669   2.092  0.00  0.00    +0.061 C 
ATOM     33  C   UNL     1      -7.674  -2.555   1.791  0.00  0.00    +0.041 C 
ATOM     34  C   UNL     1      -5.732  -2.206   3.324  0.00  0.00    +0.041 C 
BRANCH  32  35
ATOM     35  O   UNL     1      -6.903  -0.332   2.344  0.00  0.00    -0.389 OA
ATOM     36  H   UNL     1      -7.376   0.073   1.604  0.00  0.00    +0.210 HD
ENDBRANCH  32  35
ENDBRANCH  31  32
ENDBRANCH  30  31
ENDBRANCH  29  30
ENDBRANCH  28  29
ENDBRANCH  23  28
ENDBRANCH   1  24
TORSDOF 8
