REMARK  Name = ZINC43165126
REMARK  5 active torsions:
REMARK  status: ('A' for Active; 'I' for Inactive)
REMARK    1  A    between atoms: C_7  and  N_12
REMARK    2  A    between atoms: N_15  and  C_16
REMARK    3  A    between atoms: C_16  and  C_17
REMARK    4  A    between atoms: C_17  and  C_18
REMARK    5  A    between atoms: C_18  and  N_19
REMARK                            x       y       z     vdW  Elec       q    Type
REMARK                         _______ _______ _______ _____ _____    ______ ____
ROOT
ATOM      1  N   UNL     1       0.165  -2.679   0.899  0.00  0.00    -0.292 N 
ATOM      2  C   UNL     1      -1.117  -2.785   0.497  0.00  0.00    +0.300 C 
ATOM      3  O   UNL     1      -1.426  -2.478  -0.638  0.00  0.00    -0.253 OA
ATOM      4  N   UNL     1      -2.057  -3.232   1.353  0.00  0.00    -0.299 N 
ATOM      5  H   UNL     1       0.411  -2.925   1.804  0.00  0.00    +0.151 HD
ATOM      6  H   UNL     1      -1.811  -3.477   2.259  0.00  0.00    +0.150 HD
ENDROOT
BRANCH   1  13
ATOM      7  C   UNL     1      -0.017   1.377   0.010  0.00  0.00    +0.001 A 
ATOM      8  C   UNL     1       1.172   2.084   0.002  0.00  0.00    +0.004 A 
ATOM      9  C   UNL     1       2.375   1.409  -0.011  0.00  0.00    +0.046 A 
ATOM     10  C   UNL     1       2.398   0.018  -0.018  0.00  0.00    +0.125 A 
ATOM     11  C   UNL     1       1.207  -0.687  -0.014  0.00  0.00    +0.015 A 
ATOM     12  C   UNL     1       0.002  -0.004   0.002  0.00  0.00    +0.009 A 
ATOM     13  C   UNL     1       1.187  -2.194  -0.033  0.00  0.00    +0.111 C 
ATOM     14  C   UNL     1       2.556  -2.734   0.389  0.00  0.00    +0.068 C 
ATOM     15  C   UNL     1       3.634  -1.986  -0.407  0.00  0.00    +0.231 C 
ATOM     16  O   UNL     1       3.602  -0.610  -0.025  0.00  0.00    -0.492 OA
ENDBRANCH   1  13
BRANCH   4  17
ATOM     17  C   UNL     1      -3.451  -3.347   0.917  0.00  0.00    +0.107 C 
BRANCH  17  18
ATOM     18  C   UNL     1      -4.305  -3.873   2.072  0.00  0.00    +0.037 C 
BRANCH  18  19
ATOM     19  C   UNL     1      -5.761  -3.994   1.616  0.00  0.00    +0.104 C 
BRANCH  19  20
ATOM     20  N   UNL     1      -6.579  -4.498   2.721  0.00  0.00    -0.330 N 
ATOM     21  C   UNL     1      -7.944  -4.691   2.544  0.00  0.00    +0.096 A 
ATOM     22  C   UNL     1      -8.526  -4.409   1.312  0.00  0.00    +0.041 A 
ATOM     23  C   UNL     1      -9.885  -4.606   1.150  0.00  0.00    +0.005 A 
ATOM     24  C   UNL     1     -10.620  -5.080   2.229  0.00  0.00    +0.018 A 
ATOM     25  C   UNL     1      -9.977  -5.338   3.423  0.00  0.00    +0.084 A 
ATOM     26  N   UNL     1      -8.678  -5.146   3.548  0.00  0.00    -0.350 N 
ATOM     27  H   UNL     1      -6.168  -4.697   3.577  0.00  0.00    +0.147 HD
ATOM     28  H   UNL     1      -8.250  -5.340   4.396  0.00  0.00    +0.166 HD
ENDBRANCH  19  20
ENDBRANCH  18  19
ENDBRANCH  17  18
ENDBRANCH   4  17
TORSDOF 5
