REMARK  Name = ZINC65301106
REMARK  9 active torsions:
REMARK  status: ('A' for Active; 'I' for Inactive)
REMARK    1  A    between atoms: C_1  and  C_2
REMARK    2  A    between atoms: C_4  and  N_19
REMARK    3  A    between atoms: C_5  and  C_11
REMARK    4  A    between atoms: C_22  and  C_25
REMARK    5  A    between atoms: N_27  and  C_28
REMARK    6  A    between atoms: C_31  and  O_36
REMARK    7  A    between atoms: C_33  and  O_34
REMARK    8  A    between atoms: O_34  and  C_35
REMARK    9  A    between atoms: O_36  and  C_37
REMARK                            x       y       z     vdW  Elec       q    Type
REMARK                         _______ _______ _______ _____ _____    ______ ____
ROOT
ATOM      1  N   UNL     1      -0.373   1.161  -2.793  0.00  0.00    -0.329 N 
ATOM      2  C   UNL     1      -1.595   1.973  -2.727  0.00  0.00    +0.106 C 
ATOM      3  C   UNL     1      -1.784   2.691  -4.067  0.00  0.00    +0.031 C 
ATOM      4  C   UNL     1      -0.518   3.486  -4.398  0.00  0.00    +0.078 C 
ATOM      5  C   UNL     1       0.668   2.528  -4.526  0.00  0.00    +0.031 C 
ATOM      6  C   UNL     1       0.886   1.809  -3.185  0.00  0.00    +0.106 C 
ENDROOT
BRANCH   1  10
ATOM      7  C   UNL     1       0.522   1.563  -0.125  0.00  0.00    +0.067 C 
ATOM      8  C   UNL     1       0.396   0.063  -0.063  0.00  0.00    +0.058 A 
ATOM      9  C   UNL     1      -0.036  -0.646  -1.197  0.00  0.00    +0.050 A 
ATOM     10  C   UNL     1      -0.405  -0.184  -2.488  0.00  0.00    +0.055 A 
ATOM     11  C   UNL     1      -0.803  -1.128  -3.445  0.00  0.00    +0.074 A 
ATOM     12  C   UNL     1      -0.830  -2.489  -3.116  0.00  0.00    +0.098 A 
ATOM     13  N   UNL     1      -0.484  -2.892  -1.912  0.00  0.00    -0.353 N 
ATOM     14  C   UNL     1      -0.102  -2.042  -0.981  0.00  0.00    +0.107 A 
ATOM     15  S   UNL     1       0.426  -2.183   0.708  0.00  0.00    +0.030 S 
ATOM     16  N   UNL     1       0.694  -0.561   1.035  0.00  0.00    -0.213 NA
ATOM     17  H   UNL     1      -0.510  -3.839  -1.705  0.00  0.00    +0.166 HD
BRANCH  11  18
ATOM     18  C   UNL     1      -1.194  -0.689  -4.795  0.00  0.00    +0.250 C 
ATOM     19  O   UNL     1      -0.381  -0.142  -5.515  0.00  0.00    -0.270 OA
ATOM     20  N   UNL     1      -2.452  -0.893  -5.232  0.00  0.00    -0.297 N 
ATOM     21  C   UNL     1      -3.422  -1.627  -4.407  0.00  0.00    +0.108 C 
ATOM     22  C   UNL     1      -4.680  -0.768  -4.244  0.00  0.00    +0.019 C 
ATOM     23  C   UNL     1      -5.204  -0.371  -5.626  0.00  0.00    +0.003 C 
ATOM     24  C   UNL     1      -4.144   0.458  -6.357  0.00  0.00    +0.019 C 
ATOM     25  C   UNL     1      -2.882  -0.382  -6.541  0.00  0.00    +0.108 C 
ENDBRANCH  11  18
ENDBRANCH   1  10
BRANCH   4  26
ATOM     26  C   UNL     1      -0.713   4.221  -5.699  0.00  0.00    +0.220 C 
ATOM     27  O   UNL     1      -1.760   4.119  -6.302  0.00  0.00    -0.275 OA
ATOM     28  N   UNL     1       0.277   4.991  -6.192  0.00  0.00    -0.282 N 
ATOM     29  H   UNL     1       1.141   5.012  -5.752  0.00  0.00    +0.155 HD
BRANCH  28  30
ATOM     30  C   UNL     1       0.058   5.763  -7.343  0.00  0.00    +0.076 A 
ATOM     31  C   UNL     1      -1.201   6.289  -7.597  0.00  0.00    +0.030 A 
ATOM     32  C   UNL     1      -1.417   7.049  -8.730  0.00  0.00    +0.047 A 
ATOM     33  C   UNL     1      -0.376   7.288  -9.617  0.00  0.00    +0.124 A 
ATOM     34  C   UNL     1       0.883   6.764  -9.367  0.00  0.00    +0.093 A 
ATOM     35  C   UNL     1       1.105   6.007  -8.229  0.00  0.00    +0.145 A 
BRANCH  35  36
ATOM     36  O   UNL     1       2.340   5.498  -7.979  0.00  0.00    -0.493 OA
ATOM     37  C   UNL     1       3.366   5.788  -8.931  0.00  0.00    +0.277 C 
ENDBRANCH  35  36
BRANCH  33  38
ATOM     38  O   UNL     1      -0.592   8.037 -10.731  0.00  0.00    -0.495 OA
ATOM     39  C   UNL     1      -1.914   8.544 -10.926  0.00  0.00    +0.277 C 
ENDBRANCH  33  38
ENDBRANCH  28  30
ENDBRANCH   4  26
TORSDOF 6
