REMARK  Name = ZINC66899396
REMARK  5 active torsions:
REMARK  status: ('A' for Active; 'I' for Inactive)
REMARK    1  A    between atoms: C_4  and  N_10
REMARK    2  A    between atoms: C_5  and  C_7
REMARK    3  A    between atoms: C_11  and  C_13
REMARK    4  A    between atoms: C_13  and  N_14
REMARK    5  A    between atoms: C_18  and  C_20
REMARK                            x       y       z     vdW  Elec       q    Type
REMARK                         _______ _______ _______ _____ _____    ______ ____
ROOT
ATOM      1  C   UNL     1       6.093  -0.817  -0.282  0.00  0.00    +0.020 C 
ENDROOT
BRANCH   1   2
ATOM      2  N   UNL     1       7.120   0.230  -0.365  0.00  0.00    +0.390 N 
ATOM      3  C   UNL     1       6.943   1.000  -1.610  0.00  0.00    -0.077 C 
ATOM      4  C   UNL     1       8.249   0.867  -2.420  0.00  0.00    -0.020 C 
ATOM      5  C   UNL     1       9.297   0.500  -1.336  0.00  0.00    -0.012 C 
ATOM      6  C   UNL     1       8.462  -0.390  -0.383  0.00  0.00    -0.033 C 
ATOM      7  H   UNL     1       7.042   0.847   0.428  0.00  0.00    -0.080 HD
BRANCH   6   8
ATOM      8  C   UNL     1       9.061  -0.384   1.000  0.00  0.00    -0.016 A 
ATOM      9  C   UNL     1       8.715   0.609   1.897  0.00  0.00    +0.006 A 
ATOM     10  C   UNL     1       9.263   0.619   3.166  0.00  0.00    +0.004 A 
ATOM     11  C   UNL     1      10.159  -0.365   3.542  0.00  0.00    +0.049 A 
ATOM     12  C   UNL     1      10.511  -1.363   2.647  0.00  0.00    +0.162 A 
ATOM     13  C   UNL     1       9.954  -1.377   1.373  0.00  0.00    +0.164 A 
ATOM     14  O   UNL     1      10.275  -2.355   0.483  0.00  0.00    -0.485 OA
ATOM     15  C   UNL     1      11.454  -3.118   0.763  0.00  0.00    +0.270 C 
ATOM     16  C   UNL     1      11.424  -3.522   2.243  0.00  0.00    +0.270 C 
ATOM     17  O   UNL     1      11.398  -2.322   3.029  0.00  0.00    -0.485 OA
ENDBRANCH   6   8
ENDBRANCH   1   2
BRANCH   1  19
ATOM     18  N   UNL     1       3.634  -0.951  -0.046  0.00  0.00    -0.286 N 
ATOM     19  C   UNL     1       4.735  -0.179  -0.141  0.00  0.00    +0.201 C 
ATOM     20  O   UNL     1       4.633   1.029  -0.113  0.00  0.00    -0.278 OA
ATOM     21  H   UNL     1       3.721  -1.916  -0.001  0.00  0.00    +0.155 HD
BRANCH  18  25
ATOM     22  C   UNL     1      -0.143   0.813   0.052  0.00  0.00    +0.001 A 
ATOM     23  C   UNL     1       0.930   1.426   0.677  0.00  0.00    +0.002 A 
ATOM     24  C   UNL     1       2.182   0.845   0.646  0.00  0.00    +0.024 A 
ATOM     25  C   UNL     1       2.372  -0.362  -0.013  0.00  0.00    +0.045 A 
ATOM     26  C   UNL     1       1.287  -0.986  -0.647  0.00  0.00    +0.058 A 
ATOM     27  C   UNL     1       0.027  -0.385  -0.608  0.00  0.00    +0.015 A 
BRANCH  26  28
ATOM     28  C   UNL     1       1.476  -2.268  -1.352  0.00  0.00    +0.243 C 
ATOM     29  O   UNL     1       2.553  -2.832  -1.310  0.00  0.00    -0.270 OA
ATOM     30  N   UNL     1       0.456  -2.814  -2.042  0.00  0.00    -0.325 N 
ATOM     31  H   UNL     1      -0.403  -2.365  -2.075  0.00  0.00    +0.145 HD
ATOM     32  H   UNL     1       0.580  -3.658  -2.505  0.00  0.00    +0.145 HD
ENDBRANCH  26  28
ENDBRANCH  18  25
ENDBRANCH   1  19
TORSDOF 5
