REMARK  Name = ZINC12527167
REMARK  10 active torsions:
REMARK  status: ('A' for Active; 'I' for Inactive)
REMARK    1  A    between atoms: C_1  and  C_2
REMARK    2  A    between atoms: C_5  and  N_9
REMARK    3  A    between atoms: C_6  and  C_8
REMARK    4  A    between atoms: C_13  and  C_15
REMARK    5  A    between atoms: C_15  and  N_16
REMARK    6  A    between atoms: N_16  and  C_17
REMARK    7  A    between atoms: C_22  and  C_23
REMARK    8  A    between atoms: C_23  and  N_65
REMARK    9  A    between atoms: C_24  and  N_65
REMARK   10  A    between atoms: C_25  and  N_65
REMARK                            x       y       z     vdW  Elec       q    Type
REMARK                         _______ _______ _______ _____ _____    ______ ____
ROOT
ATOM      1  N   UNL     1      -0.718   1.528   1.213  0.00  0.00    -0.335 N 
ATOM      2  H   UNL     1      -1.510   2.082   1.135  0.00  0.00    +0.147 HD
ENDROOT
BRANCH   1   3
ATOM      3  C   UNL     1      -0.231   1.180   2.475  0.00  0.00    +0.029 A 
ATOM      4  C   UNL     1       0.901   0.382   2.589  0.00  0.00    +0.023 A 
ATOM      5  C   UNL     1       1.383   0.044   3.838  0.00  0.00    +0.002 A 
ATOM      6  C   UNL     1       0.734   0.490   4.975  0.00  0.00    +0.000 A 
ATOM      7  C   UNL     1      -0.396   1.279   4.866  0.00  0.00    +0.003 A 
ATOM      8  C   UNL     1      -0.880   1.626   3.619  0.00  0.00    -0.043 A 
BRANCH   8   9
ATOM      9  C   UNL     1      -2.111   2.487   3.501  0.00  0.00    -0.041 C 
BRANCH   9  11
ATOM     10  C   UNL     1      -3.575   0.755   4.349  0.00  0.00    -0.095 C 
ATOM     11  N   UNL     1      -3.270   1.622   3.192  0.00  0.00    +0.382 N 
ATOM     12  H   UNL     1      -3.039   1.031   2.384  0.00  0.00    -0.081 HD
BRANCH  11  13
ATOM     13  C   UNL     1      -4.446   2.453   2.859  0.00  0.00    -0.069 C 
ATOM     14  C   UNL     1      -4.867   3.295   4.065  0.00  0.00    -0.015 C 
ATOM     15  C   UNL     1      -6.085   4.143   3.695  0.00  0.00    -0.002 C 
ATOM     16  C   UNL     1      -7.239   3.227   3.284  0.00  0.00    -0.000 C 
ATOM     17  C   UNL     1      -6.818   2.385   2.077  0.00  0.00    -0.002 C 
ATOM     18  C   UNL     1      -5.600   1.537   2.448  0.00  0.00    -0.015 C 
ENDBRANCH  11  13
ENDBRANCH   9  11
ENDBRANCH   8   9
ENDBRANCH   1   3
BRANCH   1  19
ATOM     19  C   UNL     1      -0.031   1.057   0.008  0.00  0.00    +0.198 C 
BRANCH  19  24
ATOM     20  N   UNL     1      -0.487   1.406  -4.765  0.00  0.00    -0.269 N 
ATOM     21  C   UNL     1      -0.942   1.716  -3.535  0.00  0.00    +0.310 C 
ATOM     22  O   UNL     1      -1.934   2.407  -3.410  0.00  0.00    -0.252 OA
ATOM     23  N   UNL     1      -0.297   1.258  -2.443  0.00  0.00    -0.239 N 
ATOM     24  C   UNL     1      -0.752   1.568  -1.213  0.00  0.00    +0.237 C 
ATOM     25  O   UNL     1      -1.742   2.257  -1.088  0.00  0.00    -0.274 OA
ATOM     26  H   UNL     1       0.348   0.924  -4.866  0.00  0.00    +0.156 HD
ATOM     27  H   UNL     1       0.494   0.707  -2.543  0.00  0.00    +0.159 HD
BRANCH  20  32
ATOM     28  C   UNL     1      -3.459   2.924  -9.353  0.00  0.00    +0.044 C 
ATOM     29  C   UNL     1      -2.670   2.520  -8.134  0.00  0.00    -0.050 A 
ATOM     30  C   UNL     1      -3.311   2.355  -6.920  0.00  0.00    +0.005 A 
ATOM     31  C   UNL     1      -2.591   1.986  -5.801  0.00  0.00    +0.024 A 
ATOM     32  C   UNL     1      -1.220   1.780  -5.897  0.00  0.00    +0.038 A 
ATOM     33  C   UNL     1      -0.579   1.952  -7.116  0.00  0.00    -0.029 A 
ATOM     34  C   UNL     1      -1.306   2.316  -8.232  0.00  0.00    +0.008 A 
ATOM     35  C   UNL     1       0.909   1.735  -7.223  0.00  0.00    +0.045 C 
ENDBRANCH  20  32
ENDBRANCH  19  24
ENDBRANCH   1  19
TORSDOF 7
