REMARK  Name = ZINC43102895
REMARK  6 active torsions:
REMARK  status: ('A' for Active; 'I' for Inactive)
REMARK    1  A    between atoms: C_1  and  C_2
REMARK    2  A    between atoms: C_2  and  C_3
REMARK    3  A    between atoms: C_3  and  C_5
REMARK    4  A    between atoms: C_3  and  N_23
REMARK    5  A    between atoms: C_5  and  C_7
REMARK    6  A    between atoms: C_5  and  N_12
REMARK                            x       y       z     vdW  Elec       q    Type
REMARK                         _______ _______ _______ _____ _____    ______ ____
ROOT
ATOM      1  C   UNL     1       0.630  -2.023  -1.329  0.00  0.00    +0.079 C 
ENDROOT
BRANCH   1   2
ATOM      2  N   UNL     1       1.381  -2.616  -2.444  0.00  0.00    -0.294 NA
ATOM      3  C   UNL     1       0.922  -2.079  -3.732  0.00  0.00    +0.104 C 
ATOM      4  C   UNL     1       1.844  -2.580  -4.848  0.00  0.00    +0.122 C 
ATOM      5  N   UNL     1       1.911  -4.048  -4.775  0.00  0.00    -0.307 N 
ATOM      6  C   UNL     1       2.232  -4.665  -3.479  0.00  0.00    +0.122 C 
ATOM      7  C   UNL     1       1.295  -4.082  -2.416  0.00  0.00    +0.104 C 
ATOM      8  C   UNL     1       1.679  -4.828  -5.896  0.00  0.00    +0.161 A 
ATOM      9  N   UNL     1       1.388  -4.436  -7.119  0.00  0.00    -0.233 NA
ATOM     10  C   UNL     1       1.194  -5.314  -8.088  0.00  0.00    +0.120 A 
ATOM     11  C   UNL     1       1.307  -6.624  -7.764  0.00  0.00    +0.068 A 
ATOM     12  S   UNL     1       1.706  -6.506  -6.028  0.00  0.00    -0.061 S 
ENDBRANCH   1   2
BRANCH   1  13
ATOM     13  C   UNL     1      -0.808  -2.467  -1.399  0.00  0.00    +0.005 A 
ATOM     14  C   UNL     1      -1.587  -2.998  -0.425  0.00  0.00    +0.013 A 
ATOM     15  C   UNL     1      -2.894  -3.334  -0.721  0.00  0.00    +0.008 A 
ATOM     16  C   UNL     1      -3.360  -3.123  -1.976  0.00  0.00    +0.045 A 
ATOM     17  S   UNL     1      -1.931  -2.422  -2.786  0.00  0.00    -0.100 S 
ENDBRANCH   1  13
BRANCH   1  18
ATOM     18  C   UNL     1       0.699  -0.498  -1.421  0.00  0.00    -0.053 C 
BRANCH  18  19
ATOM     19  N   UNL     1       2.104  -0.072  -1.473  0.00  0.00    +0.381 N 
ATOM     20  H   UNL     1       2.549  -0.479  -2.282  0.00  0.00    -0.090 HD
ATOM     21  H   UNL     1       2.149   0.934  -1.534  0.00  0.00    -0.090 HD
ATOM     22  H   UNL     1       2.579  -0.380  -0.638  0.00  0.00    -0.090 HD
ENDBRANCH  18  19
BRANCH  18  24
ATOM     23  C   UNL     1      -0.019   1.641  -0.346  0.00  0.00    +0.002 C 
ATOM     24  C   UNL     1       0.024   0.119  -0.194  0.00  0.00    -0.018 C 
ENDBRANCH  18  24
ENDBRANCH   1  18
TORSDOF 5
