REMARK  Name = ZINC16699055
REMARK  4 active torsions:
REMARK  status: ('A' for Active; 'I' for Inactive)
REMARK    1  A    between atoms: C_13  and  C_15
REMARK    2  A    between atoms: C_15  and  N_16
REMARK    3  A    between atoms: C_19  and  C_23
REMARK    4  A    between atoms: C_19  and  C_30
REMARK                            x       y       z     vdW  Elec       q    Type
REMARK                         _______ _______ _______ _____ _____    ______ ____
ROOT
ATOM      1  N   UNL     1       0.165  -8.060   0.673  0.00  0.00    -0.215 N 
ATOM      2  C   UNL     1       0.567  -8.967  -0.239  0.00  0.00    +0.256 C 
ATOM      3  O   UNL     1       0.660  -8.809  -1.437  0.00  0.00    -0.272 OA
ATOM      4  C   UNL     1       0.880 -10.226   0.546  0.00  0.00    +0.164 C 
ATOM      5  N   UNL     1       0.590  -9.846   1.940  0.00  0.00    -0.278 N 
ATOM      6  C   UNL     1       0.185  -8.563   1.913  0.00  0.00    +0.310 C 
ATOM      7  O   UNL     1      -0.131  -7.934   2.903  0.00  0.00    -0.252 OA
ATOM      8  H   UNL     1       0.678 -10.409   2.724  0.00  0.00    +0.152 HD
ENDROOT
BRANCH   4   9
ATOM      9  C   UNL     1       2.330 -10.602   0.389  0.00  0.00    -0.011 A 
ATOM     10  C   UNL     1       3.110 -10.829   1.508  0.00  0.00    +0.009 A 
ATOM     11  C   UNL     1       4.440 -11.174   1.366  0.00  0.00    +0.039 A 
ATOM     12  C   UNL     1       4.993 -11.293   0.102  0.00  0.00    +0.123 A 
ATOM     13  C   UNL     1       4.211 -11.065  -1.018  0.00  0.00    +0.039 A 
ATOM     14  C   UNL     1       2.880 -10.725  -0.874  0.00  0.00    +0.009 A 
ATOM     15  F   UNL     1       6.293 -11.630  -0.039  0.00  0.00    -0.205 F 
ENDBRANCH   4   9
BRANCH   4  16
ATOM     16  C   UNL     1      -0.013 -11.358   0.109  0.00  0.00    -0.011 A 
ATOM     17  C   UNL     1      -0.690 -12.108   1.053  0.00  0.00    +0.009 A 
ATOM     18  C   UNL     1      -1.510 -13.146   0.654  0.00  0.00    +0.039 A 
ATOM     19  C   UNL     1      -1.653 -13.436  -0.693  0.00  0.00    +0.123 A 
ATOM     20  C   UNL     1      -0.974 -12.685  -1.637  0.00  0.00    +0.039 A 
ATOM     21  C   UNL     1      -0.160 -11.643  -1.236  0.00  0.00    +0.009 A 
ATOM     22  F   UNL     1      -2.453 -14.452  -1.084  0.00  0.00    -0.205 F 
ENDBRANCH   4  16
BRANCH   1  23
ATOM     23  C   UNL     1      -0.237  -6.689   0.348  0.00  0.00    +0.213 C 
BRANCH  23  36
ATOM     24  C   UNL     1       1.609   1.260  -1.918  0.00  0.00    +0.005 A 
ATOM     25  C   UNL     1       0.369   1.716  -2.344  0.00  0.00    +0.018 A 
ATOM     26  C   UNL     1      -0.672   0.819  -2.477  0.00  0.00    +0.084 A 
ATOM     27  N   UNL     1      -0.501  -0.461  -2.205  0.00  0.00    -0.350 N 
ATOM     28  C   UNL     1       0.666  -0.934  -1.796  0.00  0.00    +0.099 A 
ATOM     29  C   UNL     1       1.758  -0.087  -1.641  0.00  0.00    +0.042 A 
ATOM     30  N   UNL     1       0.801  -2.290  -1.521  0.00  0.00    -0.314 N 
ATOM     31  C   UNL     1       2.115  -2.858  -1.185  0.00  0.00    +0.125 C 
ATOM     32  C   UNL     1       2.006  -3.582   0.162  0.00  0.00    +0.126 C 
ATOM     33  N   UNL     1       0.838  -4.473   0.124  0.00  0.00    -0.297 N 
ATOM     34  C   UNL     1      -0.475  -3.905  -0.211  0.00  0.00    +0.126 C 
ATOM     35  C   UNL     1      -0.368  -3.180  -1.554  0.00  0.00    +0.125 C 
ATOM     36  C   UNL     1       0.969  -5.787   0.391  0.00  0.00    +0.234 C 
ATOM     37  O   UNL     1       2.058  -6.245   0.666  0.00  0.00    -0.274 OA
ATOM     38  H   UNL     1      -1.249  -1.071  -2.307  0.00  0.00    +0.166 HD
ENDBRANCH  23  36
ENDBRANCH   1  23
TORSDOF 4
