REMARK  Name = ZINC36588830
REMARK  15 active torsions:
REMARK  status: ('A' for Active; 'I' for Inactive)
REMARK    1  A    between atoms: C_1  and  C_2
REMARK    2  A    between atoms: C_5  and  S_8
REMARK    3  A    between atoms: S_8  and  C_11
REMARK    4  A    between atoms: C_11  and  N_12
REMARK    5  A    between atoms: C_13  and  C_15
REMARK    6  A    between atoms: C_15  and  C_17
REMARK    7  A    between atoms: C_15  and  N_26
REMARK    8  A    between atoms: C_18  and  O_25
REMARK    9  A    between atoms: C_20  and  O_24
REMARK   10  A    between atoms: C_22  and  O_23
REMARK   11  A    between atoms: N_26  and  C_35
REMARK   12  A    between atoms: C_27  and  C_29
REMARK   13  A    between atoms: C_35  and  C_36
REMARK   14  A    between atoms: C_35  and  C_37
REMARK   15  A    between atoms: C_35  and  C_38
REMARK                            x       y       z     vdW  Elec       q    Type
REMARK                         _______ _______ _______ _____ _____    ______ ____
ROOT
ATOM      1  C   UNL     1       1.447  -5.184   2.255  0.00  0.00    +0.200 C 
ENDROOT
BRANCH   1   2
ATOM      2  C   UNL     1       0.216  -4.407   2.643  0.00  0.00    +0.065 A 
ATOM      3  C   UNL     1      -0.484  -4.745   3.792  0.00  0.00    +0.129 A 
ATOM      4  C   UNL     1      -1.617  -4.029   4.149  0.00  0.00    +0.091 A 
ATOM      5  C   UNL     1      -2.050  -2.975   3.358  0.00  0.00    +0.124 A 
ATOM      6  C   UNL     1      -1.349  -2.637   2.210  0.00  0.00    +0.091 A 
ATOM      7  C   UNL     1      -0.214  -3.350   1.855  0.00  0.00    +0.129 A 
BRANCH   7   8
ATOM      8  O   UNL     1       0.475  -3.015   0.732  0.00  0.00    -0.506 OA
ATOM      9  H   UNL     1       0.175  -3.474  -0.065  0.00  0.00    +0.292 HD
ENDBRANCH   7   8
BRANCH   5  10
ATOM     10  O   UNL     1      -3.160  -2.275   3.708  0.00  0.00    -0.507 OA
ATOM     11  H   UNL     1      -2.982  -1.515   4.278  0.00  0.00    +0.292 HD
ENDBRANCH   5  10
BRANCH   3  12
ATOM     12  O   UNL     1      -0.060  -5.777   4.567  0.00  0.00    -0.506 OA
ATOM     13  H   UNL     1       0.611  -5.530   5.218  0.00  0.00    +0.292 HD
ENDBRANCH   3  12
ENDBRANCH   1   2
BRANCH   1  15
ATOM     14  N   UNL     1       0.072  -5.984   0.361  0.00  0.00    -0.294 N 
ATOM     15  C   UNL     1       1.083  -6.218   1.220  0.00  0.00    +0.240 C 
ATOM     16  O   UNL     1       1.700  -7.261   1.162  0.00  0.00    -0.273 OA
ATOM     17  H   UNL     1      -0.422  -5.150   0.408  0.00  0.00    +0.150 HD
BRANCH  14  18
ATOM     18  C   UNL     1      -0.282  -6.989  -0.645  0.00  0.00    +0.278 C 
BRANCH  18  19
ATOM     19  S   UNL     1      -1.632  -8.025  -0.015  0.00  0.00    +0.013 S 
ATOM     20  O   UNL     1      -1.347  -8.446   1.312  0.00  0.00    -0.168 OA
ATOM     21  O   UNL     1      -2.030  -8.965  -1.004  0.00  0.00    -0.168 OA
BRANCH  19  26
ATOM     22  C   UNL     1      -6.335  -4.285   0.533  0.00  0.00    +0.044 C 
ATOM     23  C   UNL     1      -5.160  -5.219   0.396  0.00  0.00    -0.050 A 
ATOM     24  C   UNL     1      -4.952  -5.898  -0.790  0.00  0.00    +0.005 A 
ATOM     25  C   UNL     1      -3.874  -6.755  -0.916  0.00  0.00    +0.027 A 
ATOM     26  C   UNL     1      -3.005  -6.932   0.144  0.00  0.00    +0.090 A 
ATOM     27  C   UNL     1      -3.213  -6.252   1.330  0.00  0.00    +0.027 A 
ATOM     28  C   UNL     1      -4.288  -5.392   1.454  0.00  0.00    +0.005 A 
ENDBRANCH  19  26
ENDBRANCH  18  19
ENDBRANCH  14  18
ENDBRANCH   1  15
BRANCH   1  29
ATOM     29  N   UNL     1       1.998  -5.850   3.438  0.00  0.00    -0.277 N 
ATOM     30  C   UNL     1       2.556  -5.120   4.423  0.00  0.00    +0.248 C 
ATOM     31  O   UNL     1       3.302  -5.649   5.224  0.00  0.00    -0.270 OA
BRANCH  30  32
ATOM     32  C   UNL     1       2.262  -3.675   4.531  0.00  0.00    +0.037 A 
ATOM     33  C   UNL     1       1.672  -2.999   3.462  0.00  0.00    +0.013 A 
ATOM     34  C   UNL     1       1.399  -1.650   3.568  0.00  0.00    +0.001 A 
ATOM     35  C   UNL     1       1.710  -0.969   4.731  0.00  0.00    +0.000 A 
ATOM     36  C   UNL     1       2.295  -1.633   5.795  0.00  0.00    +0.001 A 
ATOM     37  C   UNL     1       2.568  -2.982   5.703  0.00  0.00    +0.013 A 
ENDBRANCH  30  32
BRANCH  29  38
ATOM     38  C   UNL     1       1.941  -7.310   3.550  0.00  0.00    +0.030 C 
ATOM     39  C   UNL     1       3.050  -7.930   2.699  0.00  0.00    +0.031 C 
ATOM     40  C   UNL     1       2.132  -7.717   5.012  0.00  0.00    +0.031 C 
ATOM     41  C   UNL     1       0.581  -7.806   3.056  0.00  0.00    +0.031 C 
ENDBRANCH  29  38
ENDBRANCH   1  29
TORSDOF 11
