REMARK  Name = ZINC08213976
REMARK  7 active torsions:
REMARK  status: ('A' for Active; 'I' for Inactive)
REMARK    1  A    between atoms: C_1  and  C_2
REMARK    2  A    between atoms: C_2  and  C_4
REMARK    3  A    between atoms: C_2  and  N_57
REMARK    4  A    between atoms: C_11  and  C_13
REMARK    5  A    between atoms: C_11  and  C_14
REMARK    6  A    between atoms: C_11  and  N_57
REMARK    7  A    between atoms: N_19  and  C_20
REMARK                            x       y       z     vdW  Elec       q    Type
REMARK                         _______ _______ _______ _____ _____    ______ ____
ROOT
ATOM      1  C   UNL     1      -5.578   3.012  -1.862  0.00  0.00    +0.206 C 
ATOM      2  O   UNL     1      -5.309   1.854  -2.101  0.00  0.00    -0.277 OA
ATOM      3  N   UNL     1      -6.650   3.588  -2.442  0.00  0.00    -0.242 N 
ATOM      4  C   UNL     1      -7.421   2.877  -3.288  0.00  0.00    +0.306 C 
ATOM      5  O   UNL     1      -7.151   1.716  -3.528  0.00  0.00    -0.252 OA
ATOM      6  N   UNL     1      -8.493   3.453  -3.868  0.00  0.00    -0.294 N 
ATOM      7  H   UNL     1      -6.866   4.514  -2.250  0.00  0.00    +0.159 HD
ATOM      8  H   UNL     1      -8.709   4.379  -3.677  0.00  0.00    +0.151 HD
ENDROOT
BRANCH   6   9
ATOM      9  C   UNL     1      -9.332   2.680  -4.788  0.00  0.00    +0.037 C 
ATOM     10  C   UNL     1      -8.486   2.200  -5.968  0.00  0.00    +0.029 C 
ATOM     11  C   UNL     1      -9.361   1.393  -6.929  0.00  0.00    -0.008 C 
ATOM     12  C   UNL     1     -10.501   2.275  -7.443  0.00  0.00    +0.007 C 
ATOM     13  C   UNL     1     -11.347   2.756  -6.263  0.00  0.00    -0.008 C 
ATOM     14  C   UNL     1     -10.471   3.562  -5.302  0.00  0.00    +0.029 C 
ATOM     15  C   UNL     1     -11.930   1.546  -5.528  0.00  0.00    +0.007 C 
ATOM     16  C   UNL     1     -10.790   0.664  -5.013  0.00  0.00    -0.008 C 
ATOM     17  C   UNL     1      -9.944   0.184  -6.194  0.00  0.00    +0.007 C 
ATOM     18  C   UNL     1      -9.914   1.471  -4.053  0.00  0.00    +0.029 C 
ENDBRANCH   6   9
BRANCH   1  19
ATOM     19  C   UNL     1      -4.715   3.807  -0.916  0.00  0.00    +0.014 C 
ATOM     20  C   UNL     1      -5.562   4.287   0.265  0.00  0.00    -0.004 C 
BRANCH  19  21
ATOM     21  N   UNL     1      -3.622   2.954  -0.413  0.00  0.00    +0.391 N 
ATOM     22  H   UNL     1      -3.320   3.298   0.506  0.00  0.00    -0.084 HD
ATOM     23  H   UNL     1      -3.959   1.988  -0.323  0.00  0.00    -0.084 HD
BRANCH  21  25
ATOM     24  C   UNL     1      -1.636   4.234  -1.077  0.00  0.00    -0.009 C 
ATOM     25  C   UNL     1      -2.478   2.985  -1.344  0.00  0.00    -0.042 C 
BRANCH  25  26
ATOM     26  C   UNL     1      -1.634   1.755  -1.132  0.00  0.00    -0.043 A 
ATOM     27  C   UNL     1      -1.735   1.042   0.048  0.00  0.00    +0.003 A 
ATOM     28  C   UNL     1      -0.957  -0.083   0.245  0.00  0.00    +0.000 A 
ATOM     29  C   UNL     1      -0.085  -0.503  -0.743  0.00  0.00    +0.001 A 
ATOM     30  C   UNL     1       0.013   0.206  -1.925  0.00  0.00    +0.020 A 
ATOM     31  C   UNL     1      -0.762   1.336  -2.120  0.00  0.00    +0.043 A 
ATOM     32 CL   UNL     1      -0.640   2.227  -3.605  0.00  0.00    -0.083 Cl
ENDBRANCH  25  26
ENDBRANCH  21  25
ENDBRANCH  19  21
ENDBRANCH   1  19
TORSDOF 5
