REMARK  Name = ZINC43410546
REMARK  3 active torsions:
REMARK  status: ('A' for Active; 'I' for Inactive)
REMARK    1  A    between atoms: C_6  and  S_7
REMARK    2  A    between atoms: S_7  and  C_8
REMARK    3  A    between atoms: C_9  and  C_18
REMARK                            x       y       z     vdW  Elec       q    Type
REMARK                         _______ _______ _______ _____ _____    ______ ____
ROOT
ATOM      1  C   UNL     1      -1.134  -2.301   0.082  0.00  0.00    +0.112 A 
ATOM      2  C   UNL     1      -1.950  -3.422  -0.150  0.00  0.00    +0.045 A 
ATOM      3  C   UNL     1      -1.347  -4.679  -0.224  0.00  0.00    +0.019 A 
ATOM      4  C   UNL     1       0.030  -4.774  -0.069  0.00  0.00    -0.025 A 
ATOM      5  C   UNL     1       0.769  -3.630   0.150  0.00  0.00    +0.046 A 
ATOM      6  N   UNL     1       0.172  -2.447   0.216  0.00  0.00    -0.244 NA
ATOM      7  C   UNL     1       2.268  -3.659   0.308  0.00  0.00    +0.056 C 
ATOM      8  C   UNL     1       2.747  -5.070   0.639  0.00  0.00    +0.006 C 
ATOM      9  C   UNL     1       2.155  -6.037  -0.393  0.00  0.00    +0.005 C 
ATOM     10  C   UNL     1       0.652  -6.143  -0.146  0.00  0.00    +0.037 C 
ENDROOT
BRANCH   2  11
ATOM     11  C   UNL     1      -3.409  -3.273  -0.311  0.00  0.00    +0.097 C 
ATOM     12  N   UNL     1      -3.897  -2.462  -1.250  0.00  0.00    -0.387 N 
ATOM     13  N   UNL     1      -4.240  -3.950   0.482  0.00  0.00    -0.344 N 
ATOM     14  H   UNL     1      -3.296  -2.029  -1.877  0.00  0.00    +0.157 HD
ATOM     15  H   UNL     1      -3.885  -4.540   1.165  0.00  0.00    +0.144 HD
ATOM     16  H   UNL     1      -5.199  -3.853   0.376  0.00  0.00    +0.144 HD
ATOM     17  H   UNL     1      -4.852  -2.305  -1.307  0.00  0.00    +0.157 HD
ENDBRANCH   2  11
BRANCH   1  18
ATOM     18  S   UNL     1      -1.855  -0.697   0.188  0.00  0.00    -0.069 S 
BRANCH  18  24
ATOM     19  C   UNL     1       0.145   0.877  -0.819  0.00  0.00    +0.016 A 
ATOM     20  C   UNL     1       1.230   1.724  -0.708  0.00  0.00    +0.021 A 
ATOM     21  C   UNL     1       1.705   2.082   0.541  0.00  0.00    +0.041 A 
ATOM     22  C   UNL     1       1.095   1.593   1.683  0.00  0.00    +0.021 A 
ATOM     23  C   UNL     1       0.009   0.746   1.579  0.00  0.00    +0.016 A 
ATOM     24  C   UNL     1      -0.470   0.384   0.326  0.00  0.00    +0.014 A 
ATOM     25 CL   UNL     1       3.069   3.147   0.677  0.00  0.00    -0.084 Cl
ENDBRANCH  18  24
ENDBRANCH   1  18
TORSDOF 3
