REMARK  Name = ZINC52595234
REMARK  5 active torsions:
REMARK  status: ('A' for Active; 'I' for Inactive)
REMARK    1  A    between atoms: C_6  and  C_7
REMARK    2  A    between atoms: C_13  and  C_15
REMARK    3  A    between atoms: C_15  and  C_16
REMARK    4  A    between atoms: C_16  and  N_17
REMARK    5  A    between atoms: C_20  and  C_23
REMARK                            x       y       z     vdW  Elec       q    Type
REMARK                         _______ _______ _______ _____ _____    ______ ____
ROOT
ATOM      1  N   UNL     1       4.686   5.435   1.776  0.00  0.00    +0.382 N 
ATOM      2  C   UNL     1       5.945   6.195   1.760  0.00  0.00    -0.074 C 
ATOM      3  C   UNL     1       5.737   7.504   2.527  0.00  0.00    +0.016 C 
ATOM      4  C   UNL     1       5.112   7.210   3.864  0.00  0.00    -0.049 C 
ATOM      5  C   UNL     1       4.529   6.043   4.132  0.00  0.00    -0.042 C 
ATOM      6  C   UNL     1       4.451   4.925   3.132  0.00  0.00    -0.051 C 
ATOM      7  H   UNL     1       3.923   6.037   1.506  0.00  0.00    -0.081 HD
ENDROOT
BRANCH   4   8
ATOM      8  C   UNL     1       5.144   8.203   4.864  0.00  0.00    -0.017 C 
ATOM      9  C   UNL     1       5.601   9.507   4.737  0.00  0.00    +0.003 A 
ATOM     10  C   UNL     1       6.148  10.226   3.648  0.00  0.00    +0.013 A 
ATOM     11  C   UNL     1       6.517  11.519   3.813  0.00  0.00    +0.039 A 
ATOM     12  C   UNL     1       6.373  12.172   5.044  0.00  0.00    +0.125 A 
ATOM     13  C   UNL     1       5.857  11.545   6.131  0.00  0.00    +0.064 A 
ATOM     14  C   UNL     1       5.447  10.190   6.035  0.00  0.00    +0.046 A 
ATOM     15  N   UNL     1       4.926   9.373   6.926  0.00  0.00    -0.380 N 
ATOM     16  C   UNL     1       4.681   8.070   6.298  0.00  0.00    +0.149 C 
ATOM     17  F   UNL     1       6.759  13.463   5.152  0.00  0.00    -0.205 F 
ATOM     18  H   UNL     1       4.732   9.597   7.849  0.00  0.00    +0.160 HD
ENDBRANCH   4   8
BRANCH   1  19
ATOM     19  C   UNL     1       4.779   4.309   0.838  0.00  0.00    -0.076 C 
BRANCH  19  20
ATOM     20  C   UNL     1       3.432   3.587   0.770  0.00  0.00    +0.018 C 
BRANCH  20  30
ATOM     21  C   UNL     1      -0.194   2.073  -0.661  0.00  0.00    +0.013 A 
ATOM     22  C   UNL     1       1.066   2.609  -0.508  0.00  0.00    +0.007 A 
ATOM     23  C   UNL     1       2.171   1.782  -0.365  0.00  0.00    -0.016 A 
ATOM     24  C   UNL     1       2.012   0.410  -0.371  0.00  0.00    -0.039 A 
ATOM     25  C   UNL     1       0.752  -0.140  -0.526  0.00  0.00    +0.017 A 
ATOM     26  C   UNL     1      -0.360   0.687  -0.672  0.00  0.00    +0.037 A 
ATOM     27  C   UNL     1       3.189  -0.517  -0.205  0.00  0.00    +0.063 C 
ATOM     28  C   UNL     1       4.489   0.246  -0.467  0.00  0.00    +0.165 C 
ATOM     29  O   UNL     1       4.465   1.460   0.292  0.00  0.00    -0.372 OA
ATOM     30  C   UNL     1       3.530   2.415  -0.207  0.00  0.00    +0.147 C 
BRANCH  26  31
ATOM     31  C   UNL     1      -1.707   0.101  -0.837  0.00  0.00    +0.242 C 
ATOM     32  O   UNL     1      -1.848  -1.107  -0.847  0.00  0.00    -0.270 OA
ATOM     33  N   UNL     1      -2.780   0.905  -0.977  0.00  0.00    -0.325 N 
ATOM     34  H   UNL     1      -2.668   1.868  -0.970  0.00  0.00    +0.145 HD
ATOM     35  H   UNL     1      -3.664   0.520  -1.086  0.00  0.00    +0.145 HD
ENDBRANCH  26  31
ENDBRANCH  20  30
ENDBRANCH  19  20
ENDBRANCH   1  19
TORSDOF 5
