REMARK  Name = ZINC40720483
REMARK  12 active torsions:
REMARK  status: ('A' for Active; 'I' for Inactive)
REMARK    1  A    between atoms: C_1  and  C_2
REMARK    2  A    between atoms: C_2  and  N_3
REMARK    3  A    between atoms: C_7  and  C_9
REMARK    4  A    between atoms: C_9  and  N_10
REMARK    5  A    between atoms: N_10  and  C_11
REMARK    6  A    between atoms: C_11  and  C_12
REMARK    7  A    between atoms: C_14  and  O_29
REMARK    8  A    between atoms: C_15  and  O_19
REMARK    9  A    between atoms: O_19  and  C_20
REMARK   10  A    between atoms: C_20  and  C_21
REMARK   11  A    between atoms: O_29  and  C_30
REMARK   12  A    between atoms: C_30  and  C_31
REMARK                            x       y       z     vdW  Elec       q    Type
REMARK                         _______ _______ _______ _____ _____    ______ ____
ROOT
ATOM      1  C   UNL     1      -3.455  -1.019  -4.042  0.00  0.00    -0.060 A 
ATOM      2  C   UNL     1      -4.607  -1.600  -3.546  0.00  0.00    +0.051 A 
ATOM      3  C   UNL     1      -5.806  -0.907  -3.584  0.00  0.00    +0.163 A 
ATOM      4  C   UNL     1      -5.848   0.375  -4.123  0.00  0.00    +0.176 A 
ATOM      5  C   UNL     1      -4.689   0.953  -4.619  0.00  0.00    +0.063 A 
ATOM      6  C   UNL     1      -3.495   0.257  -4.573  0.00  0.00    +0.021 A 
ATOM      7 BR   UNL     1      -4.741   2.695  -5.353  0.00  0.00    -0.046 Br
ENDROOT
BRANCH   1   8
ATOM      8  C   UNL     1      -2.153  -1.775  -3.999  0.00  0.00    -0.047 C 
BRANCH   8   9
ATOM      9  N   UNL     1      -1.464  -1.492  -2.733  0.00  0.00    +0.383 N 
ATOM     10  H   UNL     1      -2.046  -1.780  -1.961  0.00  0.00    -0.085 HD
ATOM     11  H   UNL     1      -1.280  -0.502  -2.664  0.00  0.00    -0.085 HD
BRANCH   9  12
ATOM     12  C   UNL     1      -0.194  -2.229  -2.691  0.00  0.00    -0.063 C 
BRANCH  12  17
ATOM     13  N   UNL     1       0.690  -0.478  -1.207  0.00  0.00    -0.301 NA
ATOM     14  C   UNL     1       2.135  -0.172  -1.148  0.00  0.00    +0.084 C 
ATOM     15  C   UNL     1       2.799  -1.487  -0.669  0.00  0.00    +0.017 C 
ATOM     16  C   UNL     1       1.936  -2.555  -1.393  0.00  0.00    +0.018 C 
ATOM     17  C   UNL     1       0.524  -1.933  -1.373  0.00  0.00    +0.040 C 
BRANCH  13  19
ATOM     18  C   UNL     1      -0.019   1.526   0.010  0.00  0.00    +0.020 C 
ATOM     19  C   UNL     1       0.002  -0.004   0.002  0.00  0.00    +0.081 C 
ENDBRANCH  13  19
ENDBRANCH  12  17
ENDBRANCH   9  12
ENDBRANCH   8   9
ENDBRANCH   1   8
BRANCH   4  20
ATOM     20  O   UNL     1      -7.022   1.060  -4.164  0.00  0.00    -0.483 OA
BRANCH  20  21
ATOM     21  C   UNL     1      -7.336   1.877  -3.035  0.00  0.00    +0.264 C 
BRANCH  21  22
ATOM     22  C   UNL     1      -8.665   2.553  -3.257  0.00  0.00    -0.009 A 
ATOM     23  C   UNL     1      -8.716   3.787  -3.880  0.00  0.00    +0.008 A 
ATOM     24  C   UNL     1      -9.934   4.408  -4.085  0.00  0.00    +0.022 A 
ATOM     25  C   UNL     1     -11.102   3.795  -3.667  0.00  0.00    +0.059 A 
ATOM     26  C   UNL     1     -11.050   2.560  -3.044  0.00  0.00    +0.060 A 
ATOM     27  C   UNL     1      -9.831   1.937  -2.844  0.00  0.00    +0.028 A 
ATOM     28 CL   UNL     1     -12.514   1.790  -2.518  0.00  0.00    -0.082 Cl
ATOM     29 CL   UNL     1     -12.632   4.575  -3.923  0.00  0.00    -0.082 Cl
ENDBRANCH  21  22
ENDBRANCH  20  21
ENDBRANCH   4  20
BRANCH   3  30
ATOM     30  O   UNL     1      -6.940  -1.478  -3.097  0.00  0.00    -0.489 OA
BRANCH  30  31
ATOM     31  C   UNL     1      -6.822  -2.797  -2.559  0.00  0.00    +0.226 C 
ATOM     32  C   UNL     1      -8.191  -3.269  -2.063  0.00  0.00    +0.048 C 
ENDBRANCH  30  31
ENDBRANCH   3  30
TORSDOF 10
