REMARK  Name = ZINC20821153
REMARK  7 active torsions:
REMARK  status: ('A' for Active; 'I' for Inactive)
REMARK    1  A    between atoms: C_1  and  O_2
REMARK    2  A    between atoms: O_2  and  C_3
REMARK    3  A    between atoms: C_6  and  N_9
REMARK    4  A    between atoms: C_13  and  C_14
REMARK    5  A    between atoms: C_14  and  N_15
REMARK    6  A    between atoms: C_19  and  C_21
REMARK    7  A    between atoms: C_24  and  C_26
REMARK                            x       y       z     vdW  Elec       q    Type
REMARK                         _______ _______ _______ _____ _____    ______ ____
ROOT
ATOM      1  N   UNL     1      -3.759   5.917   0.881  0.00  0.00    +0.389 N 
ATOM      2  C   UNL     1      -4.474   7.123   0.389  0.00  0.00    -0.077 C 
ATOM      3  C   UNL     1      -4.541   6.937  -1.142  0.00  0.00    -0.020 C 
ATOM      4  C   UNL     1      -4.422   5.415  -1.367  0.00  0.00    -0.012 C 
ATOM      5  C   UNL     1      -4.293   4.810   0.048  0.00  0.00    -0.030 C 
ATOM      6  H   UNL     1      -2.665   6.013   0.812  0.00  0.00    -0.080 HD
ENDROOT
BRANCH   5   7
ATOM      7  C   UNL     1      -3.332   3.649   0.037  0.00  0.00    -0.023 A 
ATOM      8  C   UNL     1      -3.614   2.320   0.031  0.00  0.00    +0.010 A 
ATOM      9  C   UNL     1      -2.582   1.416   0.016  0.00  0.00    +0.021 A 
ATOM     10  C   UNL     1      -1.294   1.928   0.019  0.00  0.00    +0.074 A 
ATOM     11  S   UNL     1      -1.599   3.686   0.029  0.00  0.00    -0.090 S 
BRANCH  10  12
ATOM     12  C   UNL     1      -0.014   1.213   0.009  0.00  0.00    +0.248 C 
ATOM     13  O   UNL     1       0.002  -0.004   0.002  0.00  0.00    -0.270 OA
ATOM     14  N   UNL     1       1.143   1.903   0.001  0.00  0.00    -0.325 N 
ATOM     15  H   UNL     1       2.103   1.365  -0.006  0.00  0.00    +0.145 HD
ATOM     16  H   UNL     1       1.129   3.002   0.003  0.00  0.00    +0.145 HD
ENDBRANCH  10  12
ENDBRANCH   5   7
BRANCH   1  17
ATOM     17  C   UNL     1      -4.036   5.686   2.305  0.00  0.00    -0.004 C 
BRANCH  17  22
ATOM     18  N   UNL     1      -2.023   6.520   3.630  0.00  0.00    -0.306 N 
ATOM     19  C   UNL     1      -1.706   7.661   4.320  0.00  0.00    +0.110 A 
ATOM     20  C   UNL     1      -2.772   8.479   4.231  0.00  0.00    +0.102 A 
ATOM     21  N   UNL     1      -3.715   7.861   3.503  0.00  0.00    -0.351 N 
ATOM     22  C   UNL     1      -3.276   6.688   3.135  0.00  0.00    +0.074 A 
ATOM     23  H   UNL     1      -4.675   8.361   3.308  0.00  0.00    +0.166 HD
BRANCH  18  27
ATOM     24  C   UNL     1       0.408   3.166   3.136  0.00  0.00    +0.120 A 
ATOM     25  C   UNL     1       0.910   4.431   2.869  0.00  0.00    +0.047 A 
ATOM     26  C   UNL     1       0.106   5.542   3.033  0.00  0.00    +0.030 A 
ATOM     27  C   UNL     1      -1.205   5.391   3.464  0.00  0.00    +0.048 A 
ATOM     28  C   UNL     1      -1.705   4.125   3.736  0.00  0.00    +0.030 A 
ATOM     29  C   UNL     1      -0.901   3.015   3.567  0.00  0.00    +0.047 A 
BRANCH  24  31
ATOM     30  C   UNL     1       0.619   0.801   3.268  0.00  0.00    +0.277 C 
ATOM     31  O   UNL     1       1.201   2.073   2.976  0.00  0.00    -0.495 OA
ENDBRANCH  24  31
ENDBRANCH  18  27
ENDBRANCH  17  22
ENDBRANCH   1  17
TORSDOF 6
