REMARK  Name = ZINC59403100
REMARK  10 active torsions:
REMARK  status: ('A' for Active; 'I' for Inactive)
REMARK    1  A    between atoms: C_1  and  C_2
REMARK    2  A    between atoms: C_2  and  C_3
REMARK    3  A    between atoms: C_2  and  C_4
REMARK    4  A    between atoms: C_4  and  C_6
REMARK    5  A    between atoms: C_4  and  N_18
REMARK    6  A    between atoms: N_8  and  C_9
REMARK    7  A    between atoms: C_9  and  C_10
REMARK    8  A    between atoms: C_10  and  N_11
REMARK    9  A    between atoms: N_18  and  S_19
REMARK   10  A    between atoms: S_19  and  C_22
REMARK                            x       y       z     vdW  Elec       q    Type
REMARK                         _______ _______ _______ _____ _____    ______ ____
ROOT
ATOM      1  C   UNL     1      -1.662  -0.170   0.005  0.00  0.00    +0.165 C 
ENDROOT
BRANCH   1   2
ATOM      2  C   UNL     1      -1.652  -1.676   0.049  0.00  0.00    +0.232 C 
ATOM      3  O   UNL     1      -2.229  -2.311  -0.807  0.00  0.00    -0.274 OA
ATOM      4  N   UNL     1      -1.002  -2.317   1.040  0.00  0.00    -0.316 N 
ATOM      5  H   UNL     1      -0.604  -1.811   1.766  0.00  0.00    +0.149 HD
BRANCH   4   6
ATOM      6  C   UNL     1      -0.895  -3.778   1.021  0.00  0.00    +0.086 C 
BRANCH   6   7
ATOM      7  C   UNL     1      -0.114  -4.248   2.250  0.00  0.00    -0.060 C 
BRANCH   7   8
ATOM      8  N   UNL     1      -0.062  -5.716   2.265  0.00  0.00    +0.381 N 
ATOM      9  C   UNL     1       0.486  -6.158   3.562  0.00  0.00    -0.079 C 
ATOM     10  C   UNL     1      -0.001  -7.559   3.830  0.00  0.00    -0.019 C 
ATOM     11  C   UNL     1       1.037  -8.610   3.395  0.00  0.00    -0.002 C 
ATOM     12  C   UNL     1       1.703  -8.237   2.055  0.00  0.00    -0.002 C 
ATOM     13  C   UNL     1       0.716  -7.687   1.058  0.00  0.00    -0.019 C 
ATOM     14  C   UNL     1       0.690  -6.148   1.170  0.00  0.00    -0.079 C 
ATOM     15  H   UNL     1      -1.001  -6.074   2.174  0.00  0.00    -0.082 HD
ENDBRANCH   7   8
ENDBRANCH   6   7
ENDBRANCH   4   6
ENDBRANCH   1   2
BRANCH   1  17
ATOM     16  C   UNL     1      -0.202  -0.211  -2.022  0.00  0.00    +0.009 C 
ATOM     17  C   UNL     1      -0.348   0.332  -0.599  0.00  0.00    +0.010 C 
ATOM     18  C   UNL     1      -0.354   1.861  -0.635  0.00  0.00    +0.009 C 
ENDBRANCH   1  17
BRANCH   1  19
ATOM     19  N   UNL     1      -2.784   0.288  -0.818  0.00  0.00    -0.178 NA
ATOM     20  H   UNL     1      -2.693   0.328  -1.783  0.00  0.00    +0.149 HD
BRANCH  19  21
ATOM     21  S   UNL     1      -4.208   0.736  -0.101  0.00  0.00    +0.059 S 
ATOM     22  O   UNL     1      -5.071   1.165  -1.145  0.00  0.00    -0.153 OA
ATOM     23  O   UNL     1      -4.558  -0.310   0.796  0.00  0.00    -0.153 OA
BRANCH  21  24
ATOM     24  C   UNL     1      -3.870   2.155   0.888  0.00  0.00    +0.109 A 
ATOM     25  C   UNL     1      -3.431   1.999   2.189  0.00  0.00    +0.032 A 
ATOM     26  C   UNL     1      -3.163   3.108   2.971  0.00  0.00    +0.051 A 
ATOM     27  C   UNL     1      -3.336   4.377   2.445  0.00  0.00    +0.162 A 
ATOM     28  C   UNL     1      -3.776   4.534   1.138  0.00  0.00    +0.164 A 
ATOM     29  C   UNL     1      -4.039   3.421   0.357  0.00  0.00    +0.078 A 
ATOM     30  O   UNL     1      -3.942   5.788   0.628  0.00  0.00    -0.488 OA
ATOM     31  C   UNL     1      -5.009   6.555   1.190  0.00  0.00    +0.232 C 
ATOM     32  C   UNL     1      -4.558   7.253   2.464  0.00  0.00    +0.082 C 
ATOM     33  C   UNL     1      -4.207   6.270   3.570  0.00  0.00    +0.232 C 
ATOM     34  O   UNL     1      -3.074   5.480   3.204  0.00  0.00    -0.488 OA
ENDBRANCH  21  24
ENDBRANCH  19  21
ENDBRANCH   1  19
TORSDOF 8
