REMARK  Name = ZINC52964498
REMARK  5 active torsions:
REMARK  status: ('A' for Active; 'I' for Inactive)
REMARK    1  A    between atoms: C_1  and  C_2
REMARK    2  A    between atoms: C_2  and  C_20
REMARK    3  A    between atoms: N_5  and  C_9
REMARK    4  A    between atoms: C_9  and  C_10
REMARK    5  A    between atoms: N_12  and  C_13
REMARK                            x       y       z     vdW  Elec       q    Type
REMARK                         _______ _______ _______ _____ _____    ______ ____
ROOT
ATOM      1  C   UNL     1       0.332   1.395   0.777  0.00  0.00    +0.047 C 
ATOM      2  C   UNL     1       0.294  -0.125   0.608  0.00  0.00    +0.135 C 
ATOM      3  C   UNL     1       0.976  -0.534  -0.683  0.00  0.00    +0.251 C 
ATOM      4  O   UNL     1       0.654  -0.225  -1.810  0.00  0.00    -0.272 OA
ATOM      5  N   UNL     1       2.013  -1.313  -0.317  0.00  0.00    -0.215 N 
ATOM      6  C   UNL     1       2.081  -1.452   1.012  0.00  0.00    +0.310 C 
ATOM      7  O   UNL     1       2.931  -2.108   1.580  0.00  0.00    -0.252 OA
ATOM      8  N   UNL     1       1.103  -0.783   1.649  0.00  0.00    -0.281 N 
ATOM      9  H   UNL     1       0.958  -0.741   2.607  0.00  0.00    +0.152 HD
ENDROOT
BRANCH   2  10
ATOM     10  C   UNL     1      -1.126  -0.626   0.644  0.00  0.00    -0.015 A 
ATOM     11  C   UNL     1      -1.845  -0.738  -0.545  0.00  0.00    +0.007 A 
ATOM     12  C   UNL     1      -3.130  -1.187  -0.548  0.00  0.00    +0.009 A 
ATOM     13  C   UNL     1      -3.744  -1.545   0.665  0.00  0.00    -0.018 A 
ATOM     14  C   UNL     1      -5.068  -2.013   0.702  0.00  0.00    +0.008 A 
ATOM     15  C   UNL     1      -5.630  -2.350   1.895  0.00  0.00    +0.001 A 
ATOM     16  C   UNL     1      -4.911  -2.239   3.084  0.00  0.00    +0.001 A 
ATOM     17  C   UNL     1      -3.627  -1.790   3.086  0.00  0.00    +0.008 A 
ATOM     18  C   UNL     1      -3.013  -1.432   1.874  0.00  0.00    -0.018 A 
ATOM     19  C   UNL     1      -1.686  -0.969   1.836  0.00  0.00    +0.014 A 
ENDBRANCH   2  10
BRANCH   5  20
ATOM     20  C   UNL     1       2.949  -1.933  -1.258  0.00  0.00    +0.214 C 
BRANCH  20  21
ATOM     21  C   UNL     1       4.105  -0.998  -1.505  0.00  0.00    +0.235 C 
ATOM     22  O   UNL     1       4.143   0.080  -0.949  0.00  0.00    -0.274 OA
ATOM     23  N   UNL     1       5.097  -1.360  -2.343  0.00  0.00    -0.280 N 
ATOM     24  H   UNL     1       5.104  -2.249  -2.730  0.00  0.00    +0.155 HD
BRANCH  23  25
ATOM     25  C   UNL     1       6.119  -0.450  -2.655  0.00  0.00    +0.097 A 
ATOM     26  C   UNL     1       7.414  -0.756  -2.396  0.00  0.00    +0.110 A 
ATOM     27  N   UNL     1       8.406   0.122  -2.696  0.00  0.00    -0.365 N 
ATOM     28  C   UNL     1       8.139   1.325  -3.259  0.00  0.00    +0.086 A 
ATOM     29  C   UNL     1       6.869   1.691  -3.542  0.00  0.00    +0.070 A 
ATOM     30  C   UNL     1       5.811   0.801  -3.250  0.00  0.00    +0.203 A 
ATOM     31  O   UNL     1       4.653   1.105  -3.499  0.00  0.00    -0.286 OA
ATOM     32  H   UNL     1       9.325  -0.117  -2.502  0.00  0.00    +0.165 HD
ENDBRANCH  23  25
ENDBRANCH  20  21
ENDBRANCH   5  20
TORSDOF 4
