REMARK  Name = ZINC67184060
REMARK  9 active torsions:
REMARK  status: ('A' for Active; 'I' for Inactive)
REMARK    1  A    between atoms: C_1  and  C_2
REMARK    2  A    between atoms: C_2  and  C_3
REMARK    3  A    between atoms: C_2  and  C_4
REMARK    4  A    between atoms: C_2  and  C_5
REMARK    5  A    between atoms: C_7  and  C_10
REMARK    6  A    between atoms: C_10  and  N_11
REMARK    7  A    between atoms: N_11  and  C_12
REMARK    8  A    between atoms: C_12  and  C_13
REMARK    9  A    between atoms: N_15  and  C_16
REMARK                            x       y       z     vdW  Elec       q    Type
REMARK                         _______ _______ _______ _____ _____    ______ ____
ROOT
ATOM      1  N   UNL     1       3.904   0.777  -3.891  0.00  0.00    +0.388 N 
ATOM      2  H   UNL     1       3.307   0.730  -4.703  0.00  0.00    -0.085 HD
ATOM      3  H   UNL     1       3.593   1.524  -3.288  0.00  0.00    -0.085 HD
ENDROOT
BRANCH   1   4
ATOM      4  C   UNL     1       3.840  -0.498  -3.163  0.00  0.00    -0.025 C 
BRANCH   4   7
ATOM      5  C   UNL     1       0.703  -0.484  -1.239  0.00  0.00    +0.084 A 
ATOM      6  N   UNL     1       1.938  -0.255  -1.612  0.00  0.00    -0.250 NA
ATOM      7  C   UNL     1       2.421  -0.759  -2.730  0.00  0.00    +0.032 A 
ATOM      8  C   UNL     1       1.581  -1.524  -3.474  0.00  0.00    +0.068 A 
ATOM      9  S   UNL     1       0.106  -1.465  -2.469  0.00  0.00    -0.080 S 
BRANCH   5  11
ATOM     10  C   UNL     1      -0.034   1.537  -0.005  0.00  0.00    +0.017 C 
ATOM     11  C   UNL     1      -0.008   0.007  -0.004  0.00  0.00    +0.011 C 
ATOM     12  C   UNL     1       0.729  -0.490   1.241  0.00  0.00    +0.017 C 
ATOM     13  C   UNL     1      -1.442  -0.527   0.005  0.00  0.00    +0.017 C 
ENDBRANCH   5  11
ENDBRANCH   4   7
ENDBRANCH   1   4
BRANCH   1  14
ATOM     14  C   UNL     1       5.287   1.032  -4.313  0.00  0.00    +0.016 C 
BRANCH  14  15
ATOM     15  C   UNL     1       5.352   2.339  -5.060  0.00  0.00    +0.200 C 
ATOM     16  O   UNL     1       4.345   2.994  -5.224  0.00  0.00    -0.278 OA
ATOM     17  N   UNL     1       6.530   2.780  -5.545  0.00  0.00    -0.287 N 
ATOM     18  H   UNL     1       7.346   2.291  -5.356  0.00  0.00    +0.155 HD
BRANCH  17  19
ATOM     19  C   UNL     1       6.575   3.945  -6.321  0.00  0.00    +0.036 A 
ATOM     20  C   UNL     1       7.473   4.043  -7.375  0.00  0.00    +0.026 A 
ATOM     21  C   UNL     1       7.517   5.192  -8.141  0.00  0.00    +0.043 A 
ATOM     22  C   UNL     1       6.666   6.247  -7.858  0.00  0.00    +0.159 A 
ATOM     23  C   UNL     1       5.768   6.152  -6.806  0.00  0.00    +0.160 A 
ATOM     24  C   UNL     1       5.717   5.000  -6.041  0.00  0.00    +0.064 A 
ATOM     25  F   UNL     1       4.938   7.182  -6.531  0.00  0.00    -0.202 F 
ATOM     26  F   UNL     1       6.711   7.370  -8.607  0.00  0.00    -0.202 F 
ENDBRANCH  17  19
ENDBRANCH  14  15
ENDBRANCH   1  14
TORSDOF 6
