REMARK  Name = ZINC53405066
REMARK  10 active torsions:
REMARK  status: ('A' for Active; 'I' for Inactive)
REMARK    1  A    between atoms: C_1  and  C_2
REMARK    2  A    between atoms: N_6  and  C_8
REMARK    3  A    between atoms: C_8  and  C_9
REMARK    4  A    between atoms: C_8  and  C_10
REMARK    5  A    between atoms: C_8  and  C_11
REMARK    6  A    between atoms: C_11  and  N_12
REMARK    7  A    between atoms: C_13  and  C_15
REMARK    8  A    between atoms: C_15  and  C_16
REMARK    9  A    between atoms: C_15  and  N_17
REMARK   10  A    between atoms: C_18  and  C_20
REMARK                            x       y       z     vdW  Elec       q    Type
REMARK                         _______ _______ _______ _____ _____    ______ ____
ROOT
ATOM      1  N   UNL     1       2.189  -4.461   1.137  0.00  0.00    -0.315 N 
ATOM      2  C   UNL     1       2.323  -5.782   0.909  0.00  0.00    +0.233 C 
ATOM      3  O   UNL     1       1.929  -6.582   1.731  0.00  0.00    -0.274 OA
ATOM      4  H   UNL     1       2.503  -3.821   0.480  0.00  0.00    +0.149 HD
ENDROOT
BRANCH   2   5
ATOM      5  C   UNL     1       2.961  -6.266  -0.367  0.00  0.00    +0.156 C 
ATOM      6  C   UNL     1       4.391  -5.728  -0.458  0.00  0.00    +0.038 C 
BRANCH   5   7
ATOM      7  N   UNL     1       2.989  -7.730  -0.375  0.00  0.00    -0.304 N 
ATOM      8  C   UNL     1       3.028  -8.397  -1.546  0.00  0.00    +0.217 C 
ATOM      9  O   UNL     1       3.040  -7.785  -2.593  0.00  0.00    -0.275 OA
ATOM     10  H   UNL     1       2.979  -8.220   0.462  0.00  0.00    +0.149 HD
BRANCH   8  11
ATOM     11  C   UNL     1       3.056  -9.904  -1.554  0.00  0.00    +0.075 C 
ATOM     12  C   UNL     1       4.340 -10.412  -0.866  0.00  0.00    +0.013 C 
ATOM     13  C   UNL     1       4.748 -11.655  -1.695  0.00  0.00    +0.001 C 
ATOM     14  C   UNL     1       4.407 -11.227  -3.144  0.00  0.00    +0.001 C 
ATOM     15  C   UNL     1       3.099 -10.422  -3.002  0.00  0.00    +0.013 C 
ENDBRANCH   8  11
ENDBRANCH   5   7
ENDBRANCH   2   5
BRANCH   1  16
ATOM     16  C   UNL     1       1.568  -3.991   2.378  0.00  0.00    +0.092 C 
BRANCH  16  17
ATOM     17  C   UNL     1       1.539  -2.461   2.387  0.00  0.00    -0.055 C 
ATOM     18  C   UNL     1       2.969  -1.923   2.296  0.00  0.00    -0.008 C 
ATOM     19  C   UNL     1       0.891  -1.970   3.683  0.00  0.00    -0.008 C 
BRANCH  17  25
ATOM     20  C   UNL     1      -0.019   1.526   0.010  0.00  0.00    +0.005 C 
ATOM     21  C   UNL     1       0.002  -0.004   0.002  0.00  0.00    -0.031 C 
ATOM     22  C   UNL     1      -1.434  -0.535   0.018  0.00  0.00    -0.001 C 
ATOM     23  C   UNL     1      -1.402  -2.064   0.089  0.00  0.00    -0.018 C 
ATOM     24  C   UNL     1      -0.610  -2.496   1.325  0.00  0.00    -0.078 C 
ATOM     25  N   UNL     1       0.761  -1.980   1.237  0.00  0.00    +0.384 N 
ATOM     26  C   UNL     1       0.742  -0.512   1.241  0.00  0.00    -0.075 C 
ATOM     27  H   UNL     1       1.189  -2.307   0.384  0.00  0.00    -0.081 HD
ENDBRANCH  17  25
ENDBRANCH  16  17
ENDBRANCH   1  16
TORSDOF 6
