REMARK  Name = ZINC39145792
REMARK  4 active torsions:
REMARK  status: ('A' for Active; 'I' for Inactive)
REMARK    1  A    between atoms: C_4  and  N_7
REMARK    2  A    between atoms: N_7  and  C_8
REMARK    3  A    between atoms: C_8  and  N_10
REMARK    4  A    between atoms: N_10  and  N_11
REMARK                            x       y       z     vdW  Elec       q    Type
REMARK                         _______ _______ _______ _____ _____    ______ ____
ROOT
ATOM      1  N   UNL     1       6.022  -1.921   0.134  0.00  0.00    -0.143 NA
ATOM      2  C   UNL     1       7.173  -2.555   0.218  0.00  0.00    +0.252 C 
ATOM      3  N   UNL     1       7.192  -3.962   0.311  0.00  0.00    -0.286 N 
ATOM      4  C   UNL     1       8.388  -4.589  -0.255  0.00  0.00    +0.220 C 
ATOM      5  C   UNL     1       9.559  -3.739   0.218  0.00  0.00    +0.113 C 
ATOM      6  C   UNL     1      10.493  -4.634   0.668  0.00  0.00    +0.025 A 
ATOM      7  C   UNL     1      11.828  -4.464   1.106  0.00  0.00    +0.012 A 
ATOM      8  C   UNL     1      12.490  -5.584   1.514  0.00  0.00    +0.001 A 
ATOM      9  C   UNL     1      11.918  -6.856   1.516  0.00  0.00    +0.002 A 
ATOM     10  C   UNL     1      10.645  -7.108   1.104  0.00  0.00    +0.026 A 
ATOM     11  C   UNL     1       9.883  -5.992   0.653  0.00  0.00    +0.046 A 
ATOM     12  N   UNL     1       8.666  -5.942   0.192  0.00  0.00    -0.361 N 
ATOM     13  N   UNL     1       9.480  -2.415   0.294  0.00  0.00    -0.146 NA
ATOM     14  N   UNL     1       8.317  -1.861   0.210  0.00  0.00    -0.112 NA
ATOM     15  H   UNL     1       8.049  -6.689   0.153  0.00  0.00    +0.162 HD
ATOM     16  H   UNL     1       6.473  -4.471   0.717  0.00  0.00    +0.151 HD
ENDROOT
BRANCH   1  17
ATOM     17  N   UNL     1       4.822  -2.644   0.143  0.00  0.00    -0.215 N 
ATOM     18  H   UNL     1       4.839  -3.611   0.211  0.00  0.00    +0.176 HD
BRANCH  17  19
ATOM     19  C   UNL     1       3.644  -1.994   0.057  0.00  0.00    +0.154 C 
ATOM     20  S   UNL     1       2.177  -2.877   0.068  0.00  0.00    -0.017 S 
BRANCH  19  21
ATOM     21  N   UNL     1       3.621  -0.650  -0.037  0.00  0.00    -0.296 N 
ATOM     22  H   UNL     1       4.451  -0.156  -0.124  0.00  0.00    +0.154 HD
BRANCH  21  26
ATOM     23  C   UNL     1      -0.014   1.382   0.046  0.00  0.00    +0.000 A 
ATOM     24  C   UNL     1       0.205   0.325   0.911  0.00  0.00    +0.002 A 
ATOM     25  C   UNL     1       1.410  -0.350   0.886  0.00  0.00    +0.023 A 
ATOM     26  C   UNL     1       2.400   0.032  -0.010  0.00  0.00    +0.033 A 
ATOM     27  C   UNL     1       2.176   1.093  -0.877  0.00  0.00    +0.023 A 
ATOM     28  C   UNL     1       0.970   1.765  -0.847  0.00  0.00    +0.002 A 
ENDBRANCH  21  26
ENDBRANCH  19  21
ENDBRANCH  17  19
ENDBRANCH   1  17
TORSDOF 4
