REMARK  Name = ZINC09303994
REMARK  6 active torsions:
REMARK  status: ('A' for Active; 'I' for Inactive)
REMARK    1  A    between atoms: C_1  and  C_2
REMARK    2  A    between atoms: C_3  and  C_23
REMARK    3  A    between atoms: C_11  and  O_22
REMARK    4  A    between atoms: C_12  and  C_13
REMARK    5  A    between atoms: C_13  and  N_41
REMARK    6  A    between atoms: C_14  and  N_41
REMARK                            x       y       z     vdW  Elec       q    Type
REMARK                         _______ _______ _______ _____ _____    ______ ____
ROOT
ATOM      1  C   UNL     1       1.476   1.579   2.433  0.00  0.00    +0.045 C 
ATOM      2  C   UNL     1      -0.013   1.802   2.386  0.00  0.00    -0.030 A 
ATOM      3  C   UNL     1      -0.718   1.572   1.248  0.00  0.00    +0.037 A 
ATOM      4  C   UNL     1      -2.110   1.794   1.228  0.00  0.00    +0.340 A 
ATOM      5  O   UNL     1      -2.729   1.589   0.199  0.00  0.00    -0.245 OA
ATOM      6  O   UNL     1      -2.772   2.221   2.315  0.00  0.00    -0.422 OA
ATOM      7  C   UNL     1      -2.132   2.469   3.478  0.00  0.00    +0.144 A 
ATOM      8  C   UNL     1      -0.741   2.274   3.567  0.00  0.00    +0.021 A 
ATOM      9  C   UNL     1      -0.073   2.530   4.769  0.00  0.00    +0.015 A 
ATOM     10  C   UNL     1      -0.775   2.969   5.854  0.00  0.00    +0.046 A 
ATOM     11  C   UNL     1      -2.152   3.164   5.772  0.00  0.00    +0.122 A 
ATOM     12  C   UNL     1      -2.829   2.915   4.589  0.00  0.00    +0.020 A 
ATOM     13  C   UNL     1      -0.013   1.086   0.008  0.00  0.00    +0.051 C 
ENDROOT
BRANCH  11  14
ATOM     14  O   UNL     1      -2.837   3.600   6.861  0.00  0.00    -0.506 OA
ATOM     15  H   UNL     1      -2.902   4.563   6.924  0.00  0.00    +0.292 HD
ENDBRANCH  11  14
BRANCH  12  16
ATOM     16  C   UNL     1      -4.319   3.129   4.511  0.00  0.00    -0.039 C 
BRANCH  16  17
ATOM     17  N   UNL     1      -4.586   4.517   4.088  0.00  0.00    +0.385 N 
ATOM     18  H   UNL     1      -4.162   4.678   3.167  0.00  0.00    -0.085 HD
ATOM     19  H   UNL     1      -4.176   5.164   4.772  0.00  0.00    -0.085 HD
BRANCH  17  20
ATOM     20  C   UNL     1      -6.040   4.755   4.003  0.00  0.00    -0.049 C 
ATOM     21  C   UNL     1      -6.555   4.335   2.617  0.00  0.00    +0.008 C 
ATOM     22  C   UNL     1      -7.988   4.879   2.400  0.00  0.00    +0.164 C 
ATOM     23  S   UNL     1      -8.010   6.390   3.448  0.00  0.00    -0.033 S 
ATOM     24  O   UNL     1      -8.978   6.226   4.474  0.00  0.00    -0.174 OA
ATOM     25  O   UNL     1      -8.067   7.535   2.608  0.00  0.00    -0.174 OA
ATOM     26  C   UNL     1      -6.326   6.273   4.188  0.00  0.00    +0.150 C 
ENDBRANCH  17  20
ENDBRANCH  16  17
ENDBRANCH  12  16
TORSDOF 4
