REMARK  Name = ZINC25672252
REMARK  9 active torsions:
REMARK  status: ('A' for Active; 'I' for Inactive)
REMARK    1  A    between atoms: C_1  and  C_2
REMARK    2  A    between atoms: C_5  and  N_8
REMARK    3  A    between atoms: C_9  and  C_11
REMARK    4  A    between atoms: C_11  and  C_13
REMARK    5  A    between atoms: C_11  and  N_19
REMARK    6  A    between atoms: N_19  and  C_20
REMARK    7  A    between atoms: C_20  and  C_21
REMARK    8  A    between atoms: C_21  and  C_22
REMARK    9  A    between atoms: C_22  and  N_23
REMARK                            x       y       z     vdW  Elec       q    Type
REMARK                         _______ _______ _______ _____ _____    ______ ____
ROOT
ATOM      1  C   UNL     1       0.002   1.074   4.929  0.00  0.00    +0.047 C 
ENDROOT
BRANCH   1   2
ATOM      2  C   UNL     1      -0.491  -0.307   5.279  0.00  0.00    -0.053 A 
ATOM      3  C   UNL     1      -1.832  -0.615   5.148  0.00  0.00    +0.002 A 
ATOM      4  C   UNL     1      -2.284  -1.883   5.465  0.00  0.00    +0.000 A 
ATOM      5  C   UNL     1      -1.396  -2.839   5.921  0.00  0.00    +0.000 A 
ATOM      6  C   UNL     1      -0.056  -2.529   6.056  0.00  0.00    +0.000 A 
ATOM      7  C   UNL     1       0.397  -1.263   5.736  0.00  0.00    +0.002 A 
ENDBRANCH   1   2
BRANCH   1   9
ATOM      8  N   UNL     1       0.230   1.782   7.288  0.00  0.00    -0.287 N 
ATOM      9  C   UNL     1      -0.293   2.016   6.068  0.00  0.00    +0.207 C 
ATOM     10  O   UNL     1      -1.000   2.984   5.886  0.00  0.00    -0.277 OA
ATOM     11  H   UNL     1       0.809   0.865   7.473  0.00  0.00    +0.155 HD
BRANCH   8  16
ATOM     12  C   UNL     1      -0.555   5.531  11.474  0.00  0.00    +0.044 C 
ATOM     13  C   UNL     1      -0.347   4.535  10.362  0.00  0.00    -0.050 A 
ATOM     14  C   UNL     1      -1.346   4.322   9.430  0.00  0.00    +0.005 A 
ATOM     15  C   UNL     1      -1.158   3.410   8.410  0.00  0.00    +0.023 A 
ATOM     16  C   UNL     1       0.036   2.707   8.321  0.00  0.00    +0.033 A 
ATOM     17  C   UNL     1       1.036   2.919   9.261  0.00  0.00    +0.023 A 
ATOM     18  C   UNL     1       0.844   3.837  10.275  0.00  0.00    +0.005 A 
ENDBRANCH   8  16
ENDBRANCH   1   9
BRANCH   1  19
ATOM     19  N   UNL     1      -0.679   1.544   3.716  0.00  0.00    +0.389 N 
ATOM     20  H   UNL     1      -1.713   1.171   3.708  0.00  0.00    -0.084 HD
ATOM     21  H   UNL     1      -0.686   2.644   3.702  0.00  0.00    -0.084 HD
BRANCH  19  22
ATOM     22  C   UNL     1       0.005   1.062   2.508  0.00  0.00    -0.080 C 
BRANCH  22  23
ATOM     23  C   UNL     1      -0.731   1.572   1.268  0.00  0.00    +0.000 C 
BRANCH  23  24
ATOM     24  C   UNL     1      -0.019   1.070   0.010  0.00  0.00    +0.116 C 
BRANCH  24  25
ATOM     25  N   UNL     1      -0.724   1.558  -1.178  0.00  0.00    -0.224 N 
ATOM     26  C   UNL     1      -0.451   2.726  -1.797  0.00  0.00    +0.246 C 
ATOM     27  O   UNL     1       0.392   3.542  -1.490  0.00  0.00    -0.273 OA
ATOM     28  C   UNL     1      -1.417   2.800  -2.952  0.00  0.00    +0.113 C 
ATOM     29  C   UNL     1      -0.671   2.881  -4.291  0.00  0.00    +0.035 C 
ATOM     30  C   UNL     1      -1.564   3.801  -5.163  0.00  0.00    +0.003 C 
ATOM     31  C   UNL     1      -2.079   4.849  -4.143  0.00  0.00    +0.003 C 
ATOM     32  C   UNL     1      -2.312   4.037  -2.850  0.00  0.00    +0.035 C 
ATOM     33  N   UNL     1      -2.198   1.565  -2.856  0.00  0.00    -0.285 N 
ATOM     34  C   UNL     1      -1.717   0.897  -1.789  0.00  0.00    +0.309 C 
ATOM     35  O   UNL     1      -2.138  -0.181  -1.420  0.00  0.00    -0.252 OA
ATOM     36  H   UNL     1      -2.993   1.359  -3.588  0.00  0.00    +0.151 HD
ENDBRANCH  24  25
ENDBRANCH  23  24
ENDBRANCH  22  23
ENDBRANCH  19  22
ENDBRANCH   1  19
TORSDOF 8
