REMARK  Name = ZINC09499663
REMARK  9 active torsions:
REMARK  status: ('A' for Active; 'I' for Inactive)
REMARK    1  A    between atoms: C_1  and  C_2
REMARK    2  A    between atoms: C_2  and  C_3
REMARK    3  A    between atoms: N_11  and  C_15
REMARK    4  A    between atoms: C_15  and  C_16
REMARK    5  A    between atoms: N_18  and  N_19
REMARK    6  A    between atoms: C_22  and  C_26
REMARK    7  A    between atoms: C_22  and  C_27
REMARK    8  A    between atoms: C_27  and  C_28
REMARK    9  A    between atoms: C_28  and  C_29
REMARK                            x       y       z     vdW  Elec       q    Type
REMARK                         _______ _______ _______ _____ _____    ______ ____
ROOT
ATOM      1  C   UNL     1      -1.193   2.055   0.019  0.00  0.00    +0.248 C 
ATOM      2  O   UNL     1      -2.235   1.434   0.020  0.00  0.00    -0.273 OA
ATOM      3  N   UNL     1      -0.017   1.397   0.010  0.00  0.00    -0.222 N 
ATOM      4  H   UNL     1       0.816   1.893   0.004  0.00  0.00    +0.174 HD
ENDROOT
BRANCH   3   5
ATOM      5  N   UNL     1       0.002  -0.004   0.002  0.00  0.00    -0.137 N 
ATOM      6  C   UNL     1       0.291  -0.751  -1.082  0.00  0.00    +0.263 C 
ATOM      7  O   UNL     1       0.571  -0.353  -2.192  0.00  0.00    -0.271 OA
ATOM      8  C   UNL     1       0.191  -2.193  -0.624  0.00  0.00    +0.112 C 
ATOM      9  N   UNL     1      -0.176  -2.080   0.798  0.00  0.00    -0.284 N 
ATOM     10  C   UNL     1      -0.258  -0.765   1.071  0.00  0.00    +0.326 C 
ATOM     11  O   UNL     1      -0.541  -0.319   2.166  0.00  0.00    -0.251 OA
ATOM     12  C   UNL     1      -0.898  -2.932  -1.404  0.00  0.00    +0.041 C 
ATOM     13  H   UNL     1      -0.326  -2.811   1.418  0.00  0.00    +0.151 HD
BRANCH   8  14
ATOM     14  C   UNL     1       1.538  -2.902  -0.780  0.00  0.00    +0.040 C 
BRANCH  14  15
ATOM     15  C   UNL     1       1.408  -4.352  -0.312  0.00  0.00    +0.038 C 
BRANCH  15  16
ATOM     16  C   UNL     1       2.735  -5.051  -0.466  0.00  0.00    -0.047 A 
ATOM     17  C   UNL     1       3.038  -5.707  -1.644  0.00  0.00    +0.003 A 
ATOM     18  C   UNL     1       4.257  -6.343  -1.788  0.00  0.00    +0.000 A 
ATOM     19  C   UNL     1       5.168  -6.332  -0.749  0.00  0.00    +0.000 A 
ATOM     20  C   UNL     1       4.864  -5.680   0.432  0.00  0.00    +0.000 A 
ATOM     21  C   UNL     1       3.647  -5.039   0.573  0.00  0.00    +0.003 A 
ENDBRANCH  15  16
ENDBRANCH  14  15
ENDBRANCH   8  14
ENDBRANCH   3   5
BRANCH   1  22
ATOM     22  C   UNL     1      -1.214   3.562   0.027  0.00  0.00    +0.215 C 
BRANCH  22  31
ATOM     23  C   UNL     1      -7.412   5.665  -1.012  0.00  0.00    -0.011 C 
ATOM     24  C   UNL     1      -7.124   4.246  -0.517  0.00  0.00    +0.006 C 
ATOM     25  C   UNL     1      -5.769   3.784  -1.058  0.00  0.00    +0.035 C 
ATOM     26  C   UNL     1      -4.678   4.737  -0.581  0.00  0.00    +0.113 C 
ATOM     27  C   UNL     1      -4.963   6.160  -1.049  0.00  0.00    +0.035 C 
ATOM     28  C   UNL     1      -6.322   6.614  -0.509  0.00  0.00    +0.006 C 
ATOM     29  C   UNL     1      -3.323   4.285  -1.075  0.00  0.00    +0.247 C 
ATOM     30  O   UNL     1      -2.962   4.173  -2.227  0.00  0.00    -0.273 OA
ATOM     31  N   UNL     1      -2.601   4.031   0.036  0.00  0.00    -0.215 N 
ATOM     32  C   UNL     1      -3.308   4.267   1.148  0.00  0.00    +0.310 C 
ATOM     33  O   UNL     1      -2.872   4.115   2.272  0.00  0.00    -0.252 OA
ATOM     34  N   UNL     1      -4.558   4.691   0.882  0.00  0.00    -0.285 N 
ATOM     35  H   UNL     1      -5.244   4.921   1.528  0.00  0.00    +0.151 HD
BRANCH  23  37
ATOM     36  C   UNL     1      -9.116   7.491  -1.075  0.00  0.00    +0.004 C 
ATOM     37  C   UNL     1      -8.771   6.124  -0.481  0.00  0.00    -0.000 C 
ENDBRANCH  23  37
ENDBRANCH  22  31
ENDBRANCH   1  22
TORSDOF 7
