REMARK  Name = ZINC50395306
REMARK  2 active torsions:
REMARK  status: ('A' for Active; 'I' for Inactive)
REMARK    1  A    between atoms: C_3  and  N_9
REMARK    2  A    between atoms: N_9  and  C_10
REMARK                            x       y       z     vdW  Elec       q    Type
REMARK                         _______ _______ _______ _____ _____    ______ ____
ROOT
ATOM      1  N   UNL     1       3.529   1.909   1.248  0.00  0.00    +0.389 N 
ATOM      2  H   UNL     1       3.994   1.277   0.613  0.00  0.00    -0.084 HD
ATOM      3  H   UNL     1       3.636   2.857   0.918  0.00  0.00    -0.084 HD
ENDROOT
BRANCH   1   4
ATOM      4  C   UNL     1       4.122   1.785   2.586  0.00  0.00    -0.068 C 
ATOM      5  C   UNL     1       3.488   2.816   3.522  0.00  0.00    +0.003 C 
ATOM      6  C   UNL     1       4.085   2.660   4.925  0.00  0.00    +0.108 C 
ATOM      7  N   UNL     1       5.548   2.753   4.829  0.00  0.00    -0.286 N 
ATOM      8  C   UNL     1       6.251   1.869   3.890  0.00  0.00    +0.108 C 
ATOM      9  C   UNL     1       5.630   2.033   2.499  0.00  0.00    +0.003 C 
ATOM     10  C   UNL     1       6.232   3.632   5.588  0.00  0.00    +0.300 C 
ATOM     11  O   UNL     1       5.650   4.293   6.426  0.00  0.00    -0.253 OA
ATOM     12  N   UNL     1       7.561   3.778   5.418  0.00  0.00    -0.313 N 
ATOM     13  H   UNL     1       8.037   3.200   4.802  0.00  0.00    +0.146 HD
ATOM     14  H   UNL     1       8.040   4.461   5.911  0.00  0.00    +0.146 HD
ENDBRANCH   1   4
BRANCH   1  17
ATOM     15  C   UNL     1       0.024   1.324  -0.030  0.00  0.00    +0.018 C 
ATOM     16  C   UNL     1       1.432   1.931  -0.017  0.00  0.00    -0.005 C 
ATOM     17  C   UNL     1       2.100   1.572   1.313  0.00  0.00    +0.016 C 
ATOM     18  C   UNL     1       1.948   0.102   1.582  0.00  0.00    +0.199 C 
ATOM     19  O   UNL     1       2.677  -0.409   2.404  0.00  0.00    -0.278 OA
ATOM     20  N   UNL     1       1.053  -0.670   0.964  0.00  0.00    -0.317 N 
ATOM     21  C   UNL     1       0.147  -0.200  -0.077  0.00  0.00    +0.104 C 
ATOM     22  H   UNL     1       1.002  -1.603   1.224  0.00  0.00    +0.149 HD
ENDBRANCH   1  17
TORSDOF 2
