REMARK  Name = ZINC40679814
REMARK  9 active torsions:
REMARK  status: ('A' for Active; 'I' for Inactive)
REMARK    1  A    between atoms: C_1  and  C_2
REMARK    2  A    between atoms: C_2  and  N_3
REMARK    3  A    between atoms: N_3  and  C_4
REMARK    4  A    between atoms: C_11  and  N_26
REMARK    5  A    between atoms: C_12  and  N_16
REMARK    6  A    between atoms: N_16  and  C_17
REMARK    7  A    between atoms: C_22  and  O_23
REMARK    8  A    between atoms: O_23  and  C_24
REMARK    9  A    between atoms: C_24  and  C_25
REMARK                            x       y       z     vdW  Elec       q    Type
REMARK                         _______ _______ _______ _____ _____    ______ ____
ROOT
ATOM      1  N   UNL     1      -1.125  -0.399   0.254  0.00  0.00    -0.284 N 
ATOM      2  C   UNL     1      -1.738  -0.842   1.421  0.00  0.00    +0.151 A 
ATOM      3  C   UNL     1      -2.994  -1.449   1.375  0.00  0.00    +0.104 A 
ATOM      4  C   UNL     1      -3.564  -1.875   2.576  0.00  0.00    +0.126 A 
ATOM      5  N   UNL     1      -2.893  -1.688   3.710  0.00  0.00    -0.333 N 
ATOM      6  C   UNL     1      -1.710  -1.109   3.709  0.00  0.00    +0.200 A 
ATOM      7  N   UNL     1      -1.134  -0.698   2.598  0.00  0.00    -0.220 NA
ATOM      8  H   UNL     1      -3.282  -1.980   4.550  0.00  0.00    +0.168 HD
ENDROOT
BRANCH   1   9
ATOM      9  C   UNL     1      -1.260   0.934  -0.144  0.00  0.00    +0.035 A 
ATOM     10  C   UNL     1      -0.560   1.406  -1.247  0.00  0.00    +0.023 A 
ATOM     11  C   UNL     1      -0.696   2.724  -1.637  0.00  0.00    +0.002 A 
ATOM     12  C   UNL     1      -1.528   3.573  -0.932  0.00  0.00    +0.000 A 
ATOM     13  C   UNL     1      -2.227   3.107   0.167  0.00  0.00    +0.002 A 
ATOM     14  C   UNL     1      -2.100   1.789   0.559  0.00  0.00    +0.023 A 
ENDBRANCH   1   9
BRANCH   3  15
ATOM     15  N   UNL     1      -3.666  -1.627   0.155  0.00  0.00    -0.353 N 
ATOM     16  H   UNL     1      -3.227  -1.393  -0.678  0.00  0.00    +0.143 HD
ATOM     17  H   UNL     1      -4.568  -1.983   0.145  0.00  0.00    +0.143 HD
ENDBRANCH   3  15
BRANCH   1  19
ATOM     18  C   UNL     1       1.119  -1.308  -0.090  0.00  0.00    +0.025 C 
ATOM     19  C   UNL     1      -0.337  -1.329  -0.559  0.00  0.00    +0.109 C 
ENDBRANCH   1  19
BRANCH   4  20
ATOM     20  N   UNL     1      -4.813  -2.486   2.587  0.00  0.00    -0.296 N 
ATOM     21  H   UNL     1      -5.325  -2.557   1.767  0.00  0.00    +0.154 HD
BRANCH  20  22
ATOM     22  C   UNL     1      -5.331  -2.999   3.782  0.00  0.00    +0.075 A 
ATOM     23  C   UNL     1      -5.357  -4.369   3.998  0.00  0.00    +0.027 A 
ATOM     24  C   UNL     1      -5.869  -4.873   5.179  0.00  0.00    +0.002 A 
ATOM     25  C   UNL     1      -6.356  -4.014   6.147  0.00  0.00    +0.004 A 
ATOM     26  C   UNL     1      -6.333  -2.648   5.939  0.00  0.00    +0.047 A 
ATOM     27  C   UNL     1      -5.816  -2.134   4.761  0.00  0.00    +0.142 A 
BRANCH  27  28
ATOM     28  O   UNL     1      -5.787  -0.790   4.558  0.00  0.00    -0.490 OA
BRANCH  28  29
ATOM     29  C   UNL     1      -6.301   0.035   5.605  0.00  0.00    +0.226 C 
ATOM     30  C   UNL     1      -6.187   1.506   5.198  0.00  0.00    +0.048 C 
ENDBRANCH  28  29
ENDBRANCH  27  28
ENDBRANCH  20  22
ENDBRANCH   4  20
TORSDOF 7
