REMARK  Name = ZINC55325826
REMARK  9 active torsions:
REMARK  status: ('A' for Active; 'I' for Inactive)
REMARK    1  A    between atoms: C_1  and  C_2
REMARK    2  A    between atoms: C_2  and  N_3
REMARK    3  A    between atoms: C_9  and  C_11
REMARK    4  A    between atoms: C_11  and  C_12
REMARK    5  A    between atoms: N_14  and  C_15
REMARK    6  A    between atoms: C_15  and  C_16
REMARK    7  A    between atoms: N_18  and  C_19
REMARK    8  A    between atoms: C_19  and  C_20
REMARK    9  A    between atoms: C_19  and  C_26
REMARK                            x       y       z     vdW  Elec       q    Type
REMARK                         _______ _______ _______ _____ _____    ______ ____
ROOT
ATOM      1  C   UNL     1      -3.902  -1.594   0.299  0.00  0.00    +0.200 C 
ENDROOT
BRANCH   1   4
ATOM      2  C   UNL     1      -1.664  -1.789  -0.645  0.00  0.00    +0.212 C 
ATOM      3  O   UNL     1      -1.251  -1.103   0.266  0.00  0.00    -0.276 OA
ATOM      4  N   UNL     1      -2.975  -2.092  -0.720  0.00  0.00    -0.307 N 
ATOM      5  H   UNL     1      -3.305  -2.640  -1.450  0.00  0.00    +0.149 HD
BRANCH   2   6
ATOM      6  C   UNL     1      -0.711  -2.301  -1.694  0.00  0.00    +0.089 C 
BRANCH   6  13
ATOM      7  N   UNL     1       1.052  -2.592  -0.023  0.00  0.00    +0.388 N 
ATOM      8  C   UNL     1       2.352  -2.088   0.446  0.00  0.00    -0.059 C 
ATOM      9  C   UNL     1       2.189  -0.630   0.880  0.00  0.00    +0.085 C 
ATOM     10  N   UNL     1       1.529   0.132  -0.176  0.00  0.00    -0.318 N 
ATOM     11  C   UNL     1       0.846  -0.452  -1.168  0.00  0.00    +0.200 C 
ATOM     12  O   UNL     1       0.306   0.252  -1.995  0.00  0.00    -0.278 OA
ATOM     13  C   UNL     1       0.723  -1.943  -1.299  0.00  0.00    +0.028 C 
ATOM     14  H   UNL     1       1.587   1.100  -0.158  0.00  0.00    +0.149 HD
ATOM     15  H   UNL     1       0.339  -2.377   0.658  0.00  0.00    -0.081 HD
BRANCH   7  17
ATOM     16  C   UNL     1       1.320  -4.730   1.139  0.00  0.00    -0.017 C 
ATOM     17  C   UNL     1       1.127  -4.046  -0.215  0.00  0.00    -0.081 C 
ENDBRANCH   7  17
ENDBRANCH   6  13
ENDBRANCH   2   6
ENDBRANCH   1   4
BRANCH   1  18
ATOM     18  C   UNL     1      -5.296  -2.071  -0.013  0.00  0.00    +0.231 C 
ATOM     19  O   UNL     1      -5.497  -2.760  -0.991  0.00  0.00    -0.274 OA
ATOM     20  N   UNL     1      -6.321  -1.733   0.794  0.00  0.00    -0.303 N 
ATOM     21  H   UNL     1      -6.161  -1.183   1.577  0.00  0.00    +0.150 HD
BRANCH  20  22
ATOM     22  C   UNL     1      -7.677  -2.197   0.491  0.00  0.00    +0.134 C 
BRANCH  22  23
ATOM     23  C   UNL     1      -7.874  -3.579   1.059  0.00  0.00    -0.023 A 
ATOM     24  C   UNL     1      -7.364  -3.893   2.305  0.00  0.00    +0.006 A 
ATOM     25  C   UNL     1      -7.545  -5.161   2.826  0.00  0.00    +0.000 A 
ATOM     26  C   UNL     1      -8.237  -6.114   2.102  0.00  0.00    +0.000 A 
ATOM     27  C   UNL     1      -8.747  -5.800   0.856  0.00  0.00    +0.000 A 
ATOM     28  C   UNL     1      -8.570  -4.531   0.337  0.00  0.00    +0.006 A 
ENDBRANCH  22  23
BRANCH  22  29
ATOM     29  C   UNL     1      -8.680  -1.254   1.104  0.00  0.00    -0.023 A 
ATOM     30  C   UNL     1      -8.454  -0.726   2.361  0.00  0.00    +0.006 A 
ATOM     31  C   UNL     1      -9.373   0.139   2.923  0.00  0.00    +0.000 A 
ATOM     32  C   UNL     1     -10.520   0.476   2.228  0.00  0.00    +0.000 A 
ATOM     33  C   UNL     1     -10.746  -0.051   0.971  0.00  0.00    +0.000 A 
ATOM     34  C   UNL     1      -9.824  -0.913   0.406  0.00  0.00    +0.006 A 
ENDBRANCH  22  29
ENDBRANCH  20  22
ENDBRANCH   1  18
TORSDOF 8
