REMARK  Name = ZINC16475121
REMARK  14 active torsions:
REMARK  status: ('A' for Active; 'I' for Inactive)
REMARK    1  A    between atoms: C_1  and  C_2
REMARK    2  A    between atoms: C_5  and  C_31
REMARK    3  A    between atoms: C_9  and  C_10
REMARK    4  A    between atoms: C_9  and  N_66
REMARK    5  A    between atoms: N_12  and  C_13
REMARK    6  A    between atoms: N_12  and  C_17
REMARK    7  A    between atoms: C_13  and  C_14
REMARK    8  A    between atoms: C_14  and  C_15
REMARK    9  A    between atoms: C_14  and  C_16
REMARK   10  A    between atoms: C_18  and  N_30
REMARK   11  A    between atoms: N_19  and  C_26
REMARK   12  A    between atoms: C_26  and  C_27
REMARK   13  A    between atoms: C_27  and  C_28
REMARK   14  A    between atoms: C_27  and  C_29
REMARK                            x       y       z     vdW  Elec       q    Type
REMARK                         _______ _______ _______ _____ _____    ______ ____
ROOT
ATOM      1  C   UNL     1       4.255   4.282   0.367  0.00  0.00    +0.203 C 
ATOM      2  O   UNL     1       4.992   5.158   0.770  0.00  0.00    -0.277 OA
ATOM      3  N   UNL     1       2.928   4.506   0.275  0.00  0.00    -0.266 N 
ENDROOT
BRANCH   3   4
ATOM      4  C   UNL     1       2.058   3.455  -0.083  0.00  0.00    +0.140 A 
ATOM      5  C   UNL     1       1.469   3.425  -1.330  0.00  0.00    +0.127 A 
ATOM      6  N   UNL     1       0.626   2.387  -1.650  0.00  0.00    -0.280 N 
ATOM      7  C   UNL     1       0.374   1.414  -0.755  0.00  0.00    +0.331 A 
ATOM      8  O   UNL     1      -0.379   0.507  -1.056  0.00  0.00    -0.246 OA
ATOM      9  N   UNL     1       0.943   1.424   0.463  0.00  0.00    -0.273 N 
ATOM     10  H   UNL     1       0.745   0.685   1.107  0.00  0.00    +0.173 HD
ATOM     11  C   UNL     1       1.776   2.418   0.827  0.00  0.00    +0.277 A 
ATOM     12  O   UNL     1       2.283   2.420   1.936  0.00  0.00    -0.266 OA
BRANCH   5  13
ATOM     13  N   UNL     1       1.723   4.421  -2.243  0.00  0.00    -0.343 N 
ATOM     14  H   UNL     1       1.323   4.384  -3.126  0.00  0.00    +0.144 HD
ATOM     15  H   UNL     1       2.302   5.162  -2.004  0.00  0.00    +0.144 HD
ENDBRANCH   5  13
BRANCH   6  16
ATOM     16  C   UNL     1      -0.006   2.343  -2.971  0.00  0.00    +0.131 C 
BRANCH  16  17
ATOM     17  C   UNL     1       0.893   1.575  -3.942  0.00  0.00    +0.003 C 
ATOM     18  C   UNL     1       0.179   1.421  -5.286  0.00  0.00    +0.009 C 
ATOM     19  C   UNL     1       2.199   2.346  -4.144  0.00  0.00    +0.009 C 
ENDBRANCH  16  17
ENDBRANCH   6  16
ENDBRANCH   3   4
BRANCH   1  20
ATOM     20  C   UNL     1       4.823   2.944  -0.031  0.00  0.00    +0.019 C 
BRANCH  20  28
ATOM     21  C   UNL     1       8.631   4.638   0.559  0.00  0.00    +0.005 C 
ATOM     22  C   UNL     1       8.327   4.070  -0.828  0.00  0.00    -0.031 C 
ATOM     23  C   UNL     1       8.986   2.695  -0.973  0.00  0.00    +0.003 C 
ATOM     24  C   UNL     1       8.389   1.740   0.063  0.00  0.00    -0.031 C 
ATOM     25  C   UNL     1       6.874   1.662  -0.135  0.00  0.00    -0.075 C 
ATOM     26  C   UNL     1       6.813   3.925  -1.000  0.00  0.00    -0.075 C 
ATOM     27  C   UNL     1       8.999   0.348  -0.114  0.00  0.00    +0.005 C 
ATOM     28  N   UNL     1       6.297   3.012   0.042  0.00  0.00    +0.386 N 
ATOM     29  H   UNL     1       6.569   3.372   0.964  0.00  0.00    -0.081 HD
ENDBRANCH  20  28
ENDBRANCH   1  20
BRANCH   3  30
ATOM     30  C   UNL     1       2.390   5.842   0.547  0.00  0.00    +0.117 C 
BRANCH  30  31
ATOM     31  C   UNL     1       1.918   5.915   2.001  0.00  0.00    +0.001 C 
ATOM     32  C   UNL     1       3.118   5.752   2.936  0.00  0.00    +0.009 C 
ATOM     33  C   UNL     1       1.254   7.270   2.254  0.00  0.00    +0.009 C 
ENDBRANCH  30  31
ENDBRANCH   3  30
TORSDOF 8
