REMARK  Name = ZINC39683347
REMARK  11 active torsions:
REMARK  status: ('A' for Active; 'I' for Inactive)
REMARK    1  A    between atoms: C_1  and  C_2
REMARK    2  A    between atoms: C_2  and  C_3
REMARK    3  A    between atoms: C_2  and  C_4
REMARK    4  A    between atoms: C_4  and  O_5
REMARK    5  A    between atoms: O_5  and  C_6
REMARK    6  A    between atoms: C_6  and  C_7
REMARK    7  A    between atoms: C_7  and  C_8
REMARK    8  A    between atoms: C_8  and  N_9
REMARK    9  A    between atoms: C_10  and  C_12
REMARK   10  A    between atoms: C_23  and  C_25
REMARK   11  A    between atoms: C_28  and  C_30
REMARK                            x       y       z     vdW  Elec       q    Type
REMARK                         _______ _______ _______ _____ _____    ______ ____
ROOT
ATOM      1  C   UNL     1      -0.896  -0.040   9.681  0.00  0.00    +0.100 C 
ATOM      2  C   UNL     1      -0.875   1.499   9.820  0.00  0.00    +0.121 C 
ATOM      3  N   UNL     1      -0.872   1.742  11.282  0.00  0.00    -0.294 N 
ATOM      4  C   UNL     1       0.024   0.694  11.828  0.00  0.00    +0.115 C 
ATOM      5  C   UNL     1      -0.305  -0.564  11.000  0.00  0.00    -0.004 C 
ATOM      6  C   UNL     1      -1.330  -1.425  11.732  0.00  0.00    -0.010 C 
ATOM      7  C   UNL     1      -0.700  -1.981  13.013  0.00  0.00    -0.082 C 
ATOM      8  N   UNL     1       0.485  -2.778  12.671  0.00  0.00    +0.379 N 
ATOM      9  C   UNL     1       1.503  -1.922  12.050  0.00  0.00    -0.082 C 
ATOM     10  C   UNL     1       0.966  -1.363  10.729  0.00  0.00    -0.010 C 
ATOM     11  C   UNL     1      -1.533   2.700  11.962  0.00  0.00    +0.282 C 
ATOM     12  O   UNL     1      -1.427   2.771  13.172  0.00  0.00    -0.267 OA
ATOM     13  H   UNL     1       0.862  -3.193  13.510  0.00  0.00    -0.086 HD
ATOM     14  H   UNL     1       0.223  -3.509  12.027  0.00  0.00    -0.086 HD
ENDROOT
BRANCH  11  15
ATOM     15  C   UNL     1      -2.379   3.656  11.243  0.00  0.00    +0.190 A 
ATOM     16  C   UNL     1      -3.102   4.683  11.811  0.00  0.00    +0.055 A 
ATOM     17  C   UNL     1      -3.760   5.339  10.766  0.00  0.00    +0.050 A 
ATOM     18  C   UNL     1      -3.419   4.697   9.611  0.00  0.00    +0.136 A 
ATOM     19  O   UNL     1      -2.582   3.689   9.909  0.00  0.00    -0.450 OA
BRANCH  18  20
ATOM     20  C   UNL     1      -3.887   5.055   8.256  0.00  0.00    +0.017 A 
ATOM     21  C   UNL     1      -4.750   6.137   8.076  0.00  0.00    +0.011 A 
ATOM     22  C   UNL     1      -5.183   6.466   6.808  0.00  0.00    +0.001 A 
ATOM     23  C   UNL     1      -4.764   5.726   5.716  0.00  0.00    +0.000 A 
ATOM     24  C   UNL     1      -3.908   4.652   5.888  0.00  0.00    +0.001 A 
ATOM     25  C   UNL     1      -3.463   4.316   7.150  0.00  0.00    +0.011 A 
ENDBRANCH  18  20
ENDBRANCH  11  15
BRANCH   1  27
ATOM     26  N   UNL     1      -0.335  -1.609   7.853  0.00  0.00    -0.315 N 
ATOM     27  C   UNL     1      -0.044  -0.472   8.515  0.00  0.00    +0.218 C 
ATOM     28  O   UNL     1       0.904   0.203   8.174  0.00  0.00    -0.275 OA
ATOM     29  H   UNL     1      -1.094  -2.149   8.126  0.00  0.00    +0.149 HD
BRANCH  26  30
ATOM     30  C   UNL     1       0.493  -2.030   6.720  0.00  0.00    +0.106 C 
BRANCH  30  31
ATOM     31  C   UNL     1      -0.050  -3.343   6.151  0.00  0.00    +0.047 C 
BRANCH  31  32
ATOM     32  C   UNL     1       0.815  -3.782   4.968  0.00  0.00    +0.161 C 
BRANCH  32  33
ATOM     33  O   UNL     1       0.308  -5.008   4.437  0.00  0.00    -0.379 OA
BRANCH  33  34
ATOM     34  C   UNL     1       1.049  -5.508   3.322  0.00  0.00    +0.162 C 
BRANCH  34  36
ATOM     35  C   UNL     1      -0.984  -6.539   2.299  0.00  0.00    +0.009 C 
ATOM     36  C   UNL     1       0.420  -6.816   2.838  0.00  0.00    +0.009 C 
ATOM     37  C   UNL     1       1.284  -7.416   1.726  0.00  0.00    +0.009 C 
ENDBRANCH  34  36
ENDBRANCH  33  34
ENDBRANCH  32  33
ENDBRANCH  31  32
ENDBRANCH  30  31
ENDBRANCH  26  30
ENDBRANCH   1  27
TORSDOF 9
