REMARK  Name = ZINC09088619
REMARK  8 active torsions:
REMARK  status: ('A' for Active; 'I' for Inactive)
REMARK    1  A    between atoms: C_1  and  C_2
REMARK    2  A    between atoms: C_2  and  C_3
REMARK    3  A    between atoms: C_6  and  N_9
REMARK    4  A    between atoms: C_12  and  C_18
REMARK    5  A    between atoms: C_13  and  O_17
REMARK    6  A    between atoms: C_15  and  O_16
REMARK    7  A    between atoms: C_24  and  O_30
REMARK    8  A    between atoms: O_30  and  C_31
REMARK                            x       y       z     vdW  Elec       q    Type
REMARK                         _______ _______ _______ _____ _____    ______ ____
ROOT
ATOM      1  N   UNL     1       2.368   0.080  -0.020  0.00  0.00    -0.231 N 
ATOM      2  C   UNL     1       1.342  -0.473   0.660  0.00  0.00    +0.267 A 
ATOM      3  O   UNL     1       1.491  -1.524   1.264  0.00  0.00    -0.267 OA
ATOM      4  C   UNL     1       0.102   0.178   0.659  0.00  0.00    +0.071 A 
ATOM      5  C   UNL     1      -0.024   1.366  -0.040  0.00  0.00    +0.224 A 
ATOM      6  N   UNL     1       1.029   1.866  -0.695  0.00  0.00    -0.161 NA
ATOM      7  C   UNL     1       2.189   1.250  -0.691  0.00  0.00    +0.306 A 
ENDROOT
BRANCH   4   8
ATOM      8  C   UNL     1      -1.072  -0.404   1.404  0.00  0.00    +0.018 C 
ATOM      9  C   UNL     1      -1.464  -1.723   0.782  0.00  0.00    +0.011 A 
ATOM     10  C   UNL     1      -1.766  -2.821   1.513  0.00  0.00    -0.022 A 
ATOM     11  C   UNL     1      -2.087  -3.880   0.582  0.00  0.00    +0.006 A 
ATOM     12  C   UNL     1      -2.467  -5.215   0.755  0.00  0.00    +0.056 A 
ATOM     13  C   UNL     1      -2.702  -5.952  -0.396  0.00  0.00    +0.121 A 
ATOM     14  C   UNL     1      -2.568  -5.396  -1.662  0.00  0.00    +0.047 A 
ATOM     15  C   UNL     1      -2.193  -4.079  -1.853  0.00  0.00    +0.030 A 
ATOM     16  C   UNL     1      -1.951  -3.315  -0.713  0.00  0.00    +0.047 A 
ATOM     17  N   UNL     1      -1.572  -2.011  -0.551  0.00  0.00    -0.359 N 
ATOM     18  H   UNL     1      -1.405  -1.384  -1.272  0.00  0.00    +0.166 HD
ATOM     19  C   UNL     1      -1.750  -2.847   3.021  0.00  0.00    +0.018 C 
ATOM     20  C   UNL     1      -1.738  -1.395   3.520  0.00  0.00    -0.076 C 
ATOM     21  N   UNL     1      -0.688  -0.632   2.814  0.00  0.00    +0.388 N 
ATOM     22  H   UNL     1      -0.558   0.273   3.280  0.00  0.00    -0.084 HD
ATOM     23  H   UNL     1       0.191  -1.162   2.844  0.00  0.00    -0.084 HD
BRANCH  13  24
ATOM     24  O   UNL     1      -3.074  -7.255  -0.281  0.00  0.00    -0.495 OA
ATOM     25  C   UNL     1      -3.305  -7.973  -1.495  0.00  0.00    +0.277 C 
ENDBRANCH  13  24
ENDBRANCH   4   8
BRANCH   1  29
ATOM     26  C   UNL     1       6.088  -1.799  -0.065  0.00  0.00    -0.047 A 
ATOM     27  C   UNL     1       5.791  -0.879   0.924  0.00  0.00    +0.005 A 
ATOM     28  C   UNL     1       4.560  -0.255   0.942  0.00  0.00    +0.026 A 
ATOM     29  C   UNL     1       3.619  -0.551  -0.035  0.00  0.00    +0.054 A 
ATOM     30  C   UNL     1       3.917  -1.479  -1.024  0.00  0.00    +0.026 A 
ATOM     31  C   UNL     1       5.153  -2.096  -1.040  0.00  0.00    +0.005 A 
BRANCH  26  33
ATOM     32  C   UNL     1       7.362  -3.768   0.740  0.00  0.00    +0.009 C 
ATOM     33  C   UNL     1       7.433  -2.479  -0.081  0.00  0.00    +0.032 C 
ENDBRANCH  26  33
ENDBRANCH   1  29
BRANCH   7  34
ATOM     34  O   UNL     1       3.226   1.790  -1.365  0.00  0.00    -0.479 OA
ATOM     35  H   UNL     1       3.062   2.622  -1.830  0.00  0.00    +0.295 HD
ENDBRANCH   7  34
BRANCH   5  36
ATOM     36  O   UNL     1      -1.211   2.017  -0.064  0.00  0.00    -0.492 OA
ATOM     37  H   UNL     1      -1.200   2.836  -0.577  0.00  0.00    +0.294 HD
ENDBRANCH   5  36
TORSDOF 6
