REMARK  Name = ZINC13696529
REMARK  11 active torsions:
REMARK  status: ('A' for Active; 'I' for Inactive)
REMARK    1  A    between atoms: C_1  and  C_2
REMARK    2  A    between atoms: C_2  and  C_3
REMARK    3  A    between atoms: C_3  and  C_4
REMARK    4  A    between atoms: N_6  and  C_7
REMARK    5  A    between atoms: C_10  and  S_13
REMARK    6  A    between atoms: S_13  and  N_16
REMARK    7  A    between atoms: N_16  and  C_17
REMARK    8  A    between atoms: C_26  and  C_28
REMARK    9  A    between atoms: C_28  and  C_29
REMARK   10  A    between atoms: C_28  and  C_30
REMARK   11  A    between atoms: C_28  and  C_31
REMARK                            x       y       z     vdW  Elec       q    Type
REMARK                         _______ _______ _______ _____ _____    ______ ____
ROOT
ATOM      1  N   UNL     1      -5.854   2.466   2.158  0.00  0.00    -0.216 N 
ATOM      2  H   UNL     1      -6.600   2.257   2.743  0.00  0.00    +0.174 HD
ENDROOT
BRANCH   1   3
ATOM      3  C   UNL     1      -4.902   3.410   2.550  0.00  0.00    +0.050 A 
ATOM      4  C   UNL     1      -4.468   4.375   1.649  0.00  0.00    +0.025 A 
ATOM      5  C   UNL     1      -3.527   5.305   2.042  0.00  0.00    +0.007 A 
ATOM      6  C   UNL     1      -3.016   5.279   3.326  0.00  0.00    -0.024 A 
ATOM      7  C   UNL     1      -3.440   4.322   4.235  0.00  0.00    +0.041 A 
ATOM      8  C   UNL     1      -4.395   3.386   3.839  0.00  0.00    +0.048 A 
ATOM      9  N   UNL     1      -2.804   4.469   5.472  0.00  0.00    -0.270 N 
ATOM     10  C   UNL     1      -1.874   5.601   5.428  0.00  0.00    +0.118 C 
ATOM     11  C   UNL     1      -1.993   6.165   4.003  0.00  0.00    +0.056 C 
ATOM     12  C   UNL     1      -3.015   3.684   6.547  0.00  0.00    +0.225 C 
ATOM     13  O   UNL     1      -3.736   2.713   6.457  0.00  0.00    -0.275 OA
BRANCH  12  14
ATOM     14  C   UNL     1      -2.355   4.014   7.862  0.00  0.00    +0.039 C 
ATOM     15  C   UNL     1      -2.686   2.926   8.885  0.00  0.00    +0.020 C 
ATOM     16  C   UNL     1      -0.840   4.087   7.668  0.00  0.00    +0.020 C 
ATOM     17  C   UNL     1      -2.871   5.363   8.367  0.00  0.00    +0.020 C 
ENDBRANCH  12  14
ENDBRANCH   1   3
BRANCH   1  18
ATOM     18  S   UNL     1      -5.711   1.705   0.695  0.00  0.00    +0.072 S 
ATOM     19  O   UNL     1      -5.480   2.721  -0.271  0.00  0.00    -0.150 OA
ATOM     20  O   UNL     1      -6.801   0.798   0.600  0.00  0.00    -0.150 OA
BRANCH  18  24
ATOM     21  C   UNL     1      -1.947  -0.809   0.855  0.00  0.00    +0.033 A 
ATOM     22  C   UNL     1      -1.887   0.507   0.416  0.00  0.00    +0.025 A 
ATOM     23  C   UNL     1      -3.037   1.270   0.363  0.00  0.00    +0.030 A 
ATOM     24  C   UNL     1      -4.247   0.727   0.757  0.00  0.00    +0.109 A 
ATOM     25  C   UNL     1      -4.309  -0.581   1.201  0.00  0.00    +0.030 A 
ATOM     26  C   UNL     1      -3.163  -1.351   1.251  0.00  0.00    +0.025 A 
BRANCH  21  29
ATOM     27  C   UNL     1       0.197  -1.389   0.001  0.00  0.00    +0.217 C 
ATOM     28  O   UNL     1       0.033  -0.605  -0.910  0.00  0.00    -0.275 OA
ATOM     29  N   UNL     1      -0.784  -1.585   0.905  0.00  0.00    -0.285 N 
ATOM     30  H   UNL     1      -0.685  -2.268   1.587  0.00  0.00    +0.155 HD
BRANCH  27  31
ATOM     31  C   UNL     1       1.496  -2.142   0.123  0.00  0.00    +0.096 C 
BRANCH  31  33
ATOM     32  C   UNL     1       3.748  -2.503  -0.896  0.00  0.00    +0.004 C 
ATOM     33  C   UNL     1       2.429  -1.738  -1.020  0.00  0.00    +0.006 C 
ENDBRANCH  31  33
ENDBRANCH  27  31
ENDBRANCH  21  29
ENDBRANCH  18  24
ENDBRANCH   1  18
TORSDOF 7
