REMARK  Name = ZINC19798495
REMARK  4 active torsions:
REMARK  status: ('A' for Active; 'I' for Inactive)
REMARK    1  A    between atoms: C_5  and  C_7
REMARK    2  A    between atoms: C_7  and  N_8
REMARK    3  A    between atoms: C_10  and  C_17
REMARK    4  A    between atoms: C_27  and  C_29
REMARK                            x       y       z     vdW  Elec       q    Type
REMARK                         _______ _______ _______ _____ _____    ______ ____
ROOT
ATOM      1  C   UNL     1       3.280  -3.868   4.159  0.00  0.00    +0.026 C 
ATOM      2  C   UNL     1       4.391  -4.570   3.729  0.00  0.00    +0.079 C 
ATOM      3  C   UNL     1       5.375  -5.142   4.688  0.00  0.00    +0.132 C 
ATOM      4  N   UNL     1       5.046  -5.596   5.869  0.00  0.00    -0.385 N 
ATOM      5  N   UNL     1       6.698  -5.147   4.197  0.00  0.00    -0.153 N 
ATOM      6  C   UNL     1       6.870  -5.121   2.829  0.00  0.00    +0.181 C 
ATOM      7  N   UNL     1       5.944  -4.996   1.912  0.00  0.00    -0.152 NA
ATOM      8  C   UNL     1       4.662  -4.797   2.291  0.00  0.00    +0.273 C 
ATOM      9  O   UNL     1       3.756  -4.799   1.473  0.00  0.00    -0.268 OA
ATOM     10  S   UNL     1       8.629  -5.277   2.668  0.00  0.00    -0.033 S 
ATOM     11  C   UNL     1       9.027  -5.265   4.410  0.00  0.00    +0.131 C 
ATOM     12  N   UNL     1       7.842  -5.186   4.966  0.00  0.00    -0.164 NA
ATOM     13  H   UNL     1       4.120  -5.570   6.158  0.00  0.00    +0.157 HD
ATOM     14  H   UNL     1       5.727  -5.960   6.456  0.00  0.00    +0.157 HD
ENDROOT
BRANCH   1  17
ATOM     15  N   UNL     1       1.802  -2.048   1.428  0.00  0.00    -0.342 N 
ATOM     16  C   UNL     1       2.871  -2.573   2.059  0.00  0.00    +0.095 A 
ATOM     17  C   UNL     1       2.461  -3.198   3.221  0.00  0.00    +0.001 A 
ATOM     18  C   UNL     1       0.996  -3.025   3.286  0.00  0.00    +0.007 A 
ATOM     19  C   UNL     1       0.645  -2.294   2.140  0.00  0.00    +0.050 A 
ATOM     20  C   UNL     1      -0.690  -1.967   1.924  0.00  0.00    +0.026 A 
ATOM     21  C   UNL     1      -1.650  -2.358   2.832  0.00  0.00    +0.002 A 
ATOM     22  C   UNL     1      -1.300  -3.077   3.965  0.00  0.00    +0.001 A 
ATOM     23  C   UNL     1       0.017  -3.417   4.193  0.00  0.00    +0.010 A 
BRANCH  15  24
ATOM     24  C   UNL     1       1.860  -1.311   0.163  0.00  0.00    +0.159 C 
BRANCH  24  29
ATOM     25  C   UNL     1       0.859   2.287   0.715  0.00  0.00    +0.000 A 
ATOM     26  C   UNL     1       2.083   2.880   0.963  0.00  0.00    +0.003 A 
ATOM     27  C   UNL     1       3.236   2.118   0.953  0.00  0.00    +0.039 A 
ATOM     28  C   UNL     1       3.165   0.760   0.694  0.00  0.00    +0.128 A 
ATOM     29  C   UNL     1       1.939   0.167   0.446  0.00  0.00    +0.007 A 
ATOM     30  C   UNL     1       0.787   0.931   0.456  0.00  0.00    +0.008 A 
ATOM     31  F   UNL     1       4.291   0.014   0.684  0.00  0.00    -0.205 F 
ENDBRANCH  24  29
ENDBRANCH  15  24
ENDBRANCH   1  17
BRANCH  11  32
ATOM     32  C   UNL     1      10.355  -5.327   5.060  0.00  0.00    +0.027 A 
ATOM     33  C   UNL     1      11.512  -5.402   4.284  0.00  0.00    +0.012 A 
ATOM     34  C   UNL     1      12.747  -5.459   4.895  0.00  0.00    +0.001 A 
ATOM     35  C   UNL     1      12.841  -5.443   6.276  0.00  0.00    +0.001 A 
ATOM     36  C   UNL     1      11.698  -5.369   7.052  0.00  0.00    +0.020 A 
ATOM     37  C   UNL     1      10.456  -5.305   6.452  0.00  0.00    +0.051 A 
ATOM     38 CL   UNL     1       9.023  -5.205   7.427  0.00  0.00    -0.083 Cl
ENDBRANCH  11  32
TORSDOF 4
