REMARK  Name = ZINC42399468
REMARK  7 active torsions:
REMARK  status: ('A' for Active; 'I' for Inactive)
REMARK    1  A    between atoms: C_1  and  N_2
REMARK    2  A    between atoms: N_2  and  C_3
REMARK    3  A    between atoms: N_2  and  C_15
REMARK    4  A    between atoms: C_3  and  C_4
REMARK    5  A    between atoms: C_7  and  C_11
REMARK    6  A    between atoms: N_12  and  O_13
REMARK    7  A    between atoms: C_15  and  C_16
REMARK                            x       y       z     vdW  Elec       q    Type
REMARK                         _______ _______ _______ _____ _____    ______ ____
ROOT
ATOM      1  C   UNL     1      -0.059  -0.109   2.429  0.00  0.00    -0.029 A 
ATOM      2  C   UNL     1       0.326   0.994   3.169  0.00  0.00    +0.005 A 
ATOM      3  C   UNL     1      -0.376   1.348   4.303  0.00  0.00    +0.012 A 
ATOM      4  C   UNL     1      -1.478   0.592   4.703  0.00  0.00    +0.020 A 
ATOM      5  C   UNL     1      -1.864  -0.519   3.954  0.00  0.00    +0.050 A 
ATOM      6  C   UNL     1      -1.156  -0.861   2.817  0.00  0.00    +0.125 A 
ATOM      7  F   UNL     1      -1.531  -1.934   2.087  0.00  0.00    -0.205 F 
ENDROOT
BRANCH   4   8
ATOM      8  C   UNL     1      -2.234   0.968   5.919  0.00  0.00    +0.162 C 
ATOM      9  N   UNL     1      -1.872   2.005   6.616  0.00  0.00    -0.072 NA
ATOM     10  N   UNL     1      -3.328   0.216   6.314  0.00  0.00    -0.340 N 
ATOM     11  H   UNL     1      -3.598  -0.557   5.794  0.00  0.00    +0.144 HD
ATOM     12  H   UNL     1      -3.823   0.462   7.111  0.00  0.00    +0.144 HD
BRANCH   9  13
ATOM     13  O   UNL     1      -2.595   2.364   7.779  0.00  0.00    -0.408 OA
ATOM     14  H   UNL     1      -2.251   3.147   8.230  0.00  0.00    +0.328 HD
ENDBRANCH   9  13
ENDBRANCH   4   8
BRANCH   1  15
ATOM     15  C   UNL     1       0.713  -0.491   1.192  0.00  0.00    -0.040 C 
BRANCH  15  17
ATOM     16  C   UNL     1      -0.018   1.465   0.010  0.00  0.00    -0.095 C 
ATOM     17  N   UNL     1       0.002  -0.004   0.002  0.00  0.00    +0.384 N 
ATOM     18  H   UNL     1      -0.945  -0.353   0.009  0.00  0.00    -0.081 HD
BRANCH  17  19
ATOM     19  C   UNL     1       0.690  -0.478  -1.207  0.00  0.00    -0.036 C 
BRANCH  19  20
ATOM     20  C   UNL     1      -0.106  -0.083  -2.424  0.00  0.00    -0.026 A 
ATOM     21  C   UNL     1      -0.021   1.045  -3.170  0.00  0.00    +0.024 A 
ATOM     22  C   UNL     1      -0.862   1.195  -4.258  0.00  0.00    +0.025 A 
ATOM     23  C   UNL     1      -1.746   0.208  -4.545  0.00  0.00    +0.060 A 
ATOM     24  S   UNL     1      -1.399  -0.984  -3.263  0.00  0.00    -0.102 S 
ATOM     25 BR   UNL     1      -0.780   2.752  -5.327  0.00  0.00    -0.050 Br
ENDBRANCH  19  20
ENDBRANCH  17  19
ENDBRANCH  15  17
ENDBRANCH   1  15
TORSDOF 6
