REMARK  Name = ZINC19884580
REMARK  20 active torsions:
REMARK  status: ('A' for Active; 'I' for Inactive)
REMARK    1  A    between atoms: C_1  and  C_2
REMARK    2  A    between atoms: C_2  and  C_32
REMARK    3  A    between atoms: C_4  and  N_10
REMARK    4  A    between atoms: C_6  and  C_8
REMARK    5  A    between atoms: C_6  and  C_9
REMARK    6  A    between atoms: N_10  and  C_11
REMARK    7  A    between atoms: C_11  and  C_12
REMARK    8  A    between atoms: C_12  and  C_14
REMARK    9  A    between atoms: C_12  and  O_31
REMARK   10  A    between atoms: C_14  and  O_15
REMARK   11  A    between atoms: O_15  and  C_16
REMARK   12  A    between atoms: C_18  and  C_27
REMARK   13  A    between atoms: C_19  and  O_26
REMARK   14  A    between atoms: C_20  and  C_22
REMARK   15  A    between atoms: C_22  and  C_23
REMARK   16  A    between atoms: C_22  and  C_24
REMARK   17  A    between atoms: C_22  and  C_25
REMARK   18  A    between atoms: C_27  and  C_28
REMARK   19  A    between atoms: C_27  and  C_29
REMARK   20  A    between atoms: C_27  and  C_30
REMARK                            x       y       z     vdW  Elec       q    Type
REMARK                         _______ _______ _______ _____ _____    ______ ____
ROOT
ATOM      1  C   UNL     1      -0.158   0.557  -4.817  0.00  0.00    +0.166 C 
ENDROOT
BRANCH   1   2
ATOM      2  O   UNL     1       0.904   1.468  -5.105  0.00  0.00    -0.387 OA
ATOM      3  H   UNL     1       1.574   1.280  -5.957  0.00  0.00    +0.210 HD
ENDBRANCH   1   2
BRANCH   1   4
ATOM      4  C   UNL     1      -0.933   1.047  -3.592  0.00  0.00    +0.115 C 
BRANCH   4   5
ATOM      5  N   UNL     1      -0.027   1.123  -2.438  0.00  0.00    -0.311 NA
ATOM      6  H   UNL     1       0.789   1.821  -2.676  0.00  0.00    +0.122 HD
BRANCH   5  10
ATOM      7  C   UNL     1      -2.000   0.769   1.489  0.00  0.00    -0.010 C 
ATOM      8  C   UNL     1      -0.717   1.580   1.270  0.00  0.00    -0.072 C 
ATOM      9  C   UNL     1      -0.013   1.088   0.008  0.00  0.00    +0.006 C 
ATOM     10  C   UNL     1      -0.740   1.592  -1.238  0.00  0.00    +0.051 C 
ATOM     11  C   UNL     1      -0.738   3.120  -1.217  0.00  0.00    +0.006 C 
ATOM     12  C   UNL     1      -1.454   3.635   0.029  0.00  0.00    -0.072 C 
ATOM     13  N   UNL     1      -0.994   3.001   1.247  0.00  0.00    +0.386 N 
ATOM     14  C   UNL     1      -1.169   5.150   0.137  0.00  0.00    -0.010 C 
ATOM     15  C   UNL     1      -2.968   3.470  -0.144  0.00  0.00    -0.010 C 
ATOM     16  C   UNL     1       0.216   1.290   2.467  0.00  0.00    -0.010 C 
ATOM     17  H   UNL     1      -1.782   3.233   1.978  0.00  0.00    -0.084 HD
ATOM     18  H   UNL     1      -0.080   3.556   1.504  0.00  0.00    -0.084 HD
ENDBRANCH   5  10
ENDBRANCH   4   5
ENDBRANCH   1   4
BRANCH   1  19
ATOM     19  C   UNL     1      -1.102   0.478  -6.019  0.00  0.00    +0.261 C 
BRANCH  19  20
ATOM     20  O   UNL     1      -0.408  -0.089  -7.133  0.00  0.00    -0.489 OA
BRANCH  20  21
ATOM     21  C   UNL     1      -1.109  -0.231  -8.289  0.00  0.00    +0.121 A 
ATOM     22  C   UNL     1      -2.437   0.163  -8.348  0.00  0.00    +0.053 A 
ATOM     23  C   UNL     1      -3.148   0.024  -9.524  0.00  0.00    +0.003 A 
ATOM     24  C   UNL     1      -2.535  -0.519 -10.644  0.00  0.00    +0.124 A 
ATOM     25  C   UNL     1      -1.208  -0.918 -10.584  0.00  0.00    +0.003 A 
ATOM     26  C   UNL     1      -0.497  -0.774  -9.409  0.00  0.00    +0.053 A 
BRANCH  25  27
ATOM     27  C   UNL     1      -0.543  -1.508 -11.801  0.00  0.00    -0.009 C 
ATOM     28  C   UNL     1       0.908  -1.861 -11.468  0.00  0.00    +0.015 C 
ATOM     29  C   UNL     1      -1.290  -2.773 -12.227  0.00  0.00    +0.015 C 
ATOM     30  C   UNL     1      -0.571  -0.489 -12.942  0.00  0.00    +0.015 C 
ENDBRANCH  25  27
BRANCH  23  31
ATOM     31  C   UNL     1      -4.590   0.457  -9.590  0.00  0.00    -0.009 C 
ATOM     32  C   UNL     1      -5.016   1.016  -8.231  0.00  0.00    +0.015 C 
ATOM     33  C   UNL     1      -4.750   1.539 -10.660  0.00  0.00    +0.015 C 
ATOM     34  C   UNL     1      -5.468  -0.745  -9.945  0.00  0.00    +0.015 C 
ENDBRANCH  23  31
BRANCH  24  35
ATOM     35  O   UNL     1      -3.236  -0.661 -11.801  0.00  0.00    -0.506 OA
ATOM     36  H   UNL     1      -2.751  -1.091 -12.689  0.00  0.00    +0.292 HD
ENDBRANCH  24  35
ENDBRANCH  20  21
ENDBRANCH  19  20
ENDBRANCH   1  19
TORSDOF 10
