REMARK  Name = ZINC26566939
REMARK  14 active torsions:
REMARK  status: ('A' for Active; 'I' for Inactive)
REMARK    1  A    between atoms: C_1  and  C_2
REMARK    2  A    between atoms: C_4  and  N_29
REMARK    3  A    between atoms: C_7  and  N_8
REMARK    4  A    between atoms: C_9  and  C_11
REMARK    5  A    between atoms: C_11  and  C_13
REMARK    6  A    between atoms: C_11  and  N_16
REMARK    7  A    between atoms: C_13  and  C_14
REMARK    8  A    between atoms: C_13  and  C_15
REMARK    9  A    between atoms: C_17  and  C_19
REMARK   10  A    between atoms: C_21  and  O_27
REMARK   11  A    between atoms: C_23  and  O_25
REMARK   12  A    between atoms: O_25  and  C_26
REMARK   13  A    between atoms: O_27  and  C_28
REMARK   14  A    between atoms: N_32  and  C_35
REMARK                            x       y       z     vdW  Elec       q    Type
REMARK                         _______ _______ _______ _____ _____    ______ ____
ROOT
ATOM      1  N   UNL     1      -0.763   3.272   3.743  0.00  0.00    -0.284 N 
ATOM      2  C   UNL     1      -1.343   3.599   2.571  0.00  0.00    +0.238 C 
ATOM      3  O   UNL     1      -2.348   4.277   2.559  0.00  0.00    -0.273 OA
ATOM      4  H   UNL     1       0.094   2.583   3.760  0.00  0.00    +0.155 HD
ENDROOT
BRANCH   1  11
ATOM      5  C   UNL     1      -0.313   1.824   6.149  0.00  0.00    +0.046 C 
ATOM      6  C   UNL     1      -1.056   3.135   6.138  0.00  0.00    -0.028 A 
ATOM      7  C   UNL     1      -1.534   3.667   7.319  0.00  0.00    +0.028 A 
ATOM      8  C   UNL     1      -2.224   4.872   7.307  0.00  0.00    +0.030 A 
ATOM      9  C   UNL     1      -2.427   5.545   6.109  0.00  0.00    +0.025 A 
ATOM     10  C   UNL     1      -1.943   5.016   4.930  0.00  0.00    +0.025 A 
ATOM     11  C   UNL     1      -1.254   3.810   4.941  0.00  0.00    +0.036 A 
BRANCH   8  12
ATOM     12  N   UNL     1      -2.715   5.409   8.503  0.00  0.00    -0.333 N 
ATOM     13  C   UNL     1      -3.596   4.452   9.186  0.00  0.00    +0.086 C 
ATOM     14  C   UNL     1      -4.047   5.044  10.524  0.00  0.00    -0.060 C 
ATOM     15  N   UNL     1      -4.741   6.317  10.284  0.00  0.00    +0.380 N 
ATOM     16  C   UNL     1      -3.860   7.273   9.600  0.00  0.00    -0.060 C 
ATOM     17  C   UNL     1      -3.409   6.682   8.263  0.00  0.00    +0.086 C 
ATOM     18  C   UNL     1      -5.256   6.880  11.539  0.00  0.00    -0.096 C 
ATOM     19  H   UNL     1      -5.601   6.117   9.627  0.00  0.00    -0.082 HD
ENDBRANCH   8  12
ENDBRANCH   1  11
BRANCH   2  20
ATOM     20  C   UNL     1      -0.741   3.121   1.274  0.00  0.00    +0.162 C 
BRANCH  20  21
ATOM     21  N   UNL     1      -1.549   3.606   0.153  0.00  0.00    -0.300 N 
ATOM     22  C   UNL     1      -0.991   3.757  -1.064  0.00  0.00    +0.245 C 
ATOM     23  O   UNL     1       0.183   3.493  -1.232  0.00  0.00    -0.270 OA
ATOM     24  H   UNL     1      -2.612   3.845   0.305  0.00  0.00    +0.150 HD
BRANCH  22  25
ATOM     25  C   UNL     1      -1.807   4.247  -2.196  0.00  0.00    +0.044 A 
ATOM     26  C   UNL     1      -3.157   4.546  -2.007  0.00  0.00    +0.059 A 
ATOM     27  C   UNL     1      -3.916   5.010  -3.069  0.00  0.00    +0.124 A 
ATOM     28  C   UNL     1      -3.340   5.165  -4.321  0.00  0.00    +0.091 A 
ATOM     29  C   UNL     1      -2.000   4.863  -4.514  0.00  0.00    +0.124 A 
ATOM     30  C   UNL     1      -1.231   4.405  -3.457  0.00  0.00    +0.059 A 
BRANCH  29  31
ATOM     31  O   UNL     1      -1.439   5.018  -5.743  0.00  0.00    -0.495 OA
ATOM     32  C   UNL     1      -2.289   5.494  -6.788  0.00  0.00    +0.277 C 
ENDBRANCH  29  31
BRANCH  27  33
ATOM     33  O   UNL     1      -5.229   5.307  -2.885  0.00  0.00    -0.495 OA
ATOM     34  C   UNL     1      -5.955   5.774  -4.024  0.00  0.00    +0.277 C 
ENDBRANCH  27  33
ENDBRANCH  22  25
ENDBRANCH  20  21
BRANCH  20  35
ATOM     35  C   UNL     1      -0.712   1.591   1.259  0.00  0.00    +0.012 C 
ATOM     36  C   UNL     1       0.011   1.108   0.000  0.00  0.00    +0.009 C 
ATOM     37  C   UNL     1      -2.144   1.054   1.262  0.00  0.00    +0.009 C 
ENDBRANCH  20  35
ENDBRANCH   2  20
TORSDOF 8
