REMARK  Name = ZINC16444208
REMARK  7 active torsions:
REMARK  status: ('A' for Active; 'I' for Inactive)
REMARK    1  A    between atoms: C_1  and  C_2
REMARK    2  A    between atoms: C_2  and  C_4
REMARK    3  A    between atoms: C_2  and  N_15
REMARK    4  A    between atoms: N_6  and  C_7
REMARK    5  A    between atoms: N_18  and  C_21
REMARK    6  A    between atoms: C_26  and  O_27
REMARK    7  A    between atoms: O_27  and  C_28
REMARK                            x       y       z     vdW  Elec       q    Type
REMARK                         _______ _______ _______ _____ _____    ______ ____
ROOT
ATOM      1  C   UNL     1      -0.021   1.540  -0.008  0.00  0.00    +0.034 C 
ATOM      2  C   UNL     1      -0.004   0.010  -0.007  0.00  0.00    +0.140 C 
ENDROOT
BRANCH   2   3
ATOM      3  N   UNL     1      -1.383  -0.495   0.001  0.00  0.00    -0.289 NA
ATOM      4  C   UNL     1      -2.124  -0.020  -1.175  0.00  0.00    +0.104 C 
ATOM      5  C   UNL     1      -3.492  -0.709  -1.226  0.00  0.00    +0.120 C 
ATOM      6  N   UNL     1      -4.169  -0.500   0.063  0.00  0.00    -0.325 N 
ATOM      7  C   UNL     1      -3.435  -0.825   1.295  0.00  0.00    +0.120 C 
ATOM      8  C   UNL     1      -2.070  -0.131   1.247  0.00  0.00    +0.104 C 
BRANCH   6   9
ATOM      9  C   UNL     1      -5.477  -0.004   0.115  0.00  0.00    +0.072 A 
ATOM     10  C   UNL     1      -6.553  -0.879   0.105  0.00  0.00    +0.027 A 
ATOM     11  C   UNL     1      -7.844  -0.388   0.157  0.00  0.00    +0.002 A 
ATOM     12  C   UNL     1      -8.066   0.976   0.219  0.00  0.00    +0.004 A 
ATOM     13  C   UNL     1      -6.998   1.854   0.230  0.00  0.00    +0.047 A 
ATOM     14  C   UNL     1      -5.701   1.369   0.183  0.00  0.00    +0.141 A 
BRANCH  14  15
ATOM     15  O   UNL     1      -4.650   2.232   0.199  0.00  0.00    -0.493 OA
ATOM     16  C   UNL     1      -4.955   3.626   0.270  0.00  0.00    +0.277 C 
ENDBRANCH  14  15
ENDBRANCH   6   9
ENDBRANCH   2   3
BRANCH   2  17
ATOM     17  C   UNL     1       0.706  -0.485  -1.241  0.00  0.00    +0.234 C 
ATOM     18  O   UNL     1       0.120  -1.190  -2.036  0.00  0.00    -0.274 OA
ATOM     19  N   UNL     1       1.991  -0.146  -1.462  0.00  0.00    -0.283 N 
ATOM     20  H   UNL     1       2.440   0.470  -0.861  0.00  0.00    +0.155 HD
BRANCH  19  21
ATOM     21  C   UNL     1       2.679  -0.681  -2.557  0.00  0.00    +0.048 A 
ATOM     22  C   UNL     1       2.007  -0.926  -3.748  0.00  0.00    +0.025 A 
ATOM     23  C   UNL     1       2.688  -1.454  -4.827  0.00  0.00    +0.017 A 
ATOM     24  C   UNL     1       4.038  -1.739  -4.724  0.00  0.00    +0.019 A 
ATOM     25  C   UNL     1       4.710  -1.497  -3.539  0.00  0.00    +0.032 A 
ATOM     26  C   UNL     1       4.035  -0.963  -2.458  0.00  0.00    +0.040 A 
ATOM     27 BR   UNL     1       4.956  -0.623  -0.841  0.00  0.00    -0.048 Br
ATOM     28 BR   UNL     1       4.965  -2.462  -6.205  0.00  0.00    -0.050 Br
ENDBRANCH  19  21
ENDBRANCH   2  17
TORSDOF 5
