REMARK  Name = ZINC47147810
REMARK  6 active torsions:
REMARK  status: ('A' for Active; 'I' for Inactive)
REMARK    1  A    between atoms: C_1  and  C_2
REMARK    2  A    between atoms: C_4  and  C_35
REMARK    3  A    between atoms: C_6  and  N_8
REMARK    4  A    between atoms: C_9  and  C_17
REMARK    5  A    between atoms: C_17  and  N_18
REMARK    6  A    between atoms: N_26  and  C_27
REMARK                            x       y       z     vdW  Elec       q    Type
REMARK                         _______ _______ _______ _____ _____    ______ ____
ROOT
ATOM      1  C   UNL     1      -1.186  -1.762   3.277  0.00  0.00    +0.157 C 
ENDROOT
BRANCH   1   3
ATOM      2  N   UNL     1       0.232  -2.731   5.158  0.00  0.00    -0.281 N 
ATOM      3  C   UNL     1       0.114  -2.174   3.919  0.00  0.00    +0.108 A 
ATOM      4  N   UNL     1       1.288  -2.051   3.372  0.00  0.00    -0.341 N 
ATOM      5  C   UNL     1       2.236  -2.520   4.221  0.00  0.00    +0.084 A 
ATOM      6  C   UNL     1       1.574  -2.958   5.382  0.00  0.00    +0.163 A 
ATOM      7  N   UNL     1       2.261  -3.465   6.393  0.00  0.00    -0.236 NA
ATOM      8  C   UNL     1       3.573  -3.573   6.350  0.00  0.00    +0.113 A 
ATOM      9  C   UNL     1       4.295  -3.159   5.242  0.00  0.00    +0.022 A 
ATOM     10  C   UNL     1       3.628  -2.630   4.153  0.00  0.00    +0.031 A 
ATOM     11  H   UNL     1       1.458  -1.681   2.491  0.00  0.00    +0.167 HD
BRANCH   2  17
ATOM     12  C   UNL     1      -3.739  -5.399   6.302  0.00  0.00    +0.044 C 
ATOM     13  C   UNL     1      -2.756  -4.302   6.622  0.00  0.00    -0.048 A 
ATOM     14  C   UNL     1      -2.888  -3.575   7.790  0.00  0.00    +0.006 A 
ATOM     15  C   UNL     1      -1.988  -2.568   8.087  0.00  0.00    -0.048 A 
ATOM     16  C   UNL     1      -0.953  -2.287   7.217  0.00  0.00    +0.029 A 
ATOM     17  C   UNL     1      -0.817  -3.015   6.043  0.00  0.00    +0.050 A 
ATOM     18  C   UNL     1      -1.720  -4.029   5.750  0.00  0.00    +0.029 A 
ATOM     19  C   UNL     1      -2.136  -1.778   9.362  0.00  0.00    +0.044 C 
ENDBRANCH   2  17
ENDBRANCH   1   3
BRANCH   1  20
ATOM     20  N   UNL     1      -1.571  -0.430   3.763  0.00  0.00    -0.292 NA
ATOM     21  C   UNL     1      -0.693   0.608   3.207  0.00  0.00    +0.104 C 
ATOM     22  C   UNL     1      -1.009   1.951   3.873  0.00  0.00    +0.124 C 
ATOM     23  N   UNL     1      -2.450   2.214   3.733  0.00  0.00    -0.283 N 
ATOM     24  C   UNL     1      -3.392   1.162   4.143  0.00  0.00    +0.124 C 
ATOM     25  C   UNL     1      -2.982  -0.150   3.466  0.00  0.00    +0.104 C 
ATOM     26  C   UNL     1      -2.893   3.388   3.243  0.00  0.00    +0.307 C 
ATOM     27  O   UNL     1      -2.106   4.280   2.995  0.00  0.00    -0.252 OA
ATOM     28  N   UNL     1      -4.211   3.574   3.028  0.00  0.00    -0.269 N 
ATOM     29  H   UNL     1      -4.847   2.892   3.296  0.00  0.00    +0.156 HD
BRANCH  28  30
ATOM     30  C   UNL     1      -4.662   4.752   2.420  0.00  0.00    +0.036 A 
ATOM     31  C   UNL     1      -3.887   5.374   1.450  0.00  0.00    +0.026 A 
ATOM     32  C   UNL     1      -4.333   6.536   0.850  0.00  0.00    +0.041 A 
ATOM     33  C   UNL     1      -5.553   7.080   1.215  0.00  0.00    +0.142 A 
ATOM     34  C   UNL     1      -6.328   6.461   2.183  0.00  0.00    +0.078 A 
ATOM     35  C   UNL     1      -5.887   5.295   2.780  0.00  0.00    +0.046 A 
ATOM     36 CL   UNL     1      -7.856   7.147   2.639  0.00  0.00    -0.081 Cl
ATOM     37  F   UNL     1      -5.987   8.216   0.627  0.00  0.00    -0.204 F 
ENDBRANCH  28  30
ENDBRANCH   1  20
TORSDOF 4
