REMARK  Name = ZINC64968115
REMARK  9 active torsions:
REMARK  status: ('A' for Active; 'I' for Inactive)
REMARK    1  A    between atoms: C_1  and  O_2
REMARK    2  A    between atoms: O_2  and  C_3
REMARK    3  A    between atoms: C_9  and  C_12
REMARK    4  A    between atoms: C_12  and  C_13
REMARK    5  A    between atoms: C_13  and  N_14
REMARK    6  A    between atoms: C_15  and  C_17
REMARK    7  A    between atoms: C_24  and  C_27
REMARK    8  A    between atoms: C_27  and  C_28
REMARK    9  A    between atoms: C_28  and  C_29
REMARK                            x       y       z     vdW  Elec       q    Type
REMARK                         _______ _______ _______ _____ _____    ______ ____
ROOT
ATOM      1  N   UNL     1      -0.759  -6.798   1.434  0.00  0.00    -0.311 N 
ATOM      2  C   UNL     1      -0.408  -7.389   2.593  0.00  0.00    +0.244 C 
ATOM      3  O   UNL     1      -0.852  -6.974   3.646  0.00  0.00    -0.270 OA
ATOM      4  H   UNL     1      -0.405  -7.128   0.594  0.00  0.00    +0.149 HD
ENDROOT
BRANCH   2   5
ATOM      5  C   UNL     1       0.515  -8.540   2.584  0.00  0.00    +0.040 A 
ATOM      6  C   UNL     1       1.030  -9.014   1.375  0.00  0.00    +0.015 A 
ATOM      7  C   UNL     1       1.892 -10.087   1.371  0.00  0.00    +0.027 A 
ATOM      8  C   UNL     1       2.252 -10.703   2.567  0.00  0.00    +0.072 A 
ATOM      9  C   UNL     1       1.742 -10.236   3.777  0.00  0.00    +0.145 A 
ATOM     10  C   UNL     1       0.879  -9.153   3.785  0.00  0.00    +0.060 A 
ATOM     11  O   UNL     1       2.225 -10.982   4.807  0.00  0.00    -0.469 OA
ATOM     12  C   UNL     1       3.091 -11.987   4.272  0.00  0.00    +0.261 C 
ATOM     13  N   UNL     1       3.094 -11.787   2.817  0.00  0.00    -0.307 N 
ATOM     14  H   UNL     1       3.584 -12.307   2.160  0.00  0.00    +0.150 HD
BRANCH  12  15
ATOM     15  C   UNL     1       2.557 -13.379   4.614  0.00  0.00    +0.070 C 
BRANCH  15  16
ATOM     16  C   UNL     1       2.633 -13.598   6.126  0.00  0.00    +0.040 C 
BRANCH  16  17
ATOM     17  C   UNL     1       2.107 -14.969   6.462  0.00  0.00    -0.047 A 
ATOM     18  C   UNL     1       0.762 -15.147   6.732  0.00  0.00    +0.003 A 
ATOM     19  C   UNL     1       0.279 -16.405   7.041  0.00  0.00    +0.000 A 
ATOM     20  C   UNL     1       1.140 -17.485   7.079  0.00  0.00    +0.000 A 
ATOM     21  C   UNL     1       2.484 -17.308   6.808  0.00  0.00    +0.000 A 
ATOM     22  C   UNL     1       2.967 -16.051   6.495  0.00  0.00    +0.003 A 
ENDBRANCH  16  17
ENDBRANCH  15  16
ENDBRANCH  12  15
ENDBRANCH   2   5
BRANCH   1  23
ATOM     23  C   UNL     1      -1.676  -5.655   1.443  0.00  0.00    +0.109 C 
BRANCH  23  24
ATOM     24  C   UNL     1      -1.908  -5.176   0.009  0.00  0.00    +0.052 C 
BRANCH  24  31
ATOM     25  C   UNL     1      -1.200  -0.637   0.010  0.00  0.00    +0.121 A 
ATOM     26  C   UNL     1      -2.375   0.135   0.020  0.00  0.00    +0.047 A 
ATOM     27  C   UNL     1      -3.607  -0.415   0.028  0.00  0.00    +0.029 A 
ATOM     28  C   UNL     1      -3.753  -1.875   0.027  0.00  0.00    +0.043 A 
ATOM     29  N   UNL     1      -4.809  -2.650   0.034  0.00  0.00    -0.380 N 
ATOM     30  C   UNL     1      -4.362  -4.047   0.029  0.00  0.00    +0.144 C 
ATOM     31  C   UNL     1      -2.851  -4.000   0.018  0.00  0.00    -0.040 C 
ATOM     32  C   UNL     1      -2.516  -2.690   0.016  0.00  0.00    +0.002 A 
ATOM     33  C   UNL     1      -1.226  -1.992   0.003  0.00  0.00    +0.055 A 
ATOM     34  H   UNL     1      -5.731  -2.350   0.042  0.00  0.00    +0.160 HD
BRANCH  25  36
ATOM     35  C   UNL     1      -0.017   1.425   0.010  0.00  0.00    +0.277 C 
ATOM     36  O   UNL     1       0.002  -0.004   0.002  0.00  0.00    -0.495 OA
ENDBRANCH  25  36
ENDBRANCH  24  31
ENDBRANCH  23  24
ENDBRANCH   1  23
TORSDOF 8
