REMARK  Name = ZINC41586705
REMARK  5 active torsions:
REMARK  status: ('A' for Active; 'I' for Inactive)
REMARK    1  A    between atoms: C_1  and  C_2
REMARK    2  A    between atoms: C_10  and  C_11
REMARK    3  A    between atoms: C_10  and  C_12
REMARK    4  A    between atoms: N_16  and  C_19
REMARK    5  A    between atoms: C_19  and  C_20
REMARK                            x       y       z     vdW  Elec       q    Type
REMARK                         _______ _______ _______ _____ _____    ______ ____
ROOT
ATOM      1  C   UNL     1      -0.018   1.503   0.010  0.00  0.00    +0.051 C 
ATOM      2  C   UNL     1       0.002  -0.004   0.002  0.00  0.00    +0.034 A 
ATOM      3  C   UNL     1       0.006  -0.689  -1.206  0.00  0.00    +0.133 A 
ATOM      4  C   UNL     1       0.026  -2.080  -1.226  0.00  0.00    +0.010 A 
ATOM      5  C   UNL     1       0.039  -2.783  -0.052  0.00  0.00    +0.024 A 
ATOM      6  C   UNL     1       0.035  -2.106   1.168  0.00  0.00    +0.068 A 
ATOM      7  C   UNL     1       0.023  -0.702   1.202  0.00  0.00    +0.146 A 
ATOM      8  O   UNL     1       0.030  -0.274   2.483  0.00  0.00    -0.451 OA
ATOM      9  C   UNL     1       0.050  -1.306   3.360  0.00  0.00    +0.174 C 
ATOM     10  C   UNL     1       0.060  -1.211   4.694  0.00  0.00    -0.030 C 
ATOM     11  C   UNL     1       0.050   0.144   5.354  0.00  0.00    +0.042 C 
ATOM     12  C   UNL     1       0.082  -2.460   5.538  0.00  0.00    +0.042 C 
ATOM     13  C   UNL     1       0.046  -2.557   2.571  0.00  0.00    +0.231 C 
ATOM     14  O   UNL     1       0.061  -3.701   2.987  0.00  0.00    -0.283 OA
ATOM     15  C   UNL     1       0.037  -2.832  -2.532  0.00  0.00    +0.126 C 
ATOM     16  N   UNL     1      -0.391  -1.939  -3.618  0.00  0.00    -0.262 NA
ATOM     17  C   UNL     1       0.357  -0.673  -3.559  0.00  0.00    +0.319 C 
ATOM     18  O   UNL     1      -0.013   0.020  -2.365  0.00  0.00    -0.476 OA
ENDROOT
BRANCH  16  19
ATOM     19  C   UNL     1      -0.227  -2.586  -4.927  0.00  0.00    +0.123 C 
BRANCH  19  20
ATOM     20  C   UNL     1      -0.897  -1.750  -5.987  0.00  0.00    -0.030 A 
ATOM     21  C   UNL     1      -2.229  -1.952  -6.314  0.00  0.00    +0.024 A 
ATOM     22  C   UNL     1      -2.809  -1.166  -7.292  0.00  0.00    +0.111 A 
ATOM     23  N   UNL     1      -2.111  -0.235  -7.911  0.00  0.00    -0.263 NA
ATOM     24  C   UNL     1      -0.842  -0.015  -7.627  0.00  0.00    +0.111 A 
ATOM     25  C   UNL     1      -0.196  -0.758  -6.656  0.00  0.00    +0.024 A 
ENDBRANCH  19  20
ENDBRANCH  16  19
TORSDOF 2
