REMARK  Name = ZINC40906313
REMARK  9 active torsions:
REMARK  status: ('A' for Active; 'I' for Inactive)
REMARK    1  A    between atoms: C_1  and  C_2
REMARK    2  A    between atoms: C_2  and  C_3
REMARK    3  A    between atoms: C_3  and  C_5
REMARK    4  A    between atoms: C_3  and  N_12
REMARK    5  A    between atoms: N_12  and  C_13
REMARK    6  A    between atoms: C_13  and  C_14
REMARK    7  A    between atoms: C_17  and  O_21
REMARK    8  A    between atoms: C_19  and  O_20
REMARK    9  A    between atoms: O_21  and  C_22
REMARK                            x       y       z     vdW  Elec       q    Type
REMARK                         _______ _______ _______ _____ _____    ______ ____
ROOT
ATOM      1  N   UNL     1      -2.117  -0.276   1.409  0.00  0.00    +0.386 N 
ATOM      2  H   UNL     1      -2.970  -0.811   1.357  0.00  0.00    -0.085 HD
ATOM      3  H   UNL     1      -1.592  -0.558   2.223  0.00  0.00    -0.085 HD
ENDROOT
BRANCH   1   4
ATOM      4  C   UNL     1      -1.314  -0.514   0.202  0.00  0.00    -0.041 C 
BRANCH   4   5
ATOM      5  C   UNL     1      -2.144  -0.217  -1.020  0.00  0.00    -0.061 A 
ATOM      6  C   UNL     1      -3.476  -0.585  -1.057  0.00  0.00    +0.003 A 
ATOM      7  C   UNL     1      -4.238  -0.313  -2.177  0.00  0.00    +0.015 A 
ATOM      8  C   UNL     1      -3.667   0.329  -3.262  0.00  0.00    +0.018 A 
ATOM      9  C   UNL     1      -2.334   0.697  -3.225  0.00  0.00    +0.015 A 
ATOM     10  C   UNL     1      -1.575   0.428  -2.102  0.00  0.00    +0.003 A 
ATOM     11 BR   UNL     1      -4.709   0.701  -4.796  0.00  0.00    -0.050 Br
ENDBRANCH   4   5
BRANCH   4  13
ATOM     12  C   UNL     1       0.086  -2.243   1.339  0.00  0.00    +0.002 C 
ATOM     13  C   UNL     1      -0.864  -1.976   0.170  0.00  0.00    -0.015 C 
ENDBRANCH   4  13
ENDBRANCH   1   4
BRANCH   1  14
ATOM     14  C   UNL     1      -2.441   1.154   1.507  0.00  0.00    -0.042 C 
BRANCH  14  15
ATOM     15  C   UNL     1      -3.155   1.419   2.807  0.00  0.00    -0.023 A 
ATOM     16  C   UNL     1      -4.532   1.538   2.826  0.00  0.00    +0.009 A 
ATOM     17  C   UNL     1      -5.190   1.781   4.016  0.00  0.00    +0.046 A 
ATOM     18  C   UNL     1      -4.470   1.906   5.196  0.00  0.00    +0.124 A 
ATOM     19  C   UNL     1      -3.089   1.787   5.179  0.00  0.00    +0.091 A 
ATOM     20  C   UNL     1      -2.431   1.538   3.984  0.00  0.00    +0.122 A 
BRANCH  20  21
ATOM     21  O   UNL     1      -1.078   1.415   3.966  0.00  0.00    -0.506 OA
ATOM     22  H   UNL     1      -0.609   2.249   3.825  0.00  0.00    +0.292 HD
ENDBRANCH  20  21
BRANCH  18  23
ATOM     23  O   UNL     1      -5.117   2.146   6.367  0.00  0.00    -0.495 OA
ATOM     24  C   UNL     1      -6.541   2.257   6.309  0.00  0.00    +0.277 C 
ENDBRANCH  18  23
ENDBRANCH  14  15
ENDBRANCH   1  14
TORSDOF 7
