REMARK  Name = ZINC58156421
REMARK  8 active torsions:
REMARK  status: ('A' for Active; 'I' for Inactive)
REMARK    1  A    between atoms: N_9  and  C_11
REMARK    2  A    between atoms: C_11  and  C_12
REMARK    3  A    between atoms: C_12  and  C_13
REMARK    4  A    between atoms: C_13  and  N_14
REMARK    5  A    between atoms: N_17  and  C_18
REMARK    6  A    between atoms: C_23  and  S_24
REMARK    7  A    between atoms: S_24  and  C_25
REMARK    8  A    between atoms: C_25  and  C_26
REMARK                            x       y       z     vdW  Elec       q    Type
REMARK                         _______ _______ _______ _____ _____    ______ ____
ROOT
ATOM      1  N   UNL     1       8.243  -2.322   1.874  0.00  0.00    -0.299 N 
ATOM      2  C   UNL     1       9.496  -2.817   1.899  0.00  0.00    +0.304 C 
ATOM      3  O   UNL     1       9.802  -3.737   1.165  0.00  0.00    -0.253 OA
ATOM      4  N   UNL     1      10.412  -2.291   2.737  0.00  0.00    -0.268 N 
ATOM      5  H   UNL     1       7.999  -1.588   2.459  0.00  0.00    +0.150 HD
ATOM      6  H   UNL     1      10.188  -1.516   3.275  0.00  0.00    +0.156 HD
ENDROOT
BRANCH   4   7
ATOM      7  C   UNL     1      11.687  -2.865   2.830  0.00  0.00    +0.048 A 
ATOM      8  C   UNL     1      12.286  -3.417   1.708  0.00  0.00    +0.024 A 
ATOM      9  C   UNL     1      13.544  -3.982   1.803  0.00  0.00    +0.002 A 
ATOM     10  C   UNL     1      14.209  -4.000   3.015  0.00  0.00    +0.001 A 
ATOM     11  C   UNL     1      13.621  -3.453   4.139  0.00  0.00    +0.016 A 
ATOM     12  C   UNL     1      12.361  -2.877   4.052  0.00  0.00    +0.030 A 
BRANCH  12  13
ATOM     13  S   UNL     1      11.611  -2.172   5.482  0.00  0.00    -0.114 S 
BRANCH  13  14
ATOM     14  C   UNL     1      12.840  -2.423   6.792  0.00  0.00    +0.169 C 
BRANCH  14  15
ATOM     15  C   UNL     1      12.317  -1.857   8.087  0.00  0.00    +0.221 C 
ATOM     16  O   UNL     1      11.223  -1.335   8.123  0.00  0.00    -0.275 OA
ATOM     17  N   UNL     1      13.066  -1.930   9.205  0.00  0.00    -0.329 N 
ATOM     18  H   UNL     1      13.941  -2.347   9.177  0.00  0.00    +0.145 HD
ATOM     19  H   UNL     1      12.729  -1.566  10.039  0.00  0.00    +0.145 HD
ENDBRANCH  14  15
ENDBRANCH  13  14
ENDBRANCH  12  13
ENDBRANCH   4   7
BRANCH   1  20
ATOM     20  C   UNL     1       7.248  -2.894   0.963  0.00  0.00    +0.104 C 
BRANCH  20  21
ATOM     21  C   UNL     1       5.918  -2.157   1.133  0.00  0.00    +0.000 C 
BRANCH  21  22
ATOM     22  C   UNL     1       4.879  -2.753   0.182  0.00  0.00    -0.077 C 
BRANCH  22  31
ATOM     23  C   UNL     1       0.019   1.428  -0.056  0.00  0.00    +0.000 A 
ATOM     24  C   UNL     1       1.213   2.126  -0.057  0.00  0.00    +0.000 A 
ATOM     25  C   UNL     1       2.410   1.440  -0.066  0.00  0.00    +0.002 A 
ATOM     26  C   UNL     1       2.424   0.053  -0.073  0.00  0.00    -0.061 A 
ATOM     27  C   UNL     1       1.233  -0.641  -0.069  0.00  0.00    -0.048 A 
ATOM     28  C   UNL     1       0.031   0.048  -0.062  0.00  0.00    +0.004 A 
ATOM     29  C   UNL     1       1.203  -2.149  -0.068  0.00  0.00    +0.017 C 
ATOM     30  C   UNL     1       2.571  -2.694  -0.480  0.00  0.00    -0.074 C 
ATOM     31  N   UNL     1       3.602  -2.046   0.345  0.00  0.00    +0.383 N 
ATOM     32  C   UNL     1       3.753  -0.654  -0.087  0.00  0.00    -0.043 C 
ATOM     33  H   UNL     1       3.323  -2.070   1.315  0.00  0.00    -0.081 HD
ENDBRANCH  22  31
ENDBRANCH  21  22
ENDBRANCH  20  21
ENDBRANCH   1  20
TORSDOF 8
