REMARK  Name = ZINC14121858
REMARK  3 active torsions:
REMARK  status: ('A' for Active; 'I' for Inactive)
REMARK    1  A    between atoms: C_1  and  C_2
REMARK    2  A    between atoms: N_11  and  C_15
REMARK    3  A    between atoms: C_15  and  C_16
REMARK                            x       y       z     vdW  Elec       q    Type
REMARK                         _______ _______ _______ _____ _____    ______ ____
ROOT
ATOM      1  C   UNL     1      -0.871   6.045  -6.401  0.00  0.00    +0.010 C 
ATOM      2  C   UNL     1       0.312   6.732  -5.716  0.00  0.00    +0.018 C 
ATOM      3  C   UNL     1      -0.188   7.949  -4.933  0.00  0.00    +0.006 C 
ATOM      4  C   UNL     1       0.994   8.623  -4.232  0.00  0.00    +0.000 C 
ATOM      5  C   UNL     1       1.642   7.635  -3.260  0.00  0.00    +0.003 C 
ATOM      6  C   UNL     1       2.150   6.417  -4.036  0.00  0.00    +0.035 C 
ATOM      7  C   UNL     1       0.985   5.752  -4.761  0.00  0.00    +0.115 C 
ATOM      8  C   UNL     1      -0.021   5.212  -3.770  0.00  0.00    +0.247 C 
ATOM      9  O   UNL     1      -0.662   5.843  -2.958  0.00  0.00    -0.273 OA
ATOM     10  N   UNL     1      -0.052   3.879  -3.978  0.00  0.00    -0.215 N 
ATOM     11  C   UNL     1       0.782   3.514  -4.959  0.00  0.00    +0.310 C 
ATOM     12  O   UNL     1       0.926   2.365  -5.331  0.00  0.00    -0.252 OA
ATOM     13  N   UNL     1       1.444   4.560  -5.487  0.00  0.00    -0.285 N 
ATOM     14  H   UNL     1       2.096   4.533  -6.205  0.00  0.00    +0.151 HD
ENDROOT
BRANCH  10  15
ATOM     15  C   UNL     1      -0.899   2.949  -3.227  0.00  0.00    +0.213 C 
BRANCH  15  16
ATOM     16  C   UNL     1      -0.149   2.451  -2.019  0.00  0.00    +0.234 C 
ATOM     17  O   UNL     1       0.981   2.836  -1.805  0.00  0.00    -0.274 OA
ATOM     18  N   UNL     1      -0.735   1.578  -1.175  0.00  0.00    -0.295 N 
ATOM     19  C   UNL     1      -0.013   1.086   0.008  0.00  0.00    +0.113 C 
ATOM     20  C   UNL     1      -0.743   1.587   1.263  0.00  0.00    +0.061 C 
ATOM     21  C   UNL     1      -2.215   1.420   1.059  0.00  0.00    -0.004 A 
ATOM     22  C   UNL     1      -2.878   1.208  -0.110  0.00  0.00    -0.020 A 
ATOM     23  C   UNL     1      -4.265   1.092  -0.031  0.00  0.00    +0.013 A 
ATOM     24  C   UNL     1      -4.884   1.188   1.168  0.00  0.00    +0.046 A 
ATOM     25  S   UNL     1      -3.507   1.456   2.273  0.00  0.00    -0.101 S 
ATOM     26  C   UNL     1      -2.103   1.106  -1.423  0.00  0.00    +0.143 C 
ENDBRANCH  15  16
ENDBRANCH  10  15
TORSDOF 2
