REMARK  Name = ZINC66952224
REMARK  6 active torsions:
REMARK  status: ('A' for Active; 'I' for Inactive)
REMARK    1  A    between atoms: C_1  and  N_2
REMARK    2  A    between atoms: N_2  and  C_3
REMARK    3  A    between atoms: C_7  and  N_10
REMARK    4  A    between atoms: N_13  and  C_14
REMARK    5  A    between atoms: C_14  and  C_15
REMARK    6  A    between atoms: C_15  and  O_25
REMARK                            x       y       z     vdW  Elec       q    Type
REMARK                         _______ _______ _______ _____ _____    ______ ____
ROOT
ATOM      1  N   UNL     1       0.311  -2.666  -4.885  0.00  0.00    -0.268 N 
ATOM      2  C   UNL     1       0.109  -1.940  -6.002  0.00  0.00    +0.304 C 
ATOM      3  O   UNL     1       0.148  -0.725  -5.953  0.00  0.00    -0.253 OA
ATOM      4  N   UNL     1      -0.135  -2.559  -7.174  0.00  0.00    -0.296 N 
ATOM      5  H   UNL     1       0.356  -3.634  -4.937  0.00  0.00    +0.156 HD
ATOM      6  H   UNL     1      -0.165  -3.528  -7.213  0.00  0.00    +0.150 HD
ENDROOT
BRANCH   1  13
ATOM      7  C   UNL     1       1.851  -0.862   1.016  0.00  0.00    +0.130 C 
ATOM      8  N   UNL     1       0.967  -0.239   0.028  0.00  0.00    -0.323 N 
ATOM      9  C   UNL     1       0.273   1.010   0.350  0.00  0.00    +0.130 C 
ATOM     10  C   UNL     1       0.787  -0.835  -1.218  0.00  0.00    +0.098 A 
ATOM     11  C   UNL     1      -0.049  -0.234  -2.153  0.00  0.00    +0.043 A 
ATOM     12  C   UNL     1      -0.221  -0.833  -3.387  0.00  0.00    +0.028 A 
ATOM     13  C   UNL     1       0.456  -2.023  -3.647  0.00  0.00    +0.051 A 
ATOM     14  C   UNL     1       1.273  -2.564  -2.667  0.00  0.00    +0.107 A 
ATOM     15  N   UNL     1       1.419  -1.963  -1.502  0.00  0.00    -0.348 N 
ATOM     16  H   UNL     1       2.000  -2.360  -0.834  0.00  0.00    +0.167 HD
ENDBRANCH   1  13
BRANCH   4  17
ATOM     17  C   UNL     1      -0.354  -1.770  -8.388  0.00  0.00    +0.145 C 
BRANCH  17  18
ATOM     18  C   UNL     1      -0.579  -2.709  -9.574  0.00  0.00    +0.107 C 
ATOM     19  C   UNL     1       0.597  -3.679  -9.679  0.00  0.00    +0.041 C 
ATOM     20  C   UNL     1       0.463  -4.462 -10.990  0.00  0.00    +0.008 C 
ATOM     21  C   UNL     1       0.731  -3.506 -12.151  0.00  0.00    +0.035 C 
ATOM     22  C   UNL     1      -0.110  -2.264 -12.020  0.00  0.00    -0.041 A 
ATOM     23  C   UNL     1      -0.709  -1.896 -10.835  0.00  0.00    -0.011 A 
ATOM     24  C   UNL     1      -1.467  -0.734 -10.780  0.00  0.00    +0.007 A 
ATOM     25  C   UNL     1      -1.628   0.053 -11.902  0.00  0.00    +0.000 A 
ATOM     26  C   UNL     1      -1.030  -0.319 -13.092  0.00  0.00    +0.000 A 
ATOM     27  C   UNL     1      -0.275  -1.472 -13.149  0.00  0.00    +0.004 A 
BRANCH  18  28
ATOM     28  O   UNL     1      -1.783  -3.451  -9.366  0.00  0.00    -0.382 OA
ATOM     29  H   UNL     1      -2.574  -2.901  -9.281  0.00  0.00    +0.211 HD
ENDBRANCH  18  28
ENDBRANCH  17  18
ENDBRANCH   4  17
TORSDOF 4
