REMARK  Name = ZINC63182689
REMARK  8 active torsions:
REMARK  status: ('A' for Active; 'I' for Inactive)
REMARK    1  A    between atoms: C_7  and  C_10
REMARK    2  A    between atoms: C_10  and  C_11
REMARK    3  A    between atoms: N_13  and  N_14
REMARK    4  A    between atoms: C_15  and  C_17
REMARK    5  A    between atoms: C_17  and  N_18
REMARK    6  A    between atoms: C_19  and  C_21
REMARK    7  A    between atoms: C_21  and  N_22
REMARK    8  A    between atoms: C_23  and  C_25
REMARK                            x       y       z     vdW  Elec       q    Type
REMARK                         _______ _______ _______ _____ _____    ______ ____
ROOT
ATOM      1  N   UNL     1      -0.567  -5.122  -3.001  0.00  0.00    -0.233 N 
ATOM      2  C   UNL     1      -1.380  -6.168  -3.245  0.00  0.00    +0.246 C 
ATOM      3  O   UNL     1      -1.926  -6.740  -2.325  0.00  0.00    -0.273 OA
ATOM      4  H   UNL     1      -0.131  -4.665  -3.737  0.00  0.00    +0.173 HD
ENDROOT
BRANCH   1   7
ATOM      5  C   UNL     1       0.460  -3.646  -1.440  0.00  0.00    +0.233 C 
ATOM      6  O   UNL     1       1.006  -3.075  -2.360  0.00  0.00    -0.274 OA
ATOM      7  N   UNL     1      -0.353  -4.693  -1.684  0.00  0.00    -0.234 N 
ATOM      8  H   UNL     1      -0.790  -5.150  -0.948  0.00  0.00    +0.173 HD
BRANCH   5   9
ATOM      9  C   UNL     1       0.691  -3.186  -0.024  0.00  0.00    +0.130 C 
BRANCH   9  16
ATOM     10  C   UNL     1      -0.016   1.348   0.009  0.00  0.00    +0.001 A 
ATOM     11  C   UNL     1       1.166   2.101   0.002  0.00  0.00    +0.002 A 
ATOM     12  C   UNL     1       2.391   1.535  -0.013  0.00  0.00    +0.026 A 
ATOM     13  C   UNL     1       2.529   0.120  -0.022  0.00  0.00    +0.043 A 
ATOM     14  N   UNL     1       3.587  -0.654  -0.037  0.00  0.00    -0.380 N 
ATOM     15  C   UNL     1       3.143  -2.053  -0.041  0.00  0.00    +0.145 C 
ATOM     16  C   UNL     1       1.631  -2.008  -0.025  0.00  0.00    -0.033 C 
ATOM     17  C   UNL     1       1.295  -0.698  -0.014  0.00  0.00    -0.001 A 
ATOM     18  C   UNL     1       0.002  -0.004   0.002  0.00  0.00    +0.010 A 
ATOM     19  H   UNL     1       4.509  -0.353  -0.045  0.00  0.00    +0.160 HD
ENDBRANCH   9  16
ENDBRANCH   5   9
ENDBRANCH   1   7
BRANCH   2  20
ATOM     20  C   UNL     1      -1.611  -6.629  -4.661  0.00  0.00    +0.201 C 
BRANCH  20  21
ATOM     21  N   UNL     1      -2.526  -7.774  -4.660  0.00  0.00    -0.305 N 
ATOM     22  C   UNL     1      -2.878  -8.356  -5.823  0.00  0.00    +0.231 C 
ATOM     23  O   UNL     1      -2.438  -7.933  -6.871  0.00  0.00    -0.274 OA
ATOM     24  H   UNL     1      -2.877  -8.112  -3.821  0.00  0.00    +0.149 HD
BRANCH  22  25
ATOM     25  C   UNL     1      -3.819  -9.533  -5.821  0.00  0.00    +0.200 C 
BRANCH  25  26
ATOM     26  N   UNL     1      -4.043  -9.981  -7.198  0.00  0.00    -0.303 N 
ATOM     27  C   UNL     1      -4.856 -11.028  -7.442  0.00  0.00    +0.246 C 
ATOM     28  O   UNL     1      -5.403 -11.601  -6.520  0.00  0.00    -0.270 OA
ATOM     29  H   UNL     1      -3.606  -9.524  -7.934  0.00  0.00    +0.150 HD
BRANCH  27  30
ATOM     30  C   UNL     1      -5.082 -11.480  -8.830  0.00  0.00    +0.055 A 
ATOM     31  C   UNL     1      -4.450 -10.828  -9.891  0.00  0.00    +0.016 A 
ATOM     32  C   UNL     1      -4.665 -11.254 -11.184  0.00  0.00    +0.021 A 
ATOM     33  C   UNL     1      -5.506 -12.326 -11.434  0.00  0.00    +0.042 A 
ATOM     34  C   UNL     1      -6.136 -12.977 -10.387  0.00  0.00    +0.040 A 
ATOM     35  C   UNL     1      -5.924 -12.565  -9.087  0.00  0.00    +0.054 A 
ATOM     36 CL   UNL     1      -6.709 -13.387  -7.774  0.00  0.00    -0.083 Cl
ATOM     37 CL   UNL     1      -5.771 -12.856 -13.066  0.00  0.00    -0.083 Cl
ENDBRANCH  27  30
ENDBRANCH  25  26
ENDBRANCH  22  25
ENDBRANCH  20  21
ENDBRANCH   2  20
TORSDOF 8
