REMARK  Name = ZINC63588471
REMARK  9 active torsions:
REMARK  status: ('A' for Active; 'I' for Inactive)
REMARK    1  A    between atoms: C_1  and  C_2
REMARK    2  A    between atoms: C_7  and  N_8
REMARK    3  A    between atoms: N_10  and  C_11
REMARK    4  A    between atoms: C_11  and  C_12
REMARK    5  A    between atoms: C_12  and  C_13
REMARK    6  A    between atoms: N_22  and  C_23
REMARK    7  A    between atoms: C_23  and  C_25
REMARK    8  A    between atoms: C_29  and  O_31
REMARK    9  A    between atoms: O_31  and  C_32
REMARK                            x       y       z     vdW  Elec       q    Type
REMARK                         _______ _______ _______ _____ _____    ______ ____
ROOT
ATOM      1  N   UNL     1      -1.076  -0.737   3.234  0.00  0.00    -0.328 N 
ATOM      2  C   UNL     1      -0.203  -0.970   4.257  0.00  0.00    +0.194 C 
ATOM      3  N   UNL     1       0.240   0.066   5.026  0.00  0.00    -0.357 N 
ATOM      4  N   UNL     1       0.214  -2.203   4.504  0.00  0.00    -0.143 NA
ATOM      5  H   UNL     1       0.890  -0.095   5.728  0.00  0.00    +0.162 HD
ATOM      6  H   UNL     1      -2.006  -0.999   3.320  0.00  0.00    +0.169 HD
ENDROOT
BRANCH   1  13
ATOM      7  C   UNL     1      -3.011  -0.003   1.282  0.00  0.00    +0.046 C 
ATOM      8  C   UNL     1      -1.540   0.256   1.082  0.00  0.00    -0.026 A 
ATOM      9  C   UNL     1      -1.096   0.871  -0.073  0.00  0.00    +0.025 A 
ATOM     10  C   UNL     1       0.254   1.108  -0.257  0.00  0.00    +0.041 A 
ATOM     11  C   UNL     1       1.165   0.730   0.715  0.00  0.00    +0.022 A 
ATOM     12  C   UNL     1       0.727   0.115   1.871  0.00  0.00    +0.027 A 
ATOM     13  C   UNL     1      -0.629  -0.119   2.061  0.00  0.00    +0.045 A 
ATOM     14 CL   UNL     1       0.808   1.881  -1.710  0.00  0.00    -0.084 Cl
ENDBRANCH   1  13
BRANCH   4  15
ATOM     15  C   UNL     1      -0.070  -3.190   3.644  0.00  0.00    +0.270 C 
ATOM     16  O   UNL     1      -0.604  -2.936   2.579  0.00  0.00    -0.268 OA
BRANCH  15  17
ATOM     17  C   UNL     1       0.265  -4.591   3.988  0.00  0.00    +0.042 A 
ATOM     18  C   UNL     1       0.766  -4.901   5.253  0.00  0.00    +0.013 A 
ATOM     19  C   UNL     1       1.077  -6.207   5.571  0.00  0.00    +0.004 A 
ATOM     20  C   UNL     1       0.894  -7.212   4.639  0.00  0.00    +0.045 A 
ATOM     21  C   UNL     1       0.396  -6.913   3.378  0.00  0.00    +0.121 A 
ATOM     22  C   UNL     1       0.075  -5.606   3.052  0.00  0.00    +0.058 A 
BRANCH  21  23
ATOM     23  O   UNL     1       0.218  -7.905   2.466  0.00  0.00    -0.495 OA
ATOM     24  C   UNL     1       0.564  -9.230   2.873  0.00  0.00    +0.277 C 
ENDBRANCH  21  23
ENDBRANCH  15  17
ENDBRANCH   4  15
BRANCH   3  25
ATOM     25  C   UNL     1      -0.267   1.420   4.793  0.00  0.00    +0.120 C 
BRANCH  25  26
ATOM     26  C   UNL     1       0.421   2.394   5.751  0.00  0.00    +0.054 C 
BRANCH  26  27
ATOM     27  C   UNL     1      -0.184   3.766   5.593  0.00  0.00    -0.040 C 
ATOM     28  C   UNL     1      -1.310   4.231   6.180  0.00  0.00    -0.001 A 
ATOM     29  C   UNL     1      -2.273   3.622   7.106  0.00  0.00    +0.010 A 
ATOM     30  C   UNL     1      -3.328   4.354   7.530  0.00  0.00    +0.001 A 
ATOM     31  C   UNL     1      -3.525   5.676   7.109  0.00  0.00    +0.002 A 
ATOM     32  C   UNL     1      -2.683   6.304   6.260  0.00  0.00    +0.026 A 
ATOM     33  C   UNL     1      -1.540   5.629   5.751  0.00  0.00    +0.043 A 
ATOM     34  N   UNL     1      -0.593   6.013   4.930  0.00  0.00    -0.380 N 
ATOM     35  C   UNL     1       0.350   4.903   4.750  0.00  0.00    +0.144 C 
ATOM     36  H   UNL     1      -0.524   6.887   4.514  0.00  0.00    +0.160 HD
ENDBRANCH  26  27
ENDBRANCH  25  26
ENDBRANCH   3  25
TORSDOF 7
