REMARK  Name = ZINC03207151
REMARK  6 active torsions:
REMARK  status: ('A' for Active; 'I' for Inactive)
REMARK    1  A    between atoms: C_8  and  C_10
REMARK    2  A    between atoms: N_12  and  C_13
REMARK    3  A    between atoms: C_13  and  N_15
REMARK    4  A    between atoms: N_15  and  C_16
REMARK    5  A    between atoms: C_19  and  S_22
REMARK    6  A    between atoms: S_22  and  N_25
REMARK                            x       y       z     vdW  Elec       q    Type
REMARK                         _______ _______ _______ _____ _____    ______ ____
ROOT
ATOM      1  C   UNL     1      -3.487  -1.294   0.418  0.00  0.00    +0.141 C 
ATOM      2  S   UNL     1      -3.298  -2.932   0.880  0.00  0.00    -0.018 S 
ENDROOT
BRANCH   1   5
ATOM      3  C   UNL     1      -1.217  -0.921   0.811  0.00  0.00    +0.258 C 
ATOM      4  O   UNL     1      -1.082  -2.085   1.139  0.00  0.00    -0.269 OA
ATOM      5  N   UNL     1      -2.427  -0.463   0.433  0.00  0.00    -0.263 N 
ATOM      6  H   UNL     1      -2.534   0.465   0.172  0.00  0.00    +0.157 HD
BRANCH   3  14
ATOM      7  C   UNL     1       4.384   1.728   1.334  0.00  0.00    +0.001 A 
ATOM      8  C   UNL     1       3.896   2.959   0.912  0.00  0.00    +0.001 A 
ATOM      9  C   UNL     1       2.560   3.087   0.593  0.00  0.00    +0.016 A 
ATOM     10  C   UNL     1       1.728   1.992   0.696  0.00  0.00    +0.021 A 
ATOM     11  C   UNL     1       2.197   0.727   1.122  0.00  0.00    +0.008 A 
ATOM     12  C   UNL     1       3.577   0.641   1.440  0.00  0.00    +0.010 A 
ATOM     13  C   UNL     1       1.226  -0.290   1.175  0.00  0.00    +0.068 A 
ATOM     14  C   UNL     1      -0.062  -0.016   0.828  0.00  0.00    +0.094 A 
ATOM     15  S   UNL     1       0.001   1.714   0.396  0.00  0.00    -0.082 S 
ATOM     16 CL   UNL     1       1.669  -1.891   1.681  0.00  0.00    -0.082 Cl
ENDBRANCH   3  14
ENDBRANCH   1   5
BRANCH   1  17
ATOM     17  N   UNL     1      -4.697  -0.836   0.041  0.00  0.00    -0.297 N 
ATOM     18  H   UNL     1      -4.818   0.105  -0.162  0.00  0.00    +0.154 HD
BRANCH  17  19
ATOM     19  C   UNL     1      -5.779  -1.718  -0.060  0.00  0.00    +0.033 A 
ATOM     20  C   UNL     1      -6.618  -1.666  -1.165  0.00  0.00    +0.025 A 
ATOM     21  C   UNL     1      -7.682  -2.542  -1.264  0.00  0.00    +0.030 A 
ATOM     22  C   UNL     1      -7.917  -3.462  -0.260  0.00  0.00    +0.105 A 
ATOM     23  C   UNL     1      -7.087  -3.512   0.845  0.00  0.00    +0.030 A 
ATOM     24  C   UNL     1      -6.018  -2.643   0.947  0.00  0.00    +0.025 A 
BRANCH  22  25
ATOM     25  S   UNL     1      -9.279  -4.573  -0.387  0.00  0.00    +0.056 S 
ATOM     26  O   UNL     1      -9.580  -4.689  -1.771  0.00  0.00    -0.153 OA
ATOM     27  O   UNL     1      -8.962  -5.698   0.421  0.00  0.00    -0.153 OA
BRANCH  25  28
ATOM     28  N   UNL     1     -10.581  -3.835   0.321  0.00  0.00    -0.204 NA
ATOM     29  H   UNL     1     -10.488  -2.948   0.702  0.00  0.00    +0.144 HD
ATOM     30  H   UNL     1     -11.438  -4.289   0.353  0.00  0.00    +0.144 HD
ENDBRANCH  25  28
ENDBRANCH  22  25
ENDBRANCH  17  19
ENDBRANCH   1  17
TORSDOF 6
