REMARK  Name = ZINC06590829
REMARK  9 active torsions:
REMARK  status: ('A' for Active; 'I' for Inactive)
REMARK    1  A    between atoms: C_1  and  C_2
REMARK    2  A    between atoms: C_2  and  C_4
REMARK    3  A    between atoms: C_2  and  N_51
REMARK    4  A    between atoms: N_6  and  C_7
REMARK    5  A    between atoms: C_10  and  S_13
REMARK    6  A    between atoms: S_13  and  N_16
REMARK    7  A    between atoms: C_17  and  N_51
REMARK    8  A    between atoms: C_18  and  C_19
REMARK    9  A    between atoms: C_18  and  N_51
REMARK                            x       y       z     vdW  Elec       q    Type
REMARK                         _______ _______ _______ _____ _____    ______ ____
ROOT
ATOM      1  C   UNL     1       2.176  -0.103   1.002  0.00  0.00    -0.004 C 
ATOM      2  C   UNL     1       2.413   0.811  -0.201  0.00  0.00    +0.016 C 
ENDROOT
BRANCH   2   3
ATOM      3  C   UNL     1       1.169   1.617  -0.472  0.00  0.00    +0.203 C 
ATOM      4  O   UNL     1       1.134   2.794  -0.180  0.00  0.00    -0.277 OA
ATOM      5  N   UNL     1       0.096   1.031  -1.039  0.00  0.00    -0.287 N 
ATOM      6  H   UNL     1       0.146   0.108  -1.331  0.00  0.00    +0.155 HD
BRANCH   5   7
ATOM      7  C   UNL     1      -1.088   1.757  -1.211  0.00  0.00    +0.033 A 
ATOM      8  C   UNL     1      -2.317   1.118  -1.109  0.00  0.00    +0.025 A 
ATOM      9  C   UNL     1      -3.483   1.838  -1.275  0.00  0.00    +0.030 A 
ATOM     10  C   UNL     1      -3.429   3.192  -1.551  0.00  0.00    +0.105 A 
ATOM     11  C   UNL     1      -2.207   3.830  -1.658  0.00  0.00    +0.030 A 
ATOM     12  C   UNL     1      -1.037   3.116  -1.489  0.00  0.00    +0.025 A 
BRANCH  10  13
ATOM     13  S   UNL     1      -4.920   4.105  -1.768  0.00  0.00    +0.056 S 
ATOM     14  O   UNL     1      -5.938   3.391  -1.079  0.00  0.00    -0.153 OA
ATOM     15  O   UNL     1      -4.611   5.461  -1.478  0.00  0.00    -0.153 OA
BRANCH  13  16
ATOM     16  N   UNL     1      -5.304   4.041  -3.378  0.00  0.00    -0.204 NA
ATOM     17  H   UNL     1      -6.232   4.076  -3.657  0.00  0.00    +0.144 HD
ATOM     18  H   UNL     1      -4.600   3.967  -4.042  0.00  0.00    +0.144 HD
ENDBRANCH  13  16
ENDBRANCH  10  13
ENDBRANCH   5   7
ENDBRANCH   2   3
BRANCH   2  20
ATOM     19  C   UNL     1       4.818   1.014  -0.010  0.00  0.00    -0.095 C 
ATOM     20  N   UNL     1       3.532   1.739   0.066  0.00  0.00    +0.388 N 
ATOM     21  H   UNL     1       3.526   2.482  -0.642  0.00  0.00    -0.081 HD
BRANCH  20  22
ATOM     22  C   UNL     1       3.374   2.349   1.403  0.00  0.00    -0.030 C 
BRANCH  22  23
ATOM     23  C   UNL     1       4.411   3.462   1.564  0.00  0.00    +0.195 C 
ATOM     24  C   UNL     1       4.313   4.061   2.973  0.00  0.00    +0.271 C 
ATOM     25  O   UNL     1       5.285   5.106   3.084  0.00  0.00    -0.485 OA
ATOM     26  C   UNL     1       5.353   5.990   2.052  0.00  0.00    +0.162 A 
ATOM     27  C   UNL     1       5.995   7.206   2.238  0.00  0.00    +0.049 A 
ATOM     28  C   UNL     1       6.074   8.113   1.198  0.00  0.00    +0.004 A 
ATOM     29  C   UNL     1       5.516   7.811  -0.030  0.00  0.00    +0.004 A 
ATOM     30  C   UNL     1       4.875   6.602  -0.222  0.00  0.00    +0.049 A 
ATOM     31  C   UNL     1       4.790   5.688   0.818  0.00  0.00    +0.162 A 
ATOM     32  O   UNL     1       4.152   4.503   0.615  0.00  0.00    -0.484 OA
ENDBRANCH  22  23
ENDBRANCH  20  22
ENDBRANCH   2  20
TORSDOF 7
