REMARK  Name = ZINC08636315
REMARK  12 active torsions:
REMARK  status: ('A' for Active; 'I' for Inactive)
REMARK    1  A    between atoms: C_1  and  O_2
REMARK    2  A    between atoms: O_2  and  C_3
REMARK    3  A    between atoms: C_3  and  C_4
REMARK    4  A    between atoms: C_4  and  N_5
REMARK    5  A    between atoms: C_6  and  C_8
REMARK    6  A    between atoms: C_11  and  O_34
REMARK    7  A    between atoms: C_13  and  O_33
REMARK    8  A    between atoms: N_22  and  C_23
REMARK    9  A    between atoms: C_25  and  O_31
REMARK   10  A    between atoms: C_27  and  O_29
REMARK   11  A    between atoms: O_29  and  C_30
REMARK   12  A    between atoms: O_31  and  C_32
REMARK                            x       y       z     vdW  Elec       q    Type
REMARK                         _______ _______ _______ _____ _____    ______ ____
ROOT
ATOM      1  C   UNL     1       2.499   1.505  -0.142  0.00  0.00    +0.093 C 
ATOM      2  C   UNL     1       2.471   0.626  -1.385  0.00  0.00    +0.048 C 
ATOM      3  C   UNL     1       3.678  -0.319  -1.343  0.00  0.00    +0.146 C 
ATOM      4  C   UNL     1       4.944   0.521  -1.473  0.00  0.00    +0.168 C 
ATOM      5  C   UNL     1       5.038   1.595  -0.433  0.00  0.00    +0.153 C 
ATOM      6  C   UNL     1       3.768   2.330  -0.046  0.00  0.00    +0.093 C 
ATOM      7  S   UNL     1       4.117   2.628   1.737  0.00  0.00    -0.084 S 
ATOM      8  C   UNL     1       5.677   1.773   1.855  0.00  0.00    +0.154 C 
ATOM      9  N   UNL     1       5.932   1.324   0.660  0.00  0.00    -0.256 NA
ATOM     10  N   UNL     1       6.454   1.617   2.982  0.00  0.00    -0.294 N 
ATOM     11  H   UNL     1       6.128   1.926   3.842  0.00  0.00    +0.154 HD
ENDROOT
BRANCH  10  12
ATOM     12  C   UNL     1       7.712   1.015   2.886  0.00  0.00    +0.040 A 
ATOM     13  C   UNL     1       8.237   0.326   3.971  0.00  0.00    +0.069 A 
ATOM     14  C   UNL     1       9.482  -0.275   3.874  0.00  0.00    +0.125 A 
ATOM     15  C   UNL     1      10.209  -0.178   2.697  0.00  0.00    +0.091 A 
ATOM     16  C   UNL     1       9.688   0.514   1.614  0.00  0.00    +0.125 A 
ATOM     17  C   UNL     1       8.440   1.111   1.708  0.00  0.00    +0.069 A 
BRANCH  16  18
ATOM     18  O   UNL     1      10.401   0.609   0.461  0.00  0.00    -0.495 OA
ATOM     19  C   UNL     1      11.679  -0.030   0.434  0.00  0.00    +0.277 C 
ENDBRANCH  16  18
BRANCH  14  20
ATOM     20  O   UNL     1       9.994  -0.954   4.934  0.00  0.00    -0.495 OA
ATOM     21  C   UNL     1      11.284  -1.544   4.766  0.00  0.00    +0.277 C 
ENDBRANCH  14  20
ENDBRANCH  10  12
BRANCH   1  23
ATOM     22  N   UNL     1       0.064   1.933  -0.201  0.00  0.00    -0.313 N 
ATOM     23  C   UNL     1       1.314   2.436  -0.176  0.00  0.00    +0.217 C 
ATOM     24  O   UNL     1       1.486   3.636  -0.180  0.00  0.00    -0.275 OA
ATOM     25  H   UNL     1      -0.074   0.973  -0.198  0.00  0.00    +0.149 HD
BRANCH  22  26
ATOM     26  C   UNL     1      -1.088   2.838  -0.240  0.00  0.00    +0.132 C 
BRANCH  26  27
ATOM     27  C   UNL     1      -2.380   2.018  -0.270  0.00  0.00    +0.178 C 
BRANCH  27  29
ATOM     28  C   UNL     1      -3.691   0.488   1.029  0.00  0.00    +0.194 C 
ATOM     29  O   UNL     1      -2.511   1.291   0.953  0.00  0.00    -0.381 OA
ENDBRANCH  27  29
ENDBRANCH  26  27
ENDBRANCH  22  26
ENDBRANCH   1  23
BRANCH   4  30
ATOM     30  O   UNL     1       6.081  -0.336  -1.351  0.00  0.00    -0.387 OA
ATOM     31  H   UNL     1       6.122  -1.032  -2.022  0.00  0.00    +0.210 HD
ENDBRANCH   4  30
BRANCH   3  32
ATOM     32  O   UNL     1       3.601  -1.247  -2.426  0.00  0.00    -0.389 OA
ATOM     33  H   UNL     1       2.808  -1.800  -2.415  0.00  0.00    +0.210 HD
ENDBRANCH   3  32
TORSDOF 9
