REMARK  Name = ZINC40779549
REMARK  4 active torsions:
REMARK  status: ('A' for Active; 'I' for Inactive)
REMARK    1  A    between atoms: C_4  and  C_7
REMARK    2  A    between atoms: C_7  and  N_8
REMARK    3  A    between atoms: C_16  and  N_29
REMARK    4  A    between atoms: C_17  and  N_21
REMARK                            x       y       z     vdW  Elec       q    Type
REMARK                         _______ _______ _______ _____ _____    ______ ____
ROOT
ATOM      1  N   UNL     1       4.103  -0.873   1.303  0.00  0.00    -0.264 N 
ATOM      2  C   UNL     1       3.665  -2.038   1.925  0.00  0.00    +0.127 A 
ATOM      3  C   UNL     1       2.850  -2.926   1.230  0.00  0.00    +0.044 A 
ATOM      4  C   UNL     1       2.423  -4.081   1.860  0.00  0.00    +0.005 A 
ATOM      5  C   UNL     1       2.826  -4.310   3.169  0.00  0.00    +0.020 A 
ATOM      6  C   UNL     1       3.636  -3.386   3.798  0.00  0.00    +0.113 A 
ATOM      7  N   UNL     1       4.033  -2.295   3.171  0.00  0.00    -0.240 NA
ATOM      8  C   UNL     1       4.929   0.012   1.988  0.00  0.00    +0.153 A 
ATOM      9  C   UNL     1       6.316  -0.056   1.841  0.00  0.00    +0.104 A 
ATOM     10  C   UNL     1       7.099   0.857   2.551  0.00  0.00    +0.127 A 
ATOM     11  N   UNL     1       6.498   1.749   3.334  0.00  0.00    -0.333 N 
ATOM     12  C   UNL     1       5.186   1.779   3.444  0.00  0.00    +0.200 A 
ATOM     13  N   UNL     1       4.410   0.940   2.788  0.00  0.00    -0.220 NA
ATOM     14  H   UNL     1       7.035   2.387   3.831  0.00  0.00    +0.168 HD
ENDROOT
BRANCH  10  15
ATOM     15  N   UNL     1       8.486   0.833   2.442  0.00  0.00    -0.284 N 
ATOM     16  C   UNL     1       9.249   1.830   3.042  0.00  0.00    +0.124 A 
ATOM     17  C   UNL     1      10.624   1.862   2.837  0.00  0.00    +0.045 A 
ATOM     18  C   UNL     1      11.371   2.859   3.439  0.00  0.00    +0.025 A 
ATOM     19  C   UNL     1      10.713   3.795   4.229  0.00  0.00    +0.059 A 
ATOM     20  C   UNL     1       9.344   3.702   4.388  0.00  0.00    +0.132 A 
ATOM     21  N   UNL     1       8.658   2.743   3.796  0.00  0.00    -0.239 NA
ATOM     22 CL   UNL     1      11.603   5.066   5.007  0.00  0.00    -0.082 Cl
ATOM     23  H   UNL     1       8.921   0.120   1.947  0.00  0.00    +0.155 HD
ENDBRANCH  10  15
BRANCH   9  24
ATOM     24  N   UNL     1       6.907  -1.015   1.004  0.00  0.00    -0.353 N 
ATOM     25  H   UNL     1       6.350  -1.594   0.462  0.00  0.00    +0.143 HD
ATOM     26  H   UNL     1       7.873  -1.098   0.968  0.00  0.00    +0.143 HD
ENDBRANCH   9  24
BRANCH   1  27
ATOM     27  C   UNL     1       3.693  -0.579  -0.072  0.00  0.00    +0.149 C 
BRANCH  27  31
ATOM     28  C   UNL     1       0.057   1.662  -0.028  0.00  0.00    +0.000 A 
ATOM     29  C   UNL     1       1.273   2.318  -0.003  0.00  0.00    +0.000 A 
ATOM     30  C   UNL     1       2.450   1.593  -0.017  0.00  0.00    +0.005 A 
ATOM     31  C   UNL     1       2.410   0.212  -0.056  0.00  0.00    -0.030 A 
ATOM     32  C   UNL     1       1.194  -0.444  -0.080  0.00  0.00    +0.005 A 
ATOM     33  C   UNL     1       0.017   0.281  -0.067  0.00  0.00    +0.000 A 
ENDBRANCH  27  31
ENDBRANCH   1  27
TORSDOF 4
