REMARK  Name = ZINC39685126
REMARK  8 active torsions:
REMARK  status: ('A' for Active; 'I' for Inactive)
REMARK    1  A    between atoms: C_5  and  O_7
REMARK    2  A    between atoms: O_7  and  C_8
REMARK    3  A    between atoms: C_8  and  C_9
REMARK    4  A    between atoms: C_9  and  N_10
REMARK    5  A    between atoms: C_11  and  C_13
REMARK    6  A    between atoms: C_24  and  C_26
REMARK    7  A    between atoms: C_26  and  O_27
REMARK    8  A    between atoms: O_27  and  C_28
REMARK                            x       y       z     vdW  Elec       q    Type
REMARK                         _______ _______ _______ _____ _____    ______ ____
ROOT
ATOM      1  C   UNL     1       1.834  -6.340   2.711  0.00  0.00    +0.100 C 
ATOM      2  C   UNL     1       0.985  -5.923   3.932  0.00  0.00    +0.121 C 
ATOM      3  N   UNL     1       0.184  -7.126   4.260  0.00  0.00    -0.297 N 
ATOM      4  C   UNL     1       1.119  -8.258   4.053  0.00  0.00    +0.115 C 
ATOM      5  C   UNL     1       1.922  -7.873   2.795  0.00  0.00    -0.004 C 
ATOM      6  C   UNL     1       1.298  -8.507   1.557  0.00  0.00    -0.010 C 
ATOM      7  C   UNL     1       1.448 -10.029   1.637  0.00  0.00    -0.082 C 
ATOM      8  N   UNL     1       2.871 -10.378   1.726  0.00  0.00    +0.379 N 
ATOM      9  C   UNL     1       3.442  -9.841   2.967  0.00  0.00    -0.082 C 
ATOM     10  C   UNL     1       3.376  -8.312   2.942  0.00  0.00    -0.010 C 
ATOM     11  C   UNL     1      -1.103  -7.179   4.656  0.00  0.00    +0.253 C 
ATOM     12  O   UNL     1      -1.622  -8.250   4.889  0.00  0.00    -0.272 OA
ATOM     13  H   UNL     1       2.971 -11.382   1.718  0.00  0.00    -0.086 HD
ATOM     14  H   UNL     1       3.361  -9.987   0.935  0.00  0.00    -0.086 HD
ENDROOT
BRANCH   1  16
ATOM     15  N   UNL     1       1.888  -5.654   0.335  0.00  0.00    -0.312 N 
ATOM     16  C   UNL     1       1.154  -5.923   1.432  0.00  0.00    +0.218 C 
ATOM     17  O   UNL     1      -0.055  -5.830   1.391  0.00  0.00    -0.275 OA
ATOM     18  H   UNL     1       2.855  -5.729   0.367  0.00  0.00    +0.149 HD
BRANCH  15  19
ATOM     19  C   UNL     1       1.227  -5.249  -0.908  0.00  0.00    +0.145 C 
BRANCH  19  20
ATOM     20  C   UNL     1       2.280  -5.006  -1.991  0.00  0.00    +0.248 C 
BRANCH  20  21
ATOM     21  O   UNL     1       2.941  -6.236  -2.297  0.00  0.00    -0.488 OA
BRANCH  21  26
ATOM     22  C   UNL     1       5.212  -4.955  -4.836  0.00  0.00    +0.004 A 
ATOM     23  C   UNL     1       5.891  -6.109  -5.181  0.00  0.00    +0.003 A 
ATOM     24  C   UNL     1       5.585  -7.306  -4.561  0.00  0.00    +0.042 A 
ATOM     25  C   UNL     1       4.596  -7.352  -3.595  0.00  0.00    +0.165 A 
ATOM     26  C   UNL     1       3.913  -6.194  -3.247  0.00  0.00    +0.156 A 
ATOM     27  C   UNL     1       4.224  -4.995  -3.871  0.00  0.00    +0.048 A 
ATOM     28  F   UNL     1       4.295  -8.522  -2.990  0.00  0.00    -0.202 F 
ENDBRANCH  21  26
ENDBRANCH  20  21
ENDBRANCH  19  20
ENDBRANCH  15  19
ENDBRANCH   1  16
BRANCH  11  29
ATOM     29  C   UNL     1      -1.897  -5.907   4.810  0.00  0.00    +0.324 C 
BRANCH  29  30
ATOM     30  O   UNL     1      -3.224  -6.222   5.236  0.00  0.00    -0.483 OA
BRANCH  30  31
ATOM     31  C   UNL     1      -4.076  -5.180   5.423  0.00  0.00    +0.123 A 
ATOM     32  C   UNL     1      -3.645  -3.881   5.196  0.00  0.00    +0.046 A 
ATOM     33  C   UNL     1      -4.512  -2.823   5.386  0.00  0.00    +0.005 A 
ATOM     34  C   UNL     1      -5.810  -3.057   5.803  0.00  0.00    +0.020 A 
ATOM     35  C   UNL     1      -6.242  -4.352   6.032  0.00  0.00    +0.044 A 
ATOM     36  C   UNL     1      -5.379  -5.414   5.837  0.00  0.00    +0.065 A 
ATOM     37 CL   UNL     1      -7.871  -4.642   6.556  0.00  0.00    -0.083 Cl
ENDBRANCH  30  31
ENDBRANCH  29  30
ENDBRANCH  11  29
TORSDOF 8
