REMARK  Name = ZINC24979656
REMARK  6 active torsions:
REMARK  status: ('A' for Active; 'I' for Inactive)
REMARK    1  A    between atoms: C_3  and  O_28
REMARK    2  A    between atoms: C_6  and  N_7
REMARK    3  A    between atoms: C_8  and  C_10
REMARK    4  A    between atoms: C_10  and  N_11
REMARK    5  A    between atoms: C_17  and  C_19
REMARK    6  A    between atoms: O_28  and  C_29
REMARK                            x       y       z     vdW  Elec       q    Type
REMARK                         _______ _______ _______ _____ _____    ______ ____
ROOT
ATOM      1  N   UNL     1       2.702   0.913   0.003  0.00  0.00    +0.387 N 
ATOM      2  C   UNL     1       2.435   1.722  -1.194  0.00  0.00    -0.059 C 
ATOM      3  C   UNL     1       3.171   3.062  -1.076  0.00  0.00    +0.089 C 
ATOM      4  N   UNL     1       4.592   2.792  -0.811  0.00  0.00    -0.305 N 
ATOM      5  C   UNL     1       4.934   1.879   0.290  0.00  0.00    +0.089 C 
ATOM      6  C   UNL     1       4.129   0.586   0.118  0.00  0.00    -0.059 C 
ATOM      7  C   UNL     1       5.556   3.368  -1.557  0.00  0.00    +0.219 C 
ATOM      8  O   UNL     1       5.263   4.201  -2.389  0.00  0.00    -0.275 OA
ATOM      9  H   UNL     1       2.425   1.515   0.881  0.00  0.00    -0.081 HD
ENDROOT
BRANCH   7  10
ATOM     10  C   UNL     1       6.997   2.976  -1.359  0.00  0.00    +0.078 C 
ATOM     11  C   UNL     1       7.534   3.635  -0.086  0.00  0.00    +0.032 C 
ATOM     12  C   UNL     1       8.989   3.207   0.131  0.00  0.00    +0.110 C 
ATOM     13  N   UNL     1       9.759   3.517  -1.080  0.00  0.00    -0.286 N 
ATOM     14  C   UNL     1       9.280   3.008  -2.373  0.00  0.00    +0.110 C 
ATOM     15  C   UNL     1       7.822   3.439  -2.562  0.00  0.00    +0.032 C 
ATOM     16  C   UNL     1      10.884   4.256  -1.008  0.00  0.00    +0.300 C 
ATOM     17  O   UNL     1      11.462   4.586  -2.026  0.00  0.00    -0.253 OA
ATOM     18  N   UNL     1      11.370   4.629   0.193  0.00  0.00    -0.313 N 
ATOM     19  H   UNL     1      12.288   5.232   0.252  0.00  0.00    +0.146 HD
ATOM     20  H   UNL     1      10.848   4.330   1.114  0.00  0.00    +0.146 HD
ENDBRANCH   7  10
BRANCH   1  21
ATOM     21  C   UNL     1       1.881  -0.304   0.009  0.00  0.00    +0.019 C 
BRANCH  21  23
ATOM     22  N   UNL     1      -0.518  -0.890   0.164  0.00  0.00    -0.287 N 
ATOM     23  C   UNL     1       0.427   0.071   0.137  0.00  0.00    +0.201 C 
ATOM     24  O   UNL     1       0.106   1.238   0.215  0.00  0.00    -0.278 OA
ATOM     25  H   UNL     1      -0.234  -1.944   0.026  0.00  0.00    +0.155 HD
BRANCH  22  31
ATOM     26  C   UNL     1      -2.186   0.553   1.149  0.00  0.00    +0.027 A 
ATOM     27  C   UNL     1      -3.510   0.894   1.345  0.00  0.00    +0.048 A 
ATOM     28  C   UNL     1      -4.515   0.129   0.771  0.00  0.00    +0.130 A 
ATOM     29  C   UNL     1      -4.191  -0.974  -0.005  0.00  0.00    +0.048 A 
ATOM     30  C   UNL     1      -2.868  -1.312  -0.206  0.00  0.00    +0.027 A 
ATOM     31  C   UNL     1      -1.861  -0.548   0.368  0.00  0.00    +0.034 A 
BRANCH  28  32
ATOM     32  O   UNL     1      -5.818   0.462   0.969  0.00  0.00    -0.406 OA
BRANCH  32  33
ATOM     33  C   UNL     1      -6.079   1.610   1.779  0.00  0.00    +0.575 C 
ATOM     34  F   UNL     1      -5.489   2.736   1.196  0.00  0.00    -0.133 F 
ATOM     35  F   UNL     1      -7.461   1.806   1.878  0.00  0.00    -0.133 F 
ATOM     36  F   UNL     1      -5.544   1.411   3.056  0.00  0.00    -0.133 F 
ENDBRANCH  32  33
ENDBRANCH  28  32
ENDBRANCH  22  31
ENDBRANCH  21  23
ENDBRANCH   1  21
TORSDOF 6
