REMARK  Name = ZINC36824783
REMARK  12 active torsions:
REMARK  status: ('A' for Active; 'I' for Inactive)
REMARK    1  A    between atoms: C_1  and  C_2
REMARK    2  A    between atoms: C_2  and  O_3
REMARK    3  A    between atoms: O_3  and  C_4
REMARK    4  A    between atoms: C_6  and  C_18
REMARK    5  A    between atoms: C_9  and  O_10
REMARK    6  A    between atoms: O_10  and  C_11
REMARK    7  A    between atoms: C_11  and  C_13
REMARK    8  A    between atoms: C_11  and  C_14
REMARK    9  A    between atoms: C_18  and  N_19
REMARK   10  A    between atoms: N_19  and  C_20
REMARK   11  A    between atoms: C_20  and  C_21
REMARK   12  A    between atoms: C_20  and  C_22
REMARK                            x       y       z     vdW  Elec       q    Type
REMARK                         _______ _______ _______ _____ _____    ______ ____
ROOT
ATOM      1  C   UNL     1      -1.498  -1.849   0.006  0.00  0.00    +0.163 A 
ATOM      2  C   UNL     1      -0.389  -2.680  -0.003  0.00  0.00    +0.051 A 
ATOM      3  C   UNL     1      -0.553  -4.052  -0.009  0.00  0.00    -0.060 A 
ATOM      4  C   UNL     1      -1.822  -4.600  -0.006  0.00  0.00    +0.021 A 
ATOM      5  C   UNL     1      -2.934  -3.777   0.003  0.00  0.00    +0.063 A 
ATOM      6  C   UNL     1      -2.776  -2.400   0.016  0.00  0.00    +0.177 A 
ATOM      7 BR   UNL     1      -4.668  -4.531   0.006  0.00  0.00    -0.046 Br
ENDROOT
BRANCH   1   8
ATOM      8  O   UNL     1      -1.339  -0.499   0.012  0.00  0.00    -0.489 OA
BRANCH   8  10
ATOM      9  C   UNL     1      -0.019   1.526   0.010  0.00  0.00    +0.048 C 
ATOM     10  C   UNL     1       0.002  -0.004   0.002  0.00  0.00    +0.226 C 
ENDBRANCH   8  10
ENDBRANCH   1   8
BRANCH   6  11
ATOM     11  O   UNL     1      -3.868  -1.589   0.030  0.00  0.00    -0.475 OA
BRANCH  11  12
ATOM     12  C   UNL     1      -4.401  -1.195  -1.236  0.00  0.00    +0.255 C 
ATOM     13  C   UNL     1      -5.451  -2.213  -1.685  0.00  0.00    +0.062 C 
BRANCH  12  14
ATOM     14  C   UNL     1      -5.039   0.164  -1.111  0.00  0.00    +0.251 C 
ATOM     15  O   UNL     1      -5.038   0.739  -0.043  0.00  0.00    -0.272 OA
ATOM     16  N   UNL     1      -5.611   0.741  -2.187  0.00  0.00    -0.326 N 
ATOM     17  H   UNL     1      -5.612   0.281  -3.041  0.00  0.00    +0.145 HD
ATOM     18  H   UNL     1      -6.022   1.616  -2.106  0.00  0.00    +0.145 HD
ENDBRANCH  12  14
ENDBRANCH  11  12
ENDBRANCH   6  11
BRANCH   3  19
ATOM     19  C   UNL     1       0.655  -4.954  -0.020  0.00  0.00    -0.046 C 
BRANCH  19  20
ATOM     20  N   UNL     1       1.054  -5.253   1.362  0.00  0.00    +0.383 N 
ATOM     21  H   UNL     1       1.280  -4.394   1.841  0.00  0.00    -0.085 HD
ATOM     22  H   UNL     1       0.294  -5.715   1.839  0.00  0.00    -0.085 HD
BRANCH  20  23
ATOM     23  C   UNL     1       2.232  -6.132   1.351  0.00  0.00    -0.078 C 
ATOM     24  C   UNL     1       3.419  -5.386   0.740  0.00  0.00    -0.014 C 
ATOM     25  C   UNL     1       2.572  -6.545   2.784  0.00  0.00    -0.014 C 
ENDBRANCH  20  23
ENDBRANCH  19  20
ENDBRANCH   3  19
TORSDOF 8
