REMARK  Name = ZINC35096384
REMARK  9 active torsions:
REMARK  status: ('A' for Active; 'I' for Inactive)
REMARK    1  A    between atoms: C_1  and  C_2
REMARK    2  A    between atoms: N_8  and  C_9
REMARK    3  A    between atoms: C_9  and  C_10
REMARK    4  A    between atoms: C_10  and  C_11
REMARK    5  A    between atoms: C_11  and  N_12
REMARK    6  A    between atoms: N_12  and  C_13
REMARK    7  A    between atoms: C_13  and  C_14
REMARK    8  A    between atoms: N_25  and  C_26
REMARK    9  A    between atoms: C_30  and  C_32
REMARK                            x       y       z     vdW  Elec       q    Type
REMARK                         _______ _______ _______ _____ _____    ______ ____
ROOT
ATOM      1  N   UNL     1       1.078  -0.268   5.973  0.00  0.00    -0.281 N 
ATOM      2  C   UNL     1       0.816  -1.420   6.621  0.00  0.00    +0.307 C 
ATOM      3  O   UNL     1       0.035  -2.222   6.145  0.00  0.00    -0.252 OA
ATOM      4  N   UNL     1       1.419  -1.684   7.797  0.00  0.00    -0.269 N 
ATOM      5  H   UNL     1       2.099  -1.082   8.139  0.00  0.00    +0.156 HD
ENDROOT
BRANCH   4   6
ATOM      6  C   UNL     1       1.065  -2.825   8.525  0.00  0.00    +0.035 A 
ATOM      7  C   UNL     1       2.018  -3.489   9.286  0.00  0.00    +0.023 A 
ATOM      8  C   UNL     1       1.665  -4.615  10.003  0.00  0.00    +0.002 A 
ATOM      9  C   UNL     1       0.364  -5.083   9.963  0.00  0.00    +0.012 A 
ATOM     10  C   UNL     1      -0.587  -4.425   9.206  0.00  0.00    +0.057 A 
ATOM     11  C   UNL     1      -0.242  -3.294   8.491  0.00  0.00    +0.035 A 
BRANCH  10  12
ATOM     12  C   UNL     1      -2.003  -4.938   9.165  0.00  0.00    +0.417 C 
ATOM     13  F   UNL     1      -2.108  -6.081   9.965  0.00  0.00    -0.166 F 
ATOM     14  F   UNL     1      -2.871  -3.951   9.644  0.00  0.00    -0.166 F 
ATOM     15  F   UNL     1      -2.344  -5.259   7.846  0.00  0.00    -0.166 F 
ENDBRANCH  10  12
ENDBRANCH   4   6
BRANCH   1  16
ATOM     16  C   UNL     1       0.422   0.019   4.695  0.00  0.00    +0.108 C 
BRANCH  16  17
ATOM     17  C   UNL     1       1.280  -0.522   3.549  0.00  0.00    +0.000 C 
BRANCH  17  18
ATOM     18  C   UNL     1       0.595  -0.223   2.214  0.00  0.00    -0.077 C 
BRANCH  18  25
ATOM     19  C   UNL     1       0.681   1.172  -0.222  0.00  0.00    -0.013 C 
ATOM     20  C   UNL     1       0.822  -0.350  -0.169  0.00  0.00    -0.072 C 
ATOM     21  C   UNL     1       1.719  -0.819  -1.316  0.00  0.00    -0.016 C 
ATOM     22  C   UNL     1       1.857  -2.343  -1.260  0.00  0.00    -0.003 C 
ATOM     23  C   UNL     1       2.409  -2.746   0.111  0.00  0.00    -0.019 C 
ATOM     24  C   UNL     1       1.486  -2.205   1.205  0.00  0.00    -0.078 C 
ATOM     25  N   UNL     1       1.418  -0.742   1.114  0.00  0.00    +0.381 N 
ATOM     26  H   UNL     1       2.349  -0.358   1.182  0.00  0.00    -0.081 HD
ENDBRANCH  18  25
ENDBRANCH  17  18
ENDBRANCH  16  17
ENDBRANCH   1  16
BRANCH   1  27
ATOM     27  C   UNL     1       2.018   0.698   6.547  0.00  0.00    +0.144 C 
BRANCH  27  28
ATOM     28  C   UNL     1       1.271   1.661   7.434  0.00  0.00    -0.026 A 
ATOM     29  C   UNL     1       0.749   2.825   6.902  0.00  0.00    +0.009 A 
ATOM     30  C   UNL     1       0.062   3.711   7.712  0.00  0.00    +0.050 A 
ATOM     31  C   UNL     1      -0.104   3.433   9.059  0.00  0.00    +0.166 A 
ATOM     32  C   UNL     1       0.422   2.260   9.594  0.00  0.00    +0.167 A 
ATOM     33  C   UNL     1       1.104   1.374   8.776  0.00  0.00    +0.054 A 
ATOM     34  O   UNL     1       0.128   2.219  10.926  0.00  0.00    -0.453 OA
ATOM     35  C   UNL     1      -0.227   3.567  11.284  0.00  0.00    +0.466 C 
ATOM     36  O   UNL     1      -0.728   4.127  10.056  0.00  0.00    -0.453 OA
ENDBRANCH  27  28
ENDBRANCH   1  27
TORSDOF 8
