REMARK  Name = ZINC08494105
REMARK  12 active torsions:
REMARK  status: ('A' for Active; 'I' for Inactive)
REMARK    1  A    between atoms: C_1  and  C_2
REMARK    2  A    between atoms: C_7  and  C_8
REMARK    3  A    between atoms: C_8  and  N_54
REMARK    4  A    between atoms: C_9  and  N_54
REMARK    5  A    between atoms: C_10  and  C_12
REMARK    6  A    between atoms: C_10  and  C_13
REMARK    7  A    between atoms: C_10  and  N_54
REMARK    8  A    between atoms: N_15  and  C_16
REMARK    9  A    between atoms: C_16  and  C_17
REMARK   10  A    between atoms: C_17  and  C_18
REMARK   11  A    between atoms: C_21  and  S_24
REMARK   12  A    between atoms: S_24  and  N_27
REMARK                            x       y       z     vdW  Elec       q    Type
REMARK                         _______ _______ _______ _____ _____    ______ ____
ROOT
ATOM      1  C   UNL     1       0.054   0.792  -2.430  0.00  0.00    +0.199 C 
ATOM      2  O   UNL     1       1.264   0.768  -2.512  0.00  0.00    -0.278 OA
ATOM      3  N   UNL     1      -0.554   0.347  -1.313  0.00  0.00    -0.316 N 
ATOM      4  H   UNL     1      -1.522   0.367  -1.248  0.00  0.00    +0.149 HD
ENDROOT
BRANCH   1   5
ATOM      5  C   UNL     1      -0.768   1.319  -3.578  0.00  0.00    +0.016 C 
ATOM      6  C   UNL     1      -1.049   2.807  -3.363  0.00  0.00    -0.004 C 
BRANCH   5   8
ATOM      7  C   UNL     1       0.204  -0.288  -5.106  0.00  0.00    -0.095 C 
ATOM      8  N   UNL     1      -0.003   1.149  -4.832  0.00  0.00    +0.388 N 
ATOM      9  H   UNL     1       0.911   1.604  -4.729  0.00  0.00    -0.081 HD
BRANCH   8  10
ATOM     10  C   UNL     1      -0.729   1.779  -5.955  0.00  0.00    -0.042 C 
BRANCH  10  17
ATOM     11  C   UNL     1       1.494   3.617  -6.117  0.00  0.00    +0.044 C 
ATOM     12  C   UNL     1       1.226   2.658  -7.248  0.00  0.00    -0.049 A 
ATOM     13  C   UNL     1       2.043   2.657  -8.363  0.00  0.00    +0.003 A 
ATOM     14  C   UNL     1       1.797   1.777  -9.400  0.00  0.00    +0.000 A 
ATOM     15  C   UNL     1       0.733   0.897  -9.322  0.00  0.00    +0.000 A 
ATOM     16  C   UNL     1      -0.081   0.894  -8.206  0.00  0.00    +0.002 A 
ATOM     17  C   UNL     1       0.162   1.778  -7.170  0.00  0.00    -0.061 A 
ENDBRANCH  10  17
ENDBRANCH   8  10
ENDBRANCH   5   8
ENDBRANCH   1   5
BRANCH   3  18
ATOM     18  C   UNL     1       0.245  -0.165  -0.198  0.00  0.00    +0.109 C 
BRANCH  18  19
ATOM     19  C   UNL     1      -0.683  -0.601   0.937  0.00  0.00    +0.054 C 
BRANCH  19  20
ATOM     20  C   UNL     1       0.139  -1.128   2.085  0.00  0.00    -0.046 A 
ATOM     21  C   UNL     1       0.458  -2.471   2.147  0.00  0.00    +0.005 A 
ATOM     22  C   UNL     1       1.216  -2.954   3.198  0.00  0.00    +0.029 A 
ATOM     23  C   UNL     1       1.648  -2.094   4.191  0.00  0.00    +0.105 A 
ATOM     24  C   UNL     1       1.324  -0.752   4.131  0.00  0.00    +0.029 A 
ATOM     25  C   UNL     1       0.570  -0.268   3.078  0.00  0.00    +0.005 A 
BRANCH  23  26
ATOM     26  S   UNL     1       2.610  -2.710   5.532  0.00  0.00    +0.056 S 
ATOM     27  O   UNL     1       3.236  -3.899   5.070  0.00  0.00    -0.153 OA
ATOM     28  O   UNL     1       3.349  -1.608   6.041  0.00  0.00    -0.153 OA
BRANCH  26  29
ATOM     29  N   UNL     1       1.555  -3.163   6.724  0.00  0.00    -0.204 NA
ATOM     30  H   UNL     1       0.600  -3.060   6.592  0.00  0.00    +0.144 HD
ATOM     31  H   UNL     1       1.892  -3.532   7.556  0.00  0.00    +0.144 HD
ENDBRANCH  26  29
ENDBRANCH  23  26
ENDBRANCH  19  20
ENDBRANCH  18  19
ENDBRANCH   3  18
TORSDOF 9
