REMARK  Name = ZINC08972286
REMARK  8 active torsions:
REMARK  status: ('A' for Active; 'I' for Inactive)
REMARK    1  A    between atoms: C_1  and  C_2
REMARK    2  A    between atoms: C_4  and  C_33
REMARK    3  A    between atoms: C_9  and  C_17
REMARK    4  A    between atoms: N_19  and  C_20
REMARK    5  A    between atoms: C_22  and  O_28
REMARK    6  A    between atoms: C_25  and  O_26
REMARK    7  A    between atoms: O_26  and  C_27
REMARK    8  A    between atoms: O_28  and  C_29
REMARK                            x       y       z     vdW  Elec       q    Type
REMARK                         _______ _______ _______ _____ _____    ______ ____
ROOT
ATOM      1  C   UNL     1      -5.957   1.202   2.621  0.00  0.00    +0.044 C 
ATOM      2  C   UNL     1      -4.832   2.173   2.369  0.00  0.00    -0.050 A 
ATOM      3  C   UNL     1      -4.916   3.469   2.843  0.00  0.00    +0.008 A 
ATOM      4  C   UNL     1      -3.890   4.362   2.615  0.00  0.00    -0.029 A 
ATOM      5  C   UNL     1      -2.760   3.964   1.904  0.00  0.00    +0.039 A 
ATOM      6  C   UNL     1      -2.688   2.658   1.430  0.00  0.00    -0.027 A 
ATOM      7  C   UNL     1      -3.714   1.770   1.661  0.00  0.00    +0.008 A 
ATOM      8  C   UNL     1      -1.368   2.550   0.717  0.00  0.00    +0.052 C 
ATOM      9  C   UNL     1      -0.482   1.467   1.345  0.00  0.00    +0.076 C 
ATOM     10  C   UNL     1       0.368   0.945   0.167  0.00  0.00    -0.003 C 
ATOM     11  C   UNL     1      -0.341   1.428  -1.104  0.00  0.00    -0.066 C 
ATOM     12  C   UNL     1      -2.687   1.235  -0.812  0.00  0.00    -0.077 C 
ATOM     13  C   UNL     1      -2.336   0.383  -2.056  0.00  0.00    -0.020 C 
ATOM     14  C   UNL     1      -0.801   0.231  -1.948  0.00  0.00    -0.017 C 
ATOM     15  C   UNL     1      -0.741   3.912   0.854  0.00  0.00    +0.212 C 
ATOM     16  O   UNL     1       0.337   4.259   0.420  0.00  0.00    -0.277 OA
ATOM     17  N   UNL     1      -1.608   4.671   1.551  0.00  0.00    -0.286 N 
ATOM     18  C   UNL     1      -3.992   5.772   3.136  0.00  0.00    +0.045 C 
ATOM     19  H   UNL     1      -1.451   5.600   1.782  0.00  0.00    +0.155 HD
ATOM     20  N   UNL     1      -1.533   2.147  -0.686  0.00  0.00    +0.394 N 
ATOM     21  H   UNL     1      -1.675   2.976  -1.275  0.00  0.00    -0.079 HD
ENDROOT
BRANCH   9  22
ATOM     22  C   UNL     1      -1.329   0.359   1.916  0.00  0.00    +0.220 C 
ATOM     23  O   UNL     1      -1.615  -0.601   1.231  0.00  0.00    -0.275 OA
ATOM     24  N   UNL     1      -1.768   0.434   3.188  0.00  0.00    -0.282 N 
ATOM     25  H   UNL     1      -1.609   1.236   3.709  0.00  0.00    +0.155 HD
BRANCH  24  26
ATOM     26  C   UNL     1      -2.455  -0.647   3.756  0.00  0.00    +0.079 A 
ATOM     27  C   UNL     1      -2.345  -1.912   3.197  0.00  0.00    +0.072 A 
ATOM     28  C   UNL     1      -3.021  -2.980   3.766  0.00  0.00    +0.122 A 
ATOM     29  C   UNL     1      -3.816  -2.783   4.885  0.00  0.00    +0.049 A 
ATOM     30  C   UNL     1      -3.931  -1.523   5.441  0.00  0.00    +0.051 A 
ATOM     31  C   UNL     1      -3.254  -0.452   4.880  0.00  0.00    +0.141 A 
BRANCH  31  32
ATOM     32  O   UNL     1      -3.368   0.788   5.428  0.00  0.00    -0.493 OA
ATOM     33  C   UNL     1      -4.204   0.914   6.580  0.00  0.00    +0.277 C 
ENDBRANCH  31  32
BRANCH  28  34
ATOM     34  O   UNL     1      -2.909  -4.222   3.222  0.00  0.00    -0.495 OA
ATOM     35  C   UNL     1      -3.638  -5.275   3.855  0.00  0.00    +0.277 C 
ENDBRANCH  28  34
ENDBRANCH  24  26
ENDBRANCH   9  22
TORSDOF 4
