REMARK  Name = ZINC37358513
REMARK  10 active torsions:
REMARK  status: ('A' for Active; 'I' for Inactive)
REMARK    1  A    between atoms: C_1  and  C_2
REMARK    2  A    between atoms: C_2  and  C_3
REMARK    3  A    between atoms: C_2  and  N_4
REMARK    4  A    between atoms: C_12  and  C_27
REMARK    5  A    between atoms: C_14  and  N_26
REMARK    6  A    between atoms: N_15  and  C_19
REMARK    7  A    between atoms: C_30  and  O_35
REMARK    8  A    between atoms: C_31  and  O_33
REMARK    9  A    between atoms: O_33  and  C_34
REMARK   10  A    between atoms: O_35  and  C_36
REMARK                            x       y       z     vdW  Elec       q    Type
REMARK                         _______ _______ _______ _____ _____    ______ ____
ROOT
ATOM      1  N   UNL     1      -0.610  -0.635  -1.239  0.00  0.00    +0.383 N 
ATOM      2  C   UNL     1      -1.618  -0.105  -2.166  0.00  0.00    -0.059 C 
ATOM      3  C   UNL     1      -3.015  -0.520  -1.692  0.00  0.00    +0.089 C 
ATOM      4  N   UNL     1      -3.040  -1.982  -1.538  0.00  0.00    -0.303 N 
ATOM      5  C   UNL     1      -1.968  -2.616  -0.756  0.00  0.00    +0.089 C 
ATOM      6  C   UNL     1      -0.620  -2.103  -1.275  0.00  0.00    -0.059 C 
ATOM      7  C   UNL     1      -4.045  -2.740  -2.113  0.00  0.00    +0.220 A 
ATOM      8  N   UNL     1      -4.018  -4.058  -1.935  0.00  0.00    -0.214 NA
ATOM      9  C   UNL     1      -4.942  -4.859  -2.451  0.00  0.00    +0.089 A 
ATOM     10  C   UNL     1      -5.983  -4.278  -3.211  0.00  0.00    +0.086 A 
ATOM     11  C   UNL     1      -7.098  -4.747  -3.893  0.00  0.00    +0.131 A 
ATOM     12  N   UNL     1      -7.720  -3.682  -4.435  0.00  0.00    -0.216 N 
ATOM     13  N   UNL     1      -7.024  -2.511  -4.115  0.00  0.00    -0.144 NA
ATOM     14  C   UNL     1      -5.974  -2.814  -3.383  0.00  0.00    +0.189 A 
ATOM     15  N   UNL     1      -4.979  -2.117  -2.802  0.00  0.00    -0.193 NA
ATOM     16  H   UNL     1      -0.820  -0.321  -0.303  0.00  0.00    -0.081 HD
ENDROOT
BRANCH  12  17
ATOM     17  C   UNL     1      -8.890  -3.738  -5.203  0.00  0.00    +0.068 A 
ATOM     18  C   UNL     1      -9.116  -4.817  -6.048  0.00  0.00    +0.029 A 
ATOM     19  C   UNL     1     -10.270  -4.870  -6.804  0.00  0.00    +0.022 A 
ATOM     20  C   UNL     1     -11.201  -3.849  -6.721  0.00  0.00    +0.041 A 
ATOM     21  C   UNL     1     -10.978  -2.773  -5.880  0.00  0.00    +0.022 A 
ATOM     22  C   UNL     1      -9.828  -2.717  -5.118  0.00  0.00    +0.029 A 
ATOM     23 CL   UNL     1     -12.651  -3.919  -7.673  0.00  0.00    -0.084 Cl
ENDBRANCH  12  17
BRANCH   9  24
ATOM     24  C   UNL     1      -4.885  -6.321  -2.236  0.00  0.00    +0.005 A 
ATOM     25  C   UNL     1      -5.071  -7.193  -3.310  0.00  0.00    +0.014 A 
ATOM     26  C   UNL     1      -5.017  -8.556  -3.108  0.00  0.00    +0.050 A 
ATOM     27  C   UNL     1      -4.779  -9.064  -1.839  0.00  0.00    +0.162 A 
ATOM     28  C   UNL     1      -4.593  -8.198  -0.763  0.00  0.00    +0.162 A 
ATOM     29  C   UNL     1      -4.639  -6.831  -0.960  0.00  0.00    +0.059 A 
BRANCH  28  30
ATOM     30  O   UNL     1      -4.360  -8.699   0.480  0.00  0.00    -0.491 OA
ATOM     31  C   UNL     1      -4.179  -7.753   1.537  0.00  0.00    +0.277 C 
ENDBRANCH  28  30
BRANCH  27  32
ATOM     32  O   UNL     1      -4.727 -10.408  -1.645  0.00  0.00    -0.491 OA
ATOM     33  C   UNL     1      -4.926 -11.237  -2.792  0.00  0.00    +0.277 C 
ENDBRANCH  27  32
ENDBRANCH   9  24
BRANCH   1  35
ATOM     34  C   UNL     1       0.731   1.383  -1.595  0.00  0.00    -0.014 C 
ATOM     35  C   UNL     1       0.719  -0.147  -1.631  0.00  0.00    -0.075 C 
ATOM     36  C   UNL     1       1.769  -0.689  -0.660  0.00  0.00    -0.014 C 
ENDBRANCH   1  35
BRANCH  11  37
ATOM     37  N   UNL     1      -7.497  -6.067  -3.998  0.00  0.00    -0.342 N 
ATOM     38  H   UNL     1      -7.074  -6.746  -3.450  0.00  0.00    +0.144 HD
ATOM     39  H   UNL     1      -8.199  -6.313  -4.620  0.00  0.00    +0.144 HD
ENDBRANCH  11  37
TORSDOF 6
