REMARK  Name = ZINC03011733
REMARK  5 active torsions:
REMARK  status: ('A' for Active; 'I' for Inactive)
REMARK    1  A    between atoms: C_1  and  C_2
REMARK    2  A    between atoms: C_5  and  C_8
REMARK    3  A    between atoms: C_11  and  C_34
REMARK    4  A    between atoms: C_16  and  C_18
REMARK    5  A    between atoms: N_23  and  C_26
REMARK                            x       y       z     vdW  Elec       q    Type
REMARK                         _______ _______ _______ _____ _____    ______ ____
ROOT
ATOM      1  C   UNL     1       0.003  -4.303  -0.118  0.00  0.00    +0.104 C 
ATOM      2  C   UNL     1       1.438  -4.782   0.133  0.00  0.00    +0.063 C 
ATOM      3  C   UNL     1       1.493  -6.313   0.082  0.00  0.00    +0.215 C 
ATOM      4  N   UNL     1       0.438  -6.855   0.942  0.00  0.00    -0.238 N 
ATOM      5  C   UNL     1      -0.651  -6.138   1.349  0.00  0.00    +0.119 A 
ATOM      6  C   UNL     1      -1.412  -6.934   2.126  0.00  0.00    +0.078 A 
ATOM      7  C   UNL     1      -0.773  -8.192   2.202  0.00  0.00    +0.149 A 
ATOM      8  N   UNL     1       0.337  -8.134   1.487  0.00  0.00    -0.164 NA
ATOM      9  N   UNL     1      -0.861  -4.808   0.967  0.00  0.00    -0.322 N 
ATOM     10  H   UNL     1      -1.531  -4.250   1.392  0.00  0.00    +0.148 HD
ENDROOT
BRANCH   7  11
ATOM     11  C   UNL     1      -1.261  -9.368   2.951  0.00  0.00    +0.267 C 
ATOM     12  O   UNL     1      -2.242  -9.271   3.663  0.00  0.00    -0.268 OA
ATOM     13  N   UNL     1      -0.620 -10.549   2.845  0.00  0.00    -0.293 N 
ATOM     14  C   UNL     1      -1.165 -11.756   3.482  0.00  0.00    +0.127 C 
ATOM     15  C   UNL     1      -1.323 -12.845   2.414  0.00  0.00    +0.124 C 
ATOM     16  N   UNL     1      -0.067 -12.948   1.658  0.00  0.00    -0.327 N 
ATOM     17  C   UNL     1       0.477 -11.741   1.021  0.00  0.00    +0.124 C 
ATOM     18  C   UNL     1       0.633 -10.653   2.084  0.00  0.00    +0.127 C 
BRANCH  16  19
ATOM     19  C   UNL     1       0.598 -14.172   1.548  0.00  0.00    +0.031 A 
ATOM     20  C   UNL     1       0.013 -15.329   2.047  0.00  0.00    +0.023 A 
ATOM     21  C   UNL     1       0.672 -16.538   1.936  0.00  0.00    +0.003 A 
ATOM     22  C   UNL     1       1.913 -16.597   1.330  0.00  0.00    +0.020 A 
ATOM     23  C   UNL     1       2.499 -15.447   0.832  0.00  0.00    +0.043 A 
ATOM     24  C   UNL     1       1.842 -14.235   0.935  0.00  0.00    +0.043 A 
ATOM     25 CL   UNL     1       4.058 -15.526   0.073  0.00  0.00    -0.083 Cl
ENDBRANCH  16  19
ENDBRANCH   7  11
BRANCH   1  30
ATOM     26  C   UNL     1      -0.135   1.473  -0.179  0.00  0.00    +0.044 C 
ATOM     27  C   UNL     1      -0.099  -0.033  -0.163  0.00  0.00    -0.050 A 
ATOM     28  C   UNL     1      -0.094  -0.737  -1.353  0.00  0.00    +0.004 A 
ATOM     29  C   UNL     1      -0.060  -2.119  -1.338  0.00  0.00    +0.006 A 
ATOM     30  C   UNL     1      -0.032  -2.797  -0.134  0.00  0.00    -0.027 A 
ATOM     31  C   UNL     1      -0.036  -2.093   1.056  0.00  0.00    +0.006 A 
ATOM     32  C   UNL     1      -0.065  -0.711   1.041  0.00  0.00    +0.004 A 
ENDBRANCH   1  30
BRANCH   3  33
ATOM     33  C   UNL     1       2.859  -6.793   0.577  0.00  0.00    +0.412 C 
ATOM     34  F   UNL     1       3.054  -6.364   1.895  0.00  0.00    -0.168 F 
ATOM     35  F   UNL     1       2.908  -8.190   0.530  0.00  0.00    -0.168 F 
ATOM     36  F   UNL     1       3.864  -6.263  -0.239  0.00  0.00    -0.168 F 
ENDBRANCH   3  33
TORSDOF 4
