REMARK  Name = ZINC67381680
REMARK  12 active torsions:
REMARK  status: ('A' for Active; 'I' for Inactive)
REMARK    1  A    between atoms: C_1  and  C_2
REMARK    2  A    between atoms: C_2  and  C_4
REMARK    3  A    between atoms: C_2  and  N_15
REMARK    4  A    between atoms: C_8  and  S_10
REMARK    5  A    between atoms: S_10  and  N_13
REMARK    6  A    between atoms: N_13  and  C_14
REMARK    7  A    between atoms: N_18  and  C_19
REMARK    8  A    between atoms: C_19  and  C_20
REMARK    9  A    between atoms: C_20  and  C_22
REMARK   10  A    between atoms: C_20  and  N_27
REMARK   11  A    between atoms: N_27  and  C_28
REMARK   12  A    between atoms: N_27  and  C_29
REMARK                            x       y       z     vdW  Elec       q    Type
REMARK                         _______ _______ _______ _____ _____    ______ ____
ROOT
ATOM      1  N   UNL     1       0.097  -0.872  -1.228  0.00  0.00    -0.293 N 
ATOM      2  C   UNL     1      -0.427  -0.887  -2.469  0.00  0.00    +0.300 C 
ATOM      3  O   UNL     1      -1.593  -0.587  -2.641  0.00  0.00    -0.253 OA
ATOM      4  N   UNL     1       0.341  -1.234  -3.521  0.00  0.00    -0.301 N 
ATOM      5  H   UNL     1       1.027  -1.111  -1.091  0.00  0.00    +0.151 HD
ATOM      6  H   UNL     1       1.271  -1.473  -3.384  0.00  0.00    +0.150 HD
ENDROOT
BRANCH   1   8
ATOM      7  C   UNL     1      -0.748   1.028   0.060  0.00  0.00    +0.033 C 
ATOM      8  C   UNL     1      -0.738  -0.495  -0.085  0.00  0.00    +0.102 C 
BRANCH   8   9
ATOM      9  C   UNL     1      -0.181  -1.115   1.171  0.00  0.00    -0.026 A 
ATOM     10  C   UNL     1       1.186  -1.155   1.374  0.00  0.00    +0.005 A 
ATOM     11  C   UNL     1       1.696  -1.724   2.526  0.00  0.00    +0.002 A 
ATOM     12  C   UNL     1       0.841  -2.252   3.474  0.00  0.00    +0.028 A 
ATOM     13  C   UNL     1      -0.526  -2.211   3.271  0.00  0.00    +0.106 A 
ATOM     14  C   UNL     1      -1.037  -1.638   2.122  0.00  0.00    +0.034 A 
BRANCH  13  15
ATOM     15  S   UNL     1      -1.617  -2.885   4.480  0.00  0.00    +0.058 S 
ATOM     16  O   UNL     1      -2.822  -3.212   3.802  0.00  0.00    -0.153 OA
ATOM     17  O   UNL     1      -0.869  -3.847   5.211  0.00  0.00    -0.153 OA
BRANCH  15  18
ATOM     18  N   UNL     1      -1.985  -1.667   5.540  0.00  0.00    -0.193 NA
ATOM     19  C   UNL     1      -2.739  -0.498   5.080  0.00  0.00    +0.127 C 
ATOM     20  H   UNL     1      -1.701  -1.727   6.466  0.00  0.00    +0.148 HD
ENDBRANCH  15  18
ENDBRANCH  13  15
ENDBRANCH   8   9
ENDBRANCH   1   8
BRANCH   4  21
ATOM     21  C   UNL     1      -0.229  -1.250  -4.870  0.00  0.00    +0.098 C 
BRANCH  21  22
ATOM     22  C   UNL     1       0.870  -1.579  -5.884  0.00  0.00    +0.016 C 
BRANCH  22  23
ATOM     23  C   UNL     1       1.895  -0.474  -5.888  0.00  0.00    +0.093 A 
ATOM     24  C   UNL     1       1.972   0.524  -6.787  0.00  0.00    +0.043 A 
ATOM     25  C   UNL     1       3.075   1.326  -6.414  0.00  0.00    +0.041 A 
ATOM     26  C   UNL     1       3.606   0.770  -5.310  0.00  0.00    +0.195 A 
ATOM     27  O   UNL     1       2.884  -0.317  -4.993  0.00  0.00    -0.469 OA
ENDBRANCH  22  23
BRANCH  22  28
ATOM     28  N   UNL     1       1.515  -2.845  -5.513  0.00  0.00    +0.384 N 
ATOM     29  C   UNL     1       0.510  -3.916  -5.481  0.00  0.00    -0.096 C 
ATOM     30  C   UNL     1       2.551  -3.175  -6.501  0.00  0.00    -0.096 C 
ATOM     31  H   UNL     1       1.937  -2.753  -4.601  0.00  0.00    -0.082 HD
ENDBRANCH  22  28
ENDBRANCH  21  22
ENDBRANCH   4  21
TORSDOF 8
