REMARK  Name = ZINC39626294
REMARK  9 active torsions:
REMARK  status: ('A' for Active; 'I' for Inactive)
REMARK    1  A    between atoms: C_1  and  N_2
REMARK    2  A    between atoms: N_2  and  C_3
REMARK    3  A    between atoms: N_2  and  C_4
REMARK    4  A    between atoms: C_4  and  C_5
REMARK    5  A    between atoms: C_5  and  N_6
REMARK    6  A    between atoms: C_7  and  C_9
REMARK    7  A    between atoms: C_20  and  C_22
REMARK    8  A    between atoms: C_22  and  O_23
REMARK    9  A    between atoms: O_23  and  C_24
REMARK                            x       y       z     vdW  Elec       q    Type
REMARK                         _______ _______ _______ _____ _____    ______ ____
ROOT
ATOM      1  C   UNL     1      -4.377  -4.389  -0.207  0.00  0.00    +0.100 C 
ATOM      2  C   UNL     1      -5.016  -4.184   1.185  0.00  0.00    +0.121 C 
ATOM      3  N   UNL     1      -5.845  -5.394   1.398  0.00  0.00    -0.297 N 
ATOM      4  C   UNL     1      -5.031  -6.502   0.844  0.00  0.00    +0.115 C 
ATOM      5  C   UNL     1      -4.388  -5.911  -0.427  0.00  0.00    -0.004 C 
ATOM      6  C   UNL     1      -2.963  -6.432  -0.588  0.00  0.00    -0.010 C 
ATOM      7  C   UNL     1      -3.003  -7.938  -0.864  0.00  0.00    -0.082 C 
ATOM      8  N   UNL     1      -3.780  -8.194  -2.083  0.00  0.00    +0.379 N 
ATOM      9  C   UNL     1      -5.173  -7.774  -1.886  0.00  0.00    -0.082 C 
ATOM     10  C   UNL     1      -5.225  -6.262  -1.654  0.00  0.00    -0.010 C 
ATOM     11  C   UNL     1      -7.065  -5.469   1.966  0.00  0.00    +0.253 C 
ATOM     12  O   UNL     1      -7.621  -6.542   2.069  0.00  0.00    -0.272 OA
ATOM     13  H   UNL     1      -3.379  -7.675  -2.850  0.00  0.00    -0.086 HD
ATOM     14  H   UNL     1      -3.754  -9.179  -2.296  0.00  0.00    -0.086 HD
ENDROOT
BRANCH   1  16
ATOM     15  N   UNL     1      -2.423  -3.410  -1.365  0.00  0.00    -0.317 N 
ATOM     16  C   UNL     1      -2.964  -3.867  -0.218  0.00  0.00    +0.218 C 
ATOM     17  O   UNL     1      -2.313  -3.859   0.805  0.00  0.00    -0.275 OA
ATOM     18  H   UNL     1      -2.943  -3.417  -2.183  0.00  0.00    +0.149 HD
BRANCH  15  19
ATOM     19  C   UNL     1      -1.048  -2.903  -1.375  0.00  0.00    +0.085 C 
BRANCH  19  20
ATOM     20  C   UNL     1      -0.683  -2.450  -2.790  0.00  0.00    -0.061 C 
BRANCH  20  22
ATOM     21  C   UNL     1       1.088  -1.618  -4.178  0.00  0.00    -0.097 C 
ATOM     22  N   UNL     1       0.696  -1.941  -2.800  0.00  0.00    +0.377 N 
ATOM     23  C   UNL     1       0.777  -0.731  -1.971  0.00  0.00    -0.097 C 
ATOM     24  H   UNL     1       1.317  -2.645  -2.430  0.00  0.00    -0.083 HD
ENDBRANCH  20  22
ENDBRANCH  19  20
ENDBRANCH  15  19
ENDBRANCH   1  16
BRANCH  11  25
ATOM     25  C   UNL     1      -7.739  -4.220   2.473  0.00  0.00    +0.324 C 
BRANCH  25  26
ATOM     26  O   UNL     1      -9.012  -4.557   3.027  0.00  0.00    -0.483 OA
BRANCH  26  27
ATOM     27  C   UNL     1      -9.755  -3.537   3.533  0.00  0.00    +0.123 A 
ATOM     28  C   UNL     1      -9.270  -2.238   3.490  0.00  0.00    +0.046 A 
ATOM     29  C   UNL     1     -10.026  -1.202   4.004  0.00  0.00    +0.005 A 
ATOM     30  C   UNL     1     -11.265  -1.459   4.560  0.00  0.00    +0.020 A 
ATOM     31  C   UNL     1     -11.751  -2.754   4.604  0.00  0.00    +0.044 A 
ATOM     32  C   UNL     1     -11.000  -3.793   4.086  0.00  0.00    +0.065 A 
ATOM     33 CL   UNL     1     -13.308  -3.073   5.304  0.00  0.00    -0.083 Cl
ENDBRANCH  26  27
ENDBRANCH  25  26
ENDBRANCH  11  25
TORSDOF 7
