REMARK  Name = ZINC49549371
REMARK  3 active torsions:
REMARK  status: ('A' for Active; 'I' for Inactive)
REMARK    1  A    between atoms: C_3  and  N_11
REMARK    2  A    between atoms: C_4  and  N_10
REMARK    3  A    between atoms: C_6  and  C_7
REMARK                            x       y       z     vdW  Elec       q    Type
REMARK                         _______ _______ _______ _____ _____    ______ ____
ROOT
ATOM      1  C   UNL     1      -0.009   1.375  -0.201  0.00  0.00    +0.015 A 
ATOM      2  C   UNL     1       1.174   2.081  -0.217  0.00  0.00    +0.026 A 
ATOM      3  C   UNL     1       2.381   1.426  -0.004  0.00  0.00    +0.054 A 
ATOM      4  C   UNL     1       2.398   0.048   0.229  0.00  0.00    +0.047 A 
ATOM      5  C   UNL     1       1.214  -0.664   0.247  0.00  0.00    +0.037 A 
ATOM      6  C   UNL     1       0.001  -0.002   0.032  0.00  0.00    +0.038 A 
ENDROOT
BRANCH   3   7
ATOM      7  N   UNL     1       3.576   2.144  -0.021  0.00  0.00    -0.292 N 
ATOM      8  C   UNL     1       3.552   3.527  -0.118  0.00  0.00    +0.163 A 
ATOM      9  N   UNL     1       2.513   4.327  -0.115  0.00  0.00    -0.229 NA
ATOM     10  C   UNL     1       2.641   5.658  -0.217  0.00  0.00    +0.054 A 
ATOM     11  C   UNL     1       3.916   6.099  -0.324  0.00  0.00    +0.014 A 
ATOM     12  S   UNL     1       4.850   4.589  -0.262  0.00  0.00    -0.057 S 
ATOM     13  C   UNL     1       3.990   7.591  -0.440  0.00  0.00    +0.045 C 
ATOM     14  C   UNL     1       2.556   8.025  -0.819  0.00  0.00    +0.011 C 
ATOM     15  C   UNL     1       1.712   6.870  -0.244  0.00  0.00    +0.056 C 
ATOM     16  H   UNL     1       4.424   1.676   0.034  0.00  0.00    +0.154 HD
ENDBRANCH   3   7
BRANCH   6  17
ATOM     17  C   UNL     1      -1.266  -0.757   0.050  0.00  0.00    +0.242 C 
ATOM     18  O   UNL     1      -1.256  -1.956   0.252  0.00  0.00    -0.270 OA
ATOM     19  N   UNL     1      -2.434  -0.119  -0.158  0.00  0.00    -0.325 N 
ATOM     20  H   UNL     1      -2.442   0.838  -0.320  0.00  0.00    +0.145 HD
ATOM     21  H   UNL     1      -3.268  -0.615  -0.146  0.00  0.00    +0.145 HD
ENDBRANCH   6  17
BRANCH   4  22
ATOM     22  N   UNL     1       3.615  -0.611   0.444  0.00  0.00    -0.357 N 
ATOM     23  H   UNL     1       4.446  -0.112   0.431  0.00  0.00    +0.142 HD
ATOM     24  H   UNL     1       3.626  -1.568   0.606  0.00  0.00    +0.142 HD
ENDBRANCH   4  22
TORSDOF 3
