REMARK  Name = ZINC35970076
REMARK  10 active torsions:
REMARK  status: ('A' for Active; 'I' for Inactive)
REMARK    1  A    between atoms: C_1  and  C_2
REMARK    2  A    between atoms: C_3  and  C_35
REMARK    3  A    between atoms: C_4  and  C_27
REMARK    4  A    between atoms: C_7  and  C_12
REMARK    5  A    between atoms: C_13  and  N_15
REMARK    6  A    between atoms: C_18  and  N_21
REMARK    7  A    between atoms: C_30  and  O_33
REMARK    8  A    between atoms: O_33  and  C_34
REMARK    9  A    between atoms: C_35  and  O_37
REMARK   10  A    between atoms: O_37  and  C_38
REMARK                            x       y       z     vdW  Elec       q    Type
REMARK                         _______ _______ _______ _____ _____    ______ ____
ROOT
ATOM      1  C   UNL     1       0.346   0.713   1.718  0.00  0.00    +0.066 C 
ATOM      2  C   UNL     1       0.330  -0.663   1.104  0.00  0.00    +0.053 C 
ATOM      3  C   UNL     1      -0.872  -1.320   0.925  0.00  0.00    +0.082 C 
ATOM      4  C   UNL     1      -0.837  -2.699   0.305  0.00  0.00    +0.150 C 
ATOM      5  N   UNL     1       0.498  -3.240  -0.065  0.00  0.00    -0.267 N 
ATOM      6  C   UNL     1       0.767  -4.467  -0.639  0.00  0.00    +0.048 C 
ATOM      7  C   UNL     1       2.059  -4.768  -0.898  0.00  0.00    +0.072 C 
ATOM      8  S   UNL     1       2.900  -3.305  -0.325  0.00  0.00    -0.060 S 
ATOM      9  C   UNL     1       1.567  -2.429   0.196  0.00  0.00    +0.166 C 
ATOM     10  N   UNL     1       1.466  -1.232   0.735  0.00  0.00    -0.230 NA
ENDROOT
BRANCH   4  11
ATOM     11  C   UNL     1      -1.474  -3.661   1.275  0.00  0.00    -0.022 A 
ATOM     12  C   UNL     1      -0.796  -4.036   2.421  0.00  0.00    +0.009 A 
ATOM     13  C   UNL     1      -1.378  -4.917   3.311  0.00  0.00    +0.046 A 
ATOM     14  C   UNL     1      -2.643  -5.426   3.055  0.00  0.00    +0.120 A 
ATOM     15  C   UNL     1      -3.321  -5.048   1.905  0.00  0.00    +0.046 A 
ATOM     16  C   UNL     1      -2.737  -4.162   1.021  0.00  0.00    +0.009 A 
BRANCH  14  17
ATOM     17  O   UNL     1      -3.218  -6.294   3.929  0.00  0.00    -0.495 OA
ATOM     18  C   UNL     1      -4.522  -6.777   3.602  0.00  0.00    +0.277 C 
ENDBRANCH  14  17
ENDBRANCH   4  11
BRANCH   6  19
ATOM     19  C   UNL     1      -0.313  -5.412  -0.958  0.00  0.00    +0.091 C 
ATOM     20  C   UNL     1      -0.016  -6.649  -1.398  0.00  0.00    +0.241 C 
ATOM     21  O   UNL     1       1.272  -7.067  -1.429  0.00  0.00    -0.271 OA
BRANCH  20  22
ATOM     22  N   UNL     1      -1.029  -7.495  -1.820  0.00  0.00    -0.298 N 
ATOM     23  C   UNL     1      -2.258  -6.953  -2.414  0.00  0.00    +0.106 C 
ATOM     24  C   UNL     1      -2.488  -7.625  -3.771  0.00  0.00    +0.004 C 
ATOM     25  C   UNL     1      -2.495  -9.145  -3.588  0.00  0.00    -0.066 C 
ATOM     26  C   UNL     1      -1.139  -9.601  -3.047  0.00  0.00    +0.004 C 
ATOM     27  C   UNL     1      -0.891  -8.952  -1.687  0.00  0.00    +0.106 C 
BRANCH  25  28
ATOM     28  N   UNL     1      -2.749  -9.792  -4.883  0.00  0.00    +0.382 N 
ATOM     29  C   UNL     1      -4.047  -9.347  -5.404  0.00  0.00    -0.078 C 
ATOM     30  C   UNL     1      -4.279  -9.955  -6.790  0.00  0.00    -0.019 C 
ATOM     31  C   UNL     1      -4.267 -11.482  -6.679  0.00  0.00    -0.004 C 
ATOM     32  C   UNL     1      -2.938 -11.930  -6.065  0.00  0.00    -0.019 C 
ATOM     33  C   UNL     1      -2.755 -11.249  -4.707  0.00  0.00    -0.078 C 
ATOM     34  H   UNL     1      -2.021  -9.536  -5.534  0.00  0.00    -0.081 HD
ENDBRANCH  25  28
ENDBRANCH  20  22
ENDBRANCH   6  19
BRANCH   3  35
ATOM     35  C   UNL     1      -2.083  -0.729   1.306  0.00  0.00    +0.339 C 
ATOM     36  O   UNL     1      -2.088   0.383   1.804  0.00  0.00    -0.245 OA
BRANCH  35  37
ATOM     37  O   UNL     1      -3.246  -1.392   1.121  0.00  0.00    -0.465 OA
ATOM     38  C   UNL     1      -4.444  -0.730   1.532  0.00  0.00    +0.280 C 
ENDBRANCH  35  37
ENDBRANCH   3  35
TORSDOF 7
