REMARK  Name = ZINC37372270
REMARK  10 active torsions:
REMARK  status: ('A' for Active; 'I' for Inactive)
REMARK    1  A    between atoms: C_1  and  C_2
REMARK    2  A    between atoms: C_2  and  C_3
REMARK    3  A    between atoms: C_2  and  N_4
REMARK    4  A    between atoms: N_4  and  C_5
REMARK    5  A    between atoms: C_5  and  C_6
REMARK    6  A    between atoms: C_6  and  C_8
REMARK    7  A    between atoms: C_6  and  O_22
REMARK    8  A    between atoms: C_8  and  N_9
REMARK    9  A    between atoms: C_12  and  C_16
REMARK   10  A    between atoms: C_12  and  C_17
REMARK                            x       y       z     vdW  Elec       q    Type
REMARK                         _______ _______ _______ _____ _____    ______ ____
ROOT
ATOM      1  N   UNL     1      -4.151  -4.526  -0.349  0.00  0.00    -0.221 N 
ATOM      2  C   UNL     1      -4.916  -4.876   0.704  0.00  0.00    +0.254 C 
ATOM      3  O   UNL     1      -4.608  -4.840   1.876  0.00  0.00    -0.272 OA
ATOM      4  C   UNL     1      -6.240  -5.322   0.118  0.00  0.00    +0.168 C 
ATOM      5  N   UNL     1      -6.051  -5.156  -1.333  0.00  0.00    -0.279 N 
ATOM      6  C   UNL     1      -4.803  -4.683  -1.507  0.00  0.00    +0.310 C 
ATOM      7  O   UNL     1      -4.322  -4.429  -2.593  0.00  0.00    -0.252 OA
ATOM      8  C   UNL     1      -7.378  -4.429   0.617  0.00  0.00    +0.050 C 
ATOM      9  H   UNL     1      -6.699  -5.348  -2.029  0.00  0.00    +0.152 HD
ENDROOT
BRANCH   4  10
ATOM     10  C   UNL     1      -6.511  -6.765   0.456  0.00  0.00    +0.137 A 
ATOM     11  C   UNL     1      -7.211  -7.632  -0.298  0.00  0.00    +0.047 A 
ATOM     12  C   UNL     1      -7.215  -8.865   0.394  0.00  0.00    +0.041 A 
ATOM     13  C   UNL     1      -6.517  -8.679   1.528  0.00  0.00    +0.195 A 
ATOM     14  O   UNL     1      -6.087  -7.407   1.557  0.00  0.00    -0.465 OA
ENDBRANCH   4  10
BRANCH   1  15
ATOM     15  C   UNL     1      -2.777  -4.029  -0.239  0.00  0.00    +0.147 C 
BRANCH  15  16
ATOM     16  C   UNL     1      -2.795  -2.505  -0.105  0.00  0.00    +0.115 C 
BRANCH  16  17
ATOM     17  O   UNL     1      -3.427  -2.143   1.124  0.00  0.00    -0.392 OA
ATOM     18  H   UNL     1      -2.987  -2.493   1.911  0.00  0.00    +0.210 HD
ENDBRANCH  16  17
BRANCH  16  19
ATOM     19  C   UNL     1      -1.359  -1.976  -0.116  0.00  0.00    -0.049 C 
BRANCH  19  20
ATOM     20  N   UNL     1      -1.376  -0.512   0.012  0.00  0.00    +0.382 N 
ATOM     21  H   UNL     1      -1.823  -0.256   0.880  0.00  0.00    -0.085 HD
ATOM     22  H   UNL     1      -1.888  -0.113  -0.760  0.00  0.00    -0.085 HD
BRANCH  20  24
ATOM     23  C   UNL     1      -0.019   1.526   0.010  0.00  0.00    -0.014 C 
ATOM     24  C   UNL     1       0.002  -0.004   0.002  0.00  0.00    -0.078 C 
ATOM     25  C   UNL     1       0.742  -0.511   1.242  0.00  0.00    -0.014 C 
ENDBRANCH  20  24
ENDBRANCH  19  20
ENDBRANCH  16  19
ENDBRANCH  15  16
ENDBRANCH   1  15
TORSDOF 7
