REMARK  Name = ZINC42911004
REMARK  8 active torsions:
REMARK  status: ('A' for Active; 'I' for Inactive)
REMARK    1  A    between atoms: C_1  and  C_2
REMARK    2  A    between atoms: C_2  and  C_28
REMARK    3  A    between atoms: C_4  and  N_10
REMARK    4  A    between atoms: C_6  and  C_8
REMARK    5  A    between atoms: C_6  and  C_9
REMARK    6  A    between atoms: N_13  and  N_14
REMARK    7  A    between atoms: C_15  and  C_17
REMARK    8  A    between atoms: C_17  and  C_18
REMARK                            x       y       z     vdW  Elec       q    Type
REMARK                         _______ _______ _______ _____ _____    ______ ____
ROOT
ATOM      1  N   UNL     1       2.615  -0.819  -2.626  0.00  0.00    -0.295 N 
ATOM      2  C   UNL     1       3.770  -0.334  -3.123  0.00  0.00    +0.316 C 
ATOM      3  O   UNL     1       4.376   0.532  -2.522  0.00  0.00    -0.251 OA
ATOM      4  N   UNL     1       4.255  -0.809  -4.288  0.00  0.00    -0.218 N 
ATOM      5  H   UNL     1       2.133  -1.510  -3.106  0.00  0.00    +0.151 HD
ATOM      6  H   UNL     1       5.086  -0.461  -4.646  0.00  0.00    +0.174 HD
ENDROOT
BRANCH   1  10
ATOM      7  C   UNL     1      -0.019   1.528   0.010  0.00  0.00    -0.010 C 
ATOM      8  C   UNL     1       0.002  -0.004   0.002  0.00  0.00    -0.072 C 
ATOM      9  C   UNL     1       0.573  -0.505  -1.321  0.00  0.00    +0.009 C 
ATOM     10  C   UNL     1       2.088  -0.301  -1.357  0.00  0.00    +0.072 C 
ATOM     11  C   UNL     1       2.703  -1.086  -0.198  0.00  0.00    +0.009 C 
ATOM     12  C   UNL     1       2.147  -0.590   1.133  0.00  0.00    -0.072 C 
ATOM     13  N   UNL     1       0.697  -0.529   1.164  0.00  0.00    +0.386 N 
ATOM     14  C   UNL     1       2.769   0.766   1.481  0.00  0.00    -0.010 C 
ATOM     15  C   UNL     1       2.600  -1.589   2.223  0.00  0.00    -0.010 C 
ATOM     16  C   UNL     1      -1.468  -0.478   0.079  0.00  0.00    -0.010 C 
ATOM     17  H   UNL     1       0.416   0.021   1.982  0.00  0.00    -0.084 HD
ATOM     18  H   UNL     1       0.341  -1.472   1.351  0.00  0.00    -0.084 HD
ENDBRANCH   1  10
BRANCH   4  19
ATOM     19  N   UNL     1       3.557  -1.807  -4.981  0.00  0.00    -0.233 N 
ATOM     20  C   UNL     1       4.041  -2.283  -6.146  0.00  0.00    +0.230 C 
ATOM     21  O   UNL     1       5.080  -1.847  -6.594  0.00  0.00    -0.274 OA
ATOM     22  H   UNL     1       2.726  -2.156  -4.623  0.00  0.00    +0.173 HD
BRANCH  20  23
ATOM     23  C   UNL     1       3.291  -3.356  -6.892  0.00  0.00    +0.104 C 
BRANCH  23  24
ATOM     24  C   UNL     1       4.050  -3.714  -8.171  0.00  0.00    -0.020 C 
ATOM     25  C   UNL     1       4.174  -2.471  -9.055  0.00  0.00    +0.011 C 
ATOM     26  C   UNL     1       4.933  -2.828 -10.334  0.00  0.00    -0.010 C 
ATOM     27  C   UNL     1       4.172  -3.918 -11.091  0.00  0.00    +0.007 C 
ATOM     28  C   UNL     1       4.048  -5.161 -10.208  0.00  0.00    -0.010 C 
ATOM     29  C   UNL     1       3.289  -4.803  -8.928  0.00  0.00    +0.011 C 
ATOM     30  C   UNL     1       5.444  -5.671  -9.847  0.00  0.00    +0.007 C 
ATOM     31  C   UNL     1       6.205  -4.582  -9.089  0.00  0.00    -0.010 C 
ATOM     32  C   UNL     1       6.330  -3.339  -9.973  0.00  0.00    +0.007 C 
ATOM     33  C   UNL     1       5.447  -4.224  -7.810  0.00  0.00    +0.011 C 
ENDBRANCH  23  24
ENDBRANCH  20  23
ENDBRANCH   4  19
TORSDOF 4
