REMARK  Name = ZINC38065654
REMARK  8 active torsions:
REMARK  status: ('A' for Active; 'I' for Inactive)
REMARK    1  A    between atoms: C_1  and  C_2
REMARK    2  A    between atoms: C_2  and  C_3
REMARK    3  A    between atoms: C_3  and  C_5
REMARK    4  A    between atoms: C_3  and  N_6
REMARK    5  A    between atoms: N_6  and  C_7
REMARK    6  A    between atoms: C_7  and  C_8
REMARK    7  A    between atoms: C_7  and  C_9
REMARK    8  A    between atoms: C_7  and  C_16
REMARK                            x       y       z     vdW  Elec       q    Type
REMARK                         _______ _______ _______ _____ _____    ______ ____
ROOT
ATOM      1  C   UNL     1       3.139  -0.840   1.452  0.00  0.00    +0.034 C 
ATOM      2  C   UNL     1       3.150  -0.533   2.951  0.00  0.00    +0.004 C 
ENDROOT
BRANCH   1   3
ATOM      3  C   UNL     1       4.459  -0.437   0.847  0.00  0.00    -0.036 A 
ATOM      4  C   UNL     1       4.495   0.488  -0.179  0.00  0.00    +0.004 A 
ATOM      5  C   UNL     1       5.706   0.858  -0.734  0.00  0.00    +0.000 A 
ATOM      6  C   UNL     1       6.881   0.302  -0.262  0.00  0.00    +0.001 A 
ATOM      7  C   UNL     1       6.846  -0.623   0.764  0.00  0.00    +0.015 A 
ATOM      8  C   UNL     1       5.634  -0.989   1.323  0.00  0.00    +0.020 A 
ATOM      9 BR   UNL     1       5.585  -2.250   2.732  0.00  0.00    -0.050 Br
ENDBRANCH   1   3
BRANCH   1  10
ATOM     10  C   UNL     1       2.919  -2.316   1.243  0.00  0.00    +0.204 C 
ATOM     11  O   UNL     1       3.052  -3.086   2.170  0.00  0.00    -0.277 OA
ATOM     12  N   UNL     1       2.575  -2.780   0.025  0.00  0.00    -0.330 N 
ATOM     13  H   UNL     1       2.469  -2.163  -0.716  0.00  0.00    +0.145 HD
ATOM     14  H   UNL     1       2.433  -3.730  -0.110  0.00  0.00    +0.145 HD
ENDBRANCH   1  10
BRANCH   1  15
ATOM     15  N   UNL     1       2.054  -0.087   0.807  0.00  0.00    +0.393 N 
ATOM     16  H   UNL     1       1.978  -0.369  -0.159  0.00  0.00    -0.084 HD
ATOM     17  H   UNL     1       2.256   0.901   0.855  0.00  0.00    -0.084 HD
BRANCH  15  18
ATOM     18  C   UNL     1       0.788  -0.362   1.499  0.00  0.00    -0.073 C 
ATOM     19  C   UNL     1       0.377  -1.815   1.253  0.00  0.00    -0.014 C 
BRANCH  18  21
ATOM     20  C   UNL     1       0.052   2.019   1.322  0.00  0.00    +0.002 C 
ATOM     21  C   UNL     1      -0.298   0.574   0.965  0.00  0.00    -0.019 C 
ENDBRANCH  18  21
ENDBRANCH  15  18
ENDBRANCH   1  15
TORSDOF 5
