REMARK  Name = ZINC63985768
REMARK  16 active torsions:
REMARK  status: ('A' for Active; 'I' for Inactive)
REMARK    1  A    between atoms: C_1  and  C_2
REMARK    2  A    between atoms: C_2  and  C_3
REMARK    3  A    between atoms: C_3  and  C_5
REMARK    4  A    between atoms: C_3  and  C_6
REMARK    5  A    between atoms: C_6  and  N_7
REMARK    6  A    between atoms: N_7  and  C_8
REMARK    7  A    between atoms: N_14  and  C_29
REMARK    8  A    between atoms: C_15  and  C_25
REMARK    9  A    between atoms: C_17  and  N_19
REMARK   10  A    between atoms: C_20  and  C_22
REMARK   11  A    between atoms: C_22  and  O_23
REMARK   12  A    between atoms: O_23  and  C_24
REMARK   13  A    between atoms: C_25  and  O_27
REMARK   14  A    between atoms: O_27  and  C_28
REMARK   15  A    between atoms: C_29  and  C_30
REMARK   16  A    between atoms: C_30  and  C_31
REMARK                            x       y       z     vdW  Elec       q    Type
REMARK                         _______ _______ _______ _____ _____    ______ ____
ROOT
ATOM      1  C   UNL     1       1.942  -3.876   2.444  0.00  0.00    +0.044 A 
ATOM      2  C   UNL     1       2.708  -4.341   3.513  0.00  0.00    +0.033 A 
ATOM      3  C   UNL     1       2.936  -5.700   3.616  0.00  0.00    +0.015 A 
ATOM      4  C   UNL     1       2.408  -6.568   2.670  0.00  0.00    +0.105 A 
ATOM      5  N   UNL     1       1.682  -6.080   1.665  0.00  0.00    -0.348 N 
ATOM      6  C   UNL     1       1.438  -4.793   1.535  0.00  0.00    +0.107 A 
ATOM      7  N   UNL     1       2.747  -7.891   2.946  0.00  0.00    -0.301 N 
ATOM      8  C   UNL     1       3.563  -7.962   4.160  0.00  0.00    +0.208 C 
ATOM      9  C   UNL     1       3.708  -6.506   4.635  0.00  0.00    +0.138 C 
ATOM     10  H   UNL     1       1.318  -6.695   1.008  0.00  0.00    +0.167 HD
ENDROOT
BRANCH   9  11
ATOM     11  N   UNL     1       3.123  -6.341   5.968  0.00  0.00    -0.304 N 
ATOM     12  C   UNL     1       3.501  -5.309   6.747  0.00  0.00    +0.239 C 
ATOM     13  O   UNL     1       4.326  -4.516   6.344  0.00  0.00    -0.273 OA
ATOM     14  H   UNL     1       2.463  -6.976   6.289  0.00  0.00    +0.149 HD
BRANCH  12  15
ATOM     15  C   UNL     1       2.899  -5.139   8.118  0.00  0.00    +0.255 C 
BRANCH  15  16
ATOM     16  O   UNL     1       3.456  -3.982   8.743  0.00  0.00    -0.374 OA
ATOM     17  C   UNL     1       2.950  -3.729  10.055  0.00  0.00    +0.194 C 
ENDBRANCH  15  16
ENDBRANCH  12  15
ENDBRANCH   9  11
BRANCH   1  18
ATOM     18  N   UNL     1       1.683  -2.507   2.295  0.00  0.00    -0.342 N 
ATOM     19  H   UNL     1       2.040  -1.873   2.937  0.00  0.00    +0.146 HD
BRANCH  18  20
ATOM     20  C   UNL     1       0.872  -2.034   1.171  0.00  0.00    +0.104 C 
BRANCH  20  21
ATOM     21  C   UNL     1       0.742  -0.511   1.242  0.00  0.00    +0.003 C 
ATOM     22  C   UNL     1      -0.042  -0.124   2.497  0.00  0.00    +0.009 C 
BRANCH  21  24
ATOM     23  C   UNL     1      -0.019   1.526   0.010  0.00  0.00    +0.004 C 
ATOM     24  C   UNL     1       0.002  -0.004   0.002  0.00  0.00    +0.001 C 
ENDBRANCH  21  24
ENDBRANCH  20  21
ENDBRANCH  18  20
ENDBRANCH   1  18
BRANCH   8  25
ATOM     25  C   UNL     1       2.867  -8.789   5.210  0.00  0.00    +0.330 C 
ATOM     26  O   UNL     1       1.680  -8.997   5.127  0.00  0.00    -0.249 OA
BRANCH  25  27
ATOM     27  O   UNL     1       3.567  -9.294   6.239  0.00  0.00    -0.467 OA
ATOM     28  C   UNL     1       2.843 -10.069   7.197  0.00  0.00    +0.280 C 
ENDBRANCH  25  27
ENDBRANCH   8  25
BRANCH   7  29
ATOM     29  C   UNL     1       2.344  -9.045   2.138  0.00  0.00    +0.112 C 
BRANCH  29  30
ATOM     30  C   UNL     1       3.399  -9.307   1.062  0.00  0.00    +0.052 C 
BRANCH  30  31
ATOM     31  C   UNL     1       2.985 -10.494   0.231  0.00  0.00    -0.040 C 
ATOM     32  C   UNL     1       2.319 -10.470  -0.946  0.00  0.00    -0.001 A 
ATOM     33  C   UNL     1       1.800  -9.374  -1.773  0.00  0.00    +0.010 A 
ATOM     34  C   UNL     1       1.161  -9.669  -2.928  0.00  0.00    +0.001 A 
ATOM     35  C   UNL     1       0.981 -10.992  -3.353  0.00  0.00    +0.002 A 
ATOM     36  C   UNL     1       1.430 -12.052  -2.648  0.00  0.00    +0.026 A 
ATOM     37  C   UNL     1       2.117 -11.859  -1.418  0.00  0.00    +0.043 A 
ATOM     38  N   UNL     1       2.638 -12.708  -0.566  0.00  0.00    -0.380 N 
ATOM     39  C   UNL     1       3.235 -11.953   0.541  0.00  0.00    +0.144 C 
ATOM     40  H   UNL     1       2.633 -13.674  -0.655  0.00  0.00    +0.160 HD
ENDBRANCH  30  31
ENDBRANCH  29  30
ENDBRANCH   7  29
TORSDOF 12
