REMARK  Name = ZINC67300616
REMARK  7 active torsions:
REMARK  status: ('A' for Active; 'I' for Inactive)
REMARK    1  A    between atoms: C_1  and  O_2
REMARK    2  A    between atoms: O_2  and  C_3
REMARK    3  A    between atoms: C_3  and  C_4
REMARK    4  A    between atoms: C_4  and  N_5
REMARK    5  A    between atoms: C_8  and  C_11
REMARK    6  A    between atoms: C_11  and  N_12
REMARK    7  A    between atoms: C_13  and  C_15
REMARK                            x       y       z     vdW  Elec       q    Type
REMARK                         _______ _______ _______ _____ _____    ______ ____
ROOT
ATOM      1  N   UNL     1      -3.482  -6.226  -2.586  0.00  0.00    -0.315 N 
ATOM      2  C   UNL     1      -3.709  -7.477  -3.034  0.00  0.00    +0.216 C 
ATOM      3  O   UNL     1      -2.846  -8.323  -2.932  0.00  0.00    -0.276 OA
ATOM      4  H   UNL     1      -4.172  -5.549  -2.668  0.00  0.00    +0.149 HD
ENDROOT
BRANCH   2   5
ATOM      5  C   UNL     1      -5.034  -7.823  -3.662  0.00  0.00    +0.075 C 
ATOM      6  C   UNL     1      -6.156  -7.583  -2.649  0.00  0.00    +0.015 C 
ATOM      7  C   UNL     1      -7.503  -7.924  -3.291  0.00  0.00    +0.036 C 
ATOM      8  C   UNL     1      -7.502  -9.382  -3.738  0.00  0.00    +0.112 C 
ATOM      9  C   UNL     1      -6.373  -9.643  -4.729  0.00  0.00    +0.036 C 
ATOM     10  C   UNL     1      -5.031  -9.295  -4.081  0.00  0.00    +0.015 C 
ATOM     11  C   UNL     1      -7.379 -10.300  -2.544  0.00  0.00    +0.244 C 
ATOM     12  O   UNL     1      -6.462 -10.357  -1.754  0.00  0.00    -0.273 OA
ATOM     13  N   UNL     1      -8.506 -11.042  -2.542  0.00  0.00    -0.238 N 
ATOM     14  C   UNL     1      -9.311 -10.719  -3.562  0.00  0.00    +0.307 C 
ATOM     15  O   UNL     1     -10.384 -11.250  -3.770  0.00  0.00    -0.252 OA
ATOM     16  N   UNL     1      -8.798  -9.739  -4.330  0.00  0.00    -0.285 N 
ATOM     17  H   UNL     1      -8.707 -11.726  -1.884  0.00  0.00    +0.159 HD
ATOM     18  H   UNL     1      -9.205  -9.346  -5.118  0.00  0.00    +0.151 HD
ENDBRANCH   2   5
BRANCH   1  19
ATOM     19  C   UNL     1      -2.193  -5.889  -1.976  0.00  0.00    +0.105 C 
BRANCH  19  23
ATOM     20  N   UNL     1      -0.780  -2.557  -1.119  0.00  0.00    +0.381 N 
ATOM     21  C   UNL     1      -1.319  -2.322  -2.476  0.00  0.00    -0.078 C 
ATOM     22  C   UNL     1      -2.263  -3.496  -2.797  0.00  0.00    -0.016 C 
ATOM     23  C   UNL     1      -2.197  -4.417  -1.557  0.00  0.00    -0.012 C 
ATOM     24  C   UNL     1      -0.846  -4.026  -0.906  0.00  0.00    -0.074 C 
ATOM     25  H   UNL     1      -1.343  -2.080  -0.432  0.00  0.00    -0.082 HD
BRANCH  20  26
ATOM     26  C   UNL     1       0.613  -2.097  -1.041  0.00  0.00    -0.050 C 
BRANCH  26  27
ATOM     27  C   UNL     1       0.652  -0.570  -1.138  0.00  0.00    +0.141 C 
BRANCH  27  29
ATOM     28  C   UNL     1      -0.017   1.425   0.010  0.00  0.00    +0.193 C 
ATOM     29  O   UNL     1       0.002  -0.004   0.002  0.00  0.00    -0.385 OA
ENDBRANCH  27  29
ENDBRANCH  26  27
ENDBRANCH  20  26
ENDBRANCH  19  23
ENDBRANCH   1  19
TORSDOF 6
