REMARK  Name = ZINC13614998
REMARK  6 active torsions:
REMARK  status: ('A' for Active; 'I' for Inactive)
REMARK    1  A    between atoms: C_1  and  C_2
REMARK    2  A    between atoms: C_4  and  C_8
REMARK    3  A    between atoms: N_5  and  C_7
REMARK    4  A    between atoms: C_14  and  C_16
REMARK    5  A    between atoms: N_22  and  S_23
REMARK    6  A    between atoms: S_23  and  C_26
REMARK                            x       y       z     vdW  Elec       q    Type
REMARK                         _______ _______ _______ _____ _____    ______ ____
ROOT
ATOM      1  C   UNL     1       5.555  -0.433   0.704  0.00  0.00    +0.268 A 
ATOM      2  N   UNL     1       5.385   0.869   0.677  0.00  0.00    -0.104 NA
ATOM      3  N   UNL     1       4.130   1.133   0.574  0.00  0.00    -0.092 NA
ATOM      4  C   UNL     1       3.449   0.013   0.540  0.00  0.00    +0.315 A 
ATOM      5  O   UNL     1       4.331  -1.000   0.618  0.00  0.00    -0.403 OA
ATOM      6  N   UNL     1       2.072  -0.105   0.437  0.00  0.00    -0.237 N 
ATOM      7  C   UNL     1       1.304   1.000   0.366  0.00  0.00    +0.239 C 
ATOM      8  O   UNL     1       1.818   2.098   0.393  0.00  0.00    -0.274 OA
ATOM      9  H   UNL     1       1.661  -0.984   0.415  0.00  0.00    +0.159 HD
ENDROOT
BRANCH   1  13
ATOM     10  C   UNL     1       9.038  -4.112   1.014  0.00  0.00    +0.067 C 
ATOM     11  C   UNL     1       8.390  -2.754   0.947  0.00  0.00    +0.061 A 
ATOM     12  C   UNL     1       7.021  -2.511   0.845  0.00  0.00    +0.057 A 
ATOM     13  C   UNL     1       6.840  -1.143   0.810  0.00  0.00    +0.125 A 
ATOM     14  N   UNL     1       8.078  -0.573   0.897  0.00  0.00    -0.262 N 
ATOM     15  N   UNL     1       9.019  -1.606   0.981  0.00  0.00    -0.176 NA
ATOM     16  C   UNL     1       8.368   0.863   0.902  0.00  0.00    +0.173 C 
ENDBRANCH   1  13
BRANCH   7  17
ATOM     17  C   UNL     1      -0.193   0.871   0.254  0.00  0.00    +0.166 C 
ATOM     18  C   UNL     1      -0.857   1.512   1.477  0.00  0.00    +0.030 C 
ATOM     19  C   UNL     1      -2.379   1.500   1.287  0.00  0.00    +0.003 C 
ATOM     20  C   UNL     1      -2.749   2.319   0.048  0.00  0.00    +0.017 C 
ATOM     21  C   UNL     1      -2.103   1.686  -1.188  0.00  0.00    +0.110 C 
ATOM     22  N   UNL     1      -0.658   1.562  -0.957  0.00  0.00    -0.164 NA
BRANCH  22  23
ATOM     23  S   UNL     1       0.427   2.189  -2.039  0.00  0.00    +0.068 S 
ATOM     24  O   UNL     1       1.640   1.471  -1.860  0.00  0.00    -0.152 OA
ATOM     25  O   UNL     1      -0.241   2.255  -3.292  0.00  0.00    -0.152 OA
BRANCH  23  26
ATOM     26  C   UNL     1       0.749   3.851  -1.551  0.00  0.00    +0.144 A 
ATOM     27  C   UNL     1       1.786   4.343  -0.831  0.00  0.00    +0.038 A 
ATOM     28  C   UNL     1       1.837   5.700  -0.569  0.00  0.00    +0.030 A 
ATOM     29  C   UNL     1       0.839   6.496  -1.030  0.00  0.00    +0.080 A 
ATOM     30  S   UNL     1      -0.211   5.322  -1.871  0.00  0.00    -0.057 S 
ATOM     31 CL   UNL     1       0.637   8.210  -0.850  0.00  0.00    -0.076 Cl
ENDBRANCH  23  26
ENDBRANCH  22  23
ENDBRANCH   7  17
TORSDOF 4
