REMARK  Name = ZINC64055387
REMARK  10 active torsions:
REMARK  status: ('A' for Active; 'I' for Inactive)
REMARK    1  A    between atoms: C_1  and  C_2
REMARK    2  A    between atoms: C_2  and  C_3
REMARK    3  A    between atoms: C_5  and  C_28
REMARK    4  A    between atoms: C_6  and  C_11
REMARK    5  A    between atoms: C_11  and  S_12
REMARK    6  A    between atoms: S_12  and  C_13
REMARK    7  A    between atoms: C_17  and  C_19
REMARK    8  A    between atoms: C_28  and  O_30
REMARK    9  A    between atoms: O_30  and  C_31
REMARK   10  A    between atoms: C_31  and  C_32
REMARK                            x       y       z     vdW  Elec       q    Type
REMARK                         _______ _______ _______ _____ _____    ______ ____
ROOT
ATOM      1  C   UNL     1       0.490  -4.279  -1.960  0.00  0.00    +0.125 C 
ENDROOT
BRANCH   1   4
ATOM      2  C   UNL     1       0.655  -0.498  -1.225  0.00  0.00    +0.113 C 
ATOM      3  C   UNL     1       0.814  -1.998  -1.073  0.00  0.00    +0.074 C 
ATOM      4  C   UNL     1       0.352  -2.783  -2.070  0.00  0.00    +0.034 C 
ATOM      5  N   UNL     1      -0.239  -2.242  -3.176  0.00  0.00    -0.272 N 
ATOM      6  C   UNL     1      -0.405  -0.927  -3.362  0.00  0.00    +0.304 C 
ATOM      7  O   UNL     1      -0.943  -0.540  -4.381  0.00  0.00    -0.253 OA
ATOM      8  N   UNL     1       0.004  -0.018  -2.455  0.00  0.00    -0.292 N 
ATOM      9  H   UNL     1      -0.556  -2.846  -3.867  0.00  0.00    +0.156 HD
ATOM     10  H   UNL     1      -0.127   0.930  -2.610  0.00  0.00    +0.151 HD
BRANCH   2  12
ATOM     11  C   UNL     1      -0.155   1.543  -0.034  0.00  0.00    +0.006 C 
ATOM     12  C   UNL     1      -0.156   0.013  -0.032  0.00  0.00    +0.024 C 
ENDBRANCH   2  12
BRANCH   3  13
ATOM     13  C   UNL     1       1.426  -2.556   0.073  0.00  0.00    +0.338 C 
ATOM     14  O   UNL     1       2.639  -2.551   0.179  0.00  0.00    -0.245 OA
BRANCH  13  15
ATOM     15  O   UNL     1       0.666  -3.094   1.050  0.00  0.00    -0.462 OA
BRANCH  15  16
ATOM     16  C   UNL     1       1.351  -3.639   2.179  0.00  0.00    +0.229 C 
ATOM     17  C   UNL     1       0.332  -4.199   3.173  0.00  0.00    +0.048 C 
ENDBRANCH  15  16
ENDBRANCH  13  15
ENDBRANCH   3  13
ENDBRANCH   1   4
BRANCH   1  18
ATOM     18  S   UNL     1      -1.120  -5.007  -1.551  0.00  0.00    -0.090 S 
BRANCH  18  19
ATOM     19  C   UNL     1      -0.786  -6.787  -1.456  0.00  0.00    +0.339 C 
ATOM     20  N   UNL     1      -0.236  -7.276  -2.732  0.00  0.00    -0.219 N 
ATOM     21  N   UNL     1       1.038  -7.775  -2.425  0.00  0.00    -0.145 NA
ATOM     22  C   UNL     1       1.282  -7.633  -1.149  0.00  0.00    +0.238 C 
ATOM     23  O   UNL     1       0.244  -7.053  -0.493  0.00  0.00    -0.443 OA
ATOM     24  H   UNL     1      -0.666  -7.258  -3.601  0.00  0.00    +0.173 HD
BRANCH  22  25
ATOM     25  C   UNL     1       2.474  -8.034  -0.530  0.00  0.00    +0.043 C 
ATOM     26  C   UNL     1       3.581  -8.630  -1.136  0.00  0.00    +0.008 A 
ATOM     27  C   UNL     1       3.852  -9.001  -2.470  0.00  0.00    +0.010 A 
ATOM     28  C   UNL     1       5.042  -9.576  -2.780  0.00  0.00    +0.001 A 
ATOM     29  C   UNL     1       6.015  -9.815  -1.807  0.00  0.00    +0.002 A 
ATOM     30  C   UNL     1       5.822  -9.484  -0.506  0.00  0.00    +0.026 A 
ATOM     31  C   UNL     1       4.602  -8.879  -0.106  0.00  0.00    +0.043 A 
ATOM     32  N   UNL     1       4.177  -8.471   1.073  0.00  0.00    -0.380 N 
ATOM     33  C   UNL     1       2.832  -7.906   0.934  0.00  0.00    +0.154 C 
ATOM     34  H   UNL     1       4.678  -8.531   1.902  0.00  0.00    +0.160 HD
ENDBRANCH  22  25
ENDBRANCH  18  19
ENDBRANCH   1  18
TORSDOF 8
