REMARK  Name = ZINC36772281
REMARK  12 active torsions:
REMARK  status: ('A' for Active; 'I' for Inactive)
REMARK    1  A    between atoms: C_1  and  C_2
REMARK    2  A    between atoms: C_2  and  O_3
REMARK    3  A    between atoms: O_3  and  C_4
REMARK    4  A    between atoms: C_4  and  C_6
REMARK    5  A    between atoms: C_10  and  N_11
REMARK    6  A    between atoms: C_12  and  C_14
REMARK    7  A    between atoms: C_14  and  S_15
REMARK    8  A    between atoms: S_15  and  C_16
REMARK    9  A    between atoms: C_22  and  C_28
REMARK   10  A    between atoms: C_22  and  C_29
REMARK   11  A    between atoms: C_24  and  C_26
REMARK   12  A    between atoms: C_24  and  C_27
REMARK                            x       y       z     vdW  Elec       q    Type
REMARK                         _______ _______ _______ _____ _____    ______ ____
ROOT
ATOM      1  C   UNL     1       1.449  -2.344  -2.516  0.00  0.00    +0.091 A 
ATOM      2  C   UNL     1       2.868  -2.619  -2.532  0.00  0.00    -0.024 A 
ATOM      3  C   UNL     1       3.335  -3.112  -3.703  0.00  0.00    -0.016 A 
ATOM      4  S   UNL     1       1.905  -3.211  -4.738  0.00  0.00    -0.079 S 
ATOM      5  C   UNL     1       0.742  -2.622  -3.680  0.00  0.00    +0.086 A 
ATOM      6  C   UNL     1       4.750  -3.470  -4.012  0.00  0.00    -0.041 C 
ATOM      7  N   UNL     1       5.603  -3.437  -2.824  0.00  0.00    +0.389 N 
ATOM      8  C   UNL     1       4.928  -3.506  -1.535  0.00  0.00    -0.069 C 
ATOM      9  C   UNL     1       3.853  -2.421  -1.391  0.00  0.00    +0.024 C 
ATOM     10  C   UNL     1       4.294  -4.882  -1.317  0.00  0.00    -0.010 C 
ATOM     11  C   UNL     1       5.973  -3.286  -0.426  0.00  0.00    -0.010 C 
ATOM     12  C   UNL     1       5.293  -2.454  -5.036  0.00  0.00    -0.005 C 
ATOM     13  C   UNL     1       4.797  -4.861  -4.659  0.00  0.00    -0.005 C 
ATOM     14  H   UNL     1       6.272  -4.206  -2.882  0.00  0.00    -0.084 HD
ATOM     15  H   UNL     1       6.162  -2.582  -2.850  0.00  0.00    -0.084 HD
ENDROOT
BRANCH   5  16
ATOM     16  N   UNL     1      -0.614  -2.451  -3.912  0.00  0.00    -0.279 N 
ATOM     17  C   UNL     1      -1.139  -2.775  -5.110  0.00  0.00    +0.228 C 
ATOM     18  O   UNL     1      -0.425  -3.216  -5.986  0.00  0.00    -0.275 OA
ATOM     19  H   UNL     1      -1.185  -2.098  -3.212  0.00  0.00    +0.155 HD
BRANCH  17  20
ATOM     20  C   UNL     1      -2.613  -2.589  -5.362  0.00  0.00    +0.172 C 
BRANCH  20  21
ATOM     21  S   UNL     1      -3.008  -3.111  -7.054  0.00  0.00    -0.088 S 
BRANCH  21  22
ATOM     22  C   UNL     1      -4.743  -2.836  -7.191  0.00  0.00    +0.160 A 
ATOM     23  N   UNL     1      -5.587  -2.358  -6.297  0.00  0.00    -0.133 NA
ATOM     24  N   UNL     1      -6.918  -2.223  -6.616  0.00  0.00    -0.125 NA
ATOM     25  C   UNL     1      -7.345  -2.572  -7.814  0.00  0.00    +0.180 A 
ATOM     26  S   UNL     1      -5.828  -3.123  -8.581  0.00  0.00    -0.025 S 
ATOM     27  N   UNL     1      -8.630  -2.521  -8.341  0.00  0.00    -0.336 N 
ATOM     28  H   UNL     1      -9.363  -2.189  -7.799  0.00  0.00    +0.144 HD
ATOM     29  H   UNL     1      -8.793  -2.816  -9.250  0.00  0.00    +0.144 HD
ENDBRANCH  21  22
ENDBRANCH  20  21
ENDBRANCH  17  20
ENDBRANCH   5  16
BRANCH   1  30
ATOM     30  C   UNL     1       0.776  -1.800  -1.335  0.00  0.00    +0.342 C 
ATOM     31  O   UNL     1       0.312  -2.552  -0.499  0.00  0.00    -0.245 OA
BRANCH  30  32
ATOM     32  O   UNL     1       0.671  -0.465  -1.174  0.00  0.00    -0.461 OA
BRANCH  32  34
ATOM     33  C   UNL     1      -0.019   1.526   0.010  0.00  0.00    +0.048 C 
ATOM     34  C   UNL     1       0.002  -0.004   0.002  0.00  0.00    +0.229 C 
ENDBRANCH  32  34
ENDBRANCH  30  32
ENDBRANCH   1  30
TORSDOF 7
