REMARK  Name = ZINC08728516
REMARK  8 active torsions:
REMARK  status: ('A' for Active; 'I' for Inactive)
REMARK    1  A    between atoms: C_1  and  C_2
REMARK    2  A    between atoms: C_2  and  C_4
REMARK    3  A    between atoms: C_2  and  N_56
REMARK    4  A    between atoms: C_7  and  S_10
REMARK    5  A    between atoms: S_10  and  N_13
REMARK    6  A    between atoms: C_14  and  C_15
REMARK    7  A    between atoms: C_14  and  N_56
REMARK    8  A    between atoms: C_26  and  C_28
REMARK                            x       y       z     vdW  Elec       q    Type
REMARK                         _______ _______ _______ _____ _____    ______ ____
ROOT
ATOM      1  C   UNL     1      -1.919  -0.592  -1.352  0.00  0.00    +0.016 C 
ENDROOT
BRANCH   1   2
ATOM      2  C   UNL     1      -3.336  -1.100  -1.298  0.00  0.00    +0.203 C 
ATOM      3  O   UNL     1      -3.810  -1.465  -0.243  0.00  0.00    -0.277 OA
ATOM      4  N   UNL     1      -4.078  -1.149  -2.423  0.00  0.00    -0.259 N 
ATOM      5  C   UNL     1      -5.428  -1.536  -2.387  0.00  0.00    +0.079 A 
ATOM      6  C   UNL     1      -5.947  -2.143  -1.254  0.00  0.00    +0.027 A 
ATOM      7  C   UNL     1      -7.278  -2.518  -1.222  0.00  0.00    +0.002 A 
ATOM      8  C   UNL     1      -8.089  -2.288  -2.318  0.00  0.00    +0.004 A 
ATOM      9  C   UNL     1      -7.576  -1.685  -3.451  0.00  0.00    +0.047 A 
ATOM     10  C   UNL     1      -6.242  -1.305  -3.492  0.00  0.00    +0.142 A 
ATOM     11  O   UNL     1      -5.744  -0.719  -4.613  0.00  0.00    -0.488 OA
ATOM     12  C   UNL     1      -4.540   0.041  -4.488  0.00  0.00    +0.256 C 
ATOM     13  C   UNL     1      -3.502  -0.794  -3.731  0.00  0.00    +0.149 C 
BRANCH  13  14
ATOM     14  C   UNL     1      -3.193  -2.046  -4.511  0.00  0.00    -0.023 A 
ATOM     15  C   UNL     1      -4.067  -3.116  -4.475  0.00  0.00    +0.005 A 
ATOM     16  C   UNL     1      -3.786  -4.263  -5.194  0.00  0.00    +0.000 A 
ATOM     17  C   UNL     1      -2.626  -4.344  -5.940  0.00  0.00    +0.000 A 
ATOM     18  C   UNL     1      -1.749  -3.276  -5.972  0.00  0.00    +0.000 A 
ATOM     19  C   UNL     1      -2.032  -2.127  -5.257  0.00  0.00    +0.005 A 
ENDBRANCH  13  14
ENDBRANCH   1   2
BRANCH   1  20
ATOM     20  N   UNL     1      -1.375  -0.528   0.018  0.00  0.00    +0.389 N 
ATOM     21  H   UNL     1      -1.953   0.107   0.582  0.00  0.00    -0.084 HD
ATOM     22  H   UNL     1      -1.393  -1.467   0.433  0.00  0.00    -0.084 HD
BRANCH  20  24
ATOM     23  C   UNL     1       0.010   1.498  -0.007  0.00  0.00    -0.009 C 
ATOM     24  C   UNL     1       0.014  -0.032  -0.004  0.00  0.00    -0.043 C 
BRANCH  24  25
ATOM     25  C   UNL     1       0.737  -0.531   1.220  0.00  0.00    -0.062 A 
ATOM     26  C   UNL     1       0.089  -0.559   2.441  0.00  0.00    +0.004 A 
ATOM     27  C   UNL     1       0.750  -1.021   3.564  0.00  0.00    +0.029 A 
ATOM     28  C   UNL     1       2.062  -1.445   3.467  0.00  0.00    +0.105 A 
ATOM     29  C   UNL     1       2.712  -1.411   2.248  0.00  0.00    +0.029 A 
ATOM     30  C   UNL     1       2.049  -0.954   1.124  0.00  0.00    +0.004 A 
BRANCH  28  31
ATOM     31  S   UNL     1       2.908  -2.028   4.899  0.00  0.00    +0.056 S 
ATOM     32  O   UNL     1       1.909  -2.472   5.808  0.00  0.00    -0.153 OA
ATOM     33  O   UNL     1       3.950  -2.877   4.439  0.00  0.00    -0.153 OA
BRANCH  31  34
ATOM     34  N   UNL     1       3.639  -0.720   5.603  0.00  0.00    -0.204 NA
ATOM     35  H   UNL     1       3.775  -0.698   6.563  0.00  0.00    +0.144 HD
ATOM     36  H   UNL     1       3.932   0.025   5.055  0.00  0.00    +0.144 HD
ENDBRANCH  31  34
ENDBRANCH  28  31
ENDBRANCH  24  25
ENDBRANCH  20  24
ENDBRANCH   1  20
TORSDOF 7
