REMARK  Name = ZINC66246735
REMARK  8 active torsions:
REMARK  status: ('A' for Active; 'I' for Inactive)
REMARK    1  A    between atoms: C_1  and  C_2
REMARK    2  A    between atoms: C_2  and  C_3
REMARK    3  A    between atoms: C_2  and  O_4
REMARK    4  A    between atoms: O_4  and  C_5
REMARK    5  A    between atoms: C_8  and  C_15
REMARK    6  A    between atoms: C_9  and  C_11
REMARK    7  A    between atoms: C_15  and  N_16
REMARK    8  A    between atoms: N_18  and  C_19
REMARK                            x       y       z     vdW  Elec       q    Type
REMARK                         _______ _______ _______ _____ _____    ______ ____
ROOT
ATOM      1  C   UNL     1      -1.718  -1.729  -0.458  0.00  0.00    +0.121 A 
ATOM      2  C   UNL     1      -0.637  -2.496  -0.867  0.00  0.00    +0.046 A 
ATOM      3  C   UNL     1      -0.846  -3.757  -1.390  0.00  0.00    +0.009 A 
ATOM      4  C   UNL     1      -2.131  -4.255  -1.506  0.00  0.00    -0.016 A 
ATOM      5  C   UNL     1      -3.209  -3.492  -1.099  0.00  0.00    +0.063 A 
ATOM      6  C   UNL     1      -3.005  -2.232  -0.570  0.00  0.00    +0.058 A 
ENDROOT
BRANCH   5   7
ATOM      7  C   UNL     1      -4.608  -4.037  -1.227  0.00  0.00    +0.418 C 
ATOM      8  F   UNL     1      -5.523  -3.090  -0.754  0.00  0.00    -0.166 F 
ATOM      9  F   UNL     1      -4.879  -4.316  -2.571  0.00  0.00    -0.166 F 
ATOM     10  F   UNL     1      -4.722  -5.212  -0.476  0.00  0.00    -0.166 F 
ENDBRANCH   5   7
BRANCH   1  11
ATOM     11  O   UNL     1      -1.515  -0.488   0.058  0.00  0.00    -0.489 OA
BRANCH  11  13
ATOM     12  C   UNL     1      -2.216   1.217   1.621  0.00  0.00    +0.051 C 
ATOM     13  C   UNL     1      -2.659   0.197   0.570  0.00  0.00    +0.167 C 
ATOM     14  C   UNL     1      -3.375   0.921  -0.572  0.00  0.00    +0.051 C 
ENDBRANCH  11  13
ENDBRANCH   1  11
BRANCH   4  15
ATOM     15  C   UNL     1      -2.356  -5.631  -2.078  0.00  0.00    +0.151 C 
BRANCH  15  16
ATOM     16  N   UNL     1      -2.759  -5.518  -3.481  0.00  0.00    -0.354 N 
ATOM     17  C   UNL     1      -3.021  -6.650  -4.215  0.00  0.00    +0.169 C 
ATOM     18  N   UNL     1      -3.380  -6.549  -5.464  0.00  0.00    -0.355 N 
ATOM     19  N   UNL     1      -2.905  -7.890  -3.632  0.00  0.00    -0.371 N 
ATOM     20  H   UNL     1      -2.842  -4.643  -3.893  0.00  0.00    +0.163 HD
ATOM     21  H   UNL     1      -2.560  -7.970  -2.729  0.00  0.00    +0.159 HD
ATOM     22  H   UNL     1      -3.167  -8.684  -4.123  0.00  0.00    +0.159 HD
ATOM     23  H   UNL     1      -3.390  -5.681  -5.897  0.00  0.00    +0.163 HD
BRANCH  18  24
ATOM     24  C   UNL     1      -3.769  -7.746  -6.214  0.00  0.00    +0.082 C 
ATOM     25  C   UNL     1      -4.712  -7.559  -7.404  0.00  0.00    +0.026 C 
ATOM     26  C   UNL     1      -5.227  -8.199  -6.114  0.00  0.00    +0.026 C 
ENDBRANCH  18  24
ENDBRANCH  15  16
ENDBRANCH   4  15
TORSDOF 6
