REMARK  Name = ZINC03306104
REMARK  9 active torsions:
REMARK  status: ('A' for Active; 'I' for Inactive)
REMARK    1  A    between atoms: C_1  and  C_2
REMARK    2  A    between atoms: C_3  and  N_15
REMARK    3  A    between atoms: N_6  and  C_9
REMARK    4  A    between atoms: N_7  and  C_8
REMARK    5  A    between atoms: C_16  and  C_18
REMARK    6  A    between atoms: C_22  and  N_23
REMARK    7  A    between atoms: C_24  and  C_26
REMARK    8  A    between atoms: C_26  and  N_27
REMARK    9  A    between atoms: N_27  and  C_28
REMARK                            x       y       z     vdW  Elec       q    Type
REMARK                         _______ _______ _______ _____ _____    ______ ____
ROOT
ATOM      1  C   UNL     1       0.584  -0.316  -4.849  0.00  0.00    +0.069 A 
ATOM      2  C   UNL     1       1.651   0.529  -5.356  0.00  0.00    -0.023 A 
ATOM      3  C   UNL     1       1.448   0.981  -6.613  0.00  0.00    -0.004 A 
ATOM      4  S   UNL     1      -0.112   0.298  -7.089  0.00  0.00    -0.077 S 
ATOM      5  C   UNL     1      -0.488  -0.558  -5.693  0.00  0.00    +0.084 A 
ATOM      6  C   UNL     1       2.357   1.866  -7.408  0.00  0.00    +0.043 C 
ATOM      7  C   UNL     1       3.380   2.494  -6.449  0.00  0.00    +0.005 C 
ATOM      8  C   UNL     1       3.967   1.393  -5.561  0.00  0.00    +0.005 C 
ATOM      9  C   UNL     1       2.905   0.896  -4.577  0.00  0.00    +0.037 C 
ENDROOT
BRANCH   1  11
ATOM     10  N   UNL     1       0.120  -0.218  -2.458  0.00  0.00    -0.276 N 
ATOM     11  C   UNL     1       0.641  -0.892  -3.502  0.00  0.00    +0.251 C 
ATOM     12  O   UNL     1       1.158  -1.980  -3.327  0.00  0.00    -0.270 OA
ATOM     13  H   UNL     1      -0.228   0.679  -2.584  0.00  0.00    +0.155 HD
BRANCH  10  16
ATOM     14  C   UNL     1      -2.433  -0.670  -0.818  0.00  0.00    +0.067 C 
ATOM     15  C   UNL     1      -1.022  -1.032  -0.431  0.00  0.00    +0.059 A 
ATOM     16  C   UNL     1       0.081  -0.816  -1.182  0.00  0.00    +0.121 A 
ATOM     17  C   UNL     1       1.227  -1.319  -0.424  0.00  0.00    +0.293 A 
ATOM     18  O   UNL     1       2.393  -1.299  -0.774  0.00  0.00    -0.264 OA
ATOM     19  N   UNL     1       0.746  -1.807   0.738  0.00  0.00    -0.216 N 
ATOM     20  N   UNL     1      -0.642  -1.629   0.742  0.00  0.00    -0.282 N 
ATOM     21  C   UNL     1      -1.546  -2.020   1.827  0.00  0.00    +0.171 C 
BRANCH  19  22
ATOM     22  C   UNL     1       1.502  -2.386   1.762  0.00  0.00    +0.067 A 
ATOM     23  C   UNL     1       1.106  -3.594   2.323  0.00  0.00    +0.028 A 
ATOM     24  C   UNL     1       1.855  -4.163   3.333  0.00  0.00    +0.002 A 
ATOM     25  C   UNL     1       2.999  -3.533   3.787  0.00  0.00    +0.000 A 
ATOM     26  C   UNL     1       3.397  -2.330   3.231  0.00  0.00    +0.002 A 
ATOM     27  C   UNL     1       2.655  -1.759   2.215  0.00  0.00    +0.028 A 
ENDBRANCH  19  22
ENDBRANCH  10  16
ENDBRANCH   1  11
BRANCH   5  28
ATOM     28  N   UNL     1      -1.614  -1.328  -5.443  0.00  0.00    -0.281 N 
ATOM     29  C   UNL     1      -2.567  -1.455  -6.387  0.00  0.00    +0.201 C 
ATOM     30  O   UNL     1      -2.440  -0.897  -7.456  0.00  0.00    -0.278 OA
ATOM     31  H   UNL     1      -1.716  -1.774  -4.588  0.00  0.00    +0.155 HD
BRANCH  29  32
ATOM     32  C   UNL     1      -3.791  -2.292  -6.114  0.00  0.00    +0.016 C 
BRANCH  32  33
ATOM     33  N   UNL     1      -4.670  -2.271  -7.291  0.00  0.00    +0.387 N 
ATOM     34  H   UNL     1      -4.949  -1.321  -7.486  0.00  0.00    -0.085 HD
ATOM     35  H   UNL     1      -4.176  -2.647  -8.087  0.00  0.00    -0.085 HD
BRANCH  33  36
ATOM     36  C   UNL     1      -5.862  -3.087  -7.026  0.00  0.00    -0.071 C 
ATOM     37  C   UNL     1      -6.076  -4.330  -7.892  0.00  0.00    -0.017 C 
ATOM     38  C   UNL     1      -6.962  -3.098  -8.089  0.00  0.00    -0.017 C 
ENDBRANCH  33  36
ENDBRANCH  32  33
ENDBRANCH  29  32
ENDBRANCH   5  28
TORSDOF 7
