REMARK  Name = ZINC39695663
REMARK  8 active torsions:
REMARK  status: ('A' for Active; 'I' for Inactive)
REMARK    1  A    between atoms: C_1  and  C_2
REMARK    2  A    between atoms: C_2  and  N_3
REMARK    3  A    between atoms: C_7  and  C_9
REMARK    4  A    between atoms: C_9  and  N_10
REMARK    5  A    between atoms: C_11  and  C_13
REMARK    6  A    between atoms: C_24  and  C_26
REMARK    7  A    between atoms: C_26  and  C_27
REMARK    8  A    between atoms: C_30  and  C_33
REMARK                            x       y       z     vdW  Elec       q    Type
REMARK                         _______ _______ _______ _____ _____    ______ ____
ROOT
ATOM      1  C   UNL     1      -1.487  -1.219  -4.963  0.00  0.00    +0.100 C 
ATOM      2  C   UNL     1      -1.778   0.296  -4.886  0.00  0.00    +0.121 C 
ATOM      3  N   UNL     1      -2.043   0.698  -6.287  0.00  0.00    -0.300 N 
ATOM      4  C   UNL     1      -2.829  -0.425  -6.851  0.00  0.00    +0.115 C 
ATOM      5  C   UNL     1      -2.179  -1.689  -6.253  0.00  0.00    -0.004 C 
ATOM      6  C   UNL     1      -3.248  -2.729  -5.931  0.00  0.00    -0.010 C 
ATOM      7  C   UNL     1      -3.882  -3.224  -7.234  0.00  0.00    -0.082 C 
ATOM      8  N   UNL     1      -2.845  -3.809  -8.094  0.00  0.00    +0.379 N 
ATOM      9  C   UNL     1      -1.871  -2.779  -8.475  0.00  0.00    -0.082 C 
ATOM     10  C   UNL     1      -1.153  -2.265  -7.224  0.00  0.00    -0.010 C 
ATOM     11  C   UNL     1      -1.656   1.830  -6.909  0.00  0.00    +0.220 C 
ATOM     12  O   UNL     1      -1.954   2.015  -8.070  0.00  0.00    -0.275 OA
ATOM     13  H   UNL     1      -2.373  -4.547  -7.594  0.00  0.00    -0.086 HD
ATOM     14  H   UNL     1      -3.274  -4.189  -8.924  0.00  0.00    -0.086 HD
ENDROOT
BRANCH   1  16
ATOM     15  N   UNL     1      -1.501  -3.060  -3.311  0.00  0.00    -0.317 N 
ATOM     16  C   UNL     1      -2.070  -1.927  -3.767  0.00  0.00    +0.218 C 
ATOM     17  O   UNL     1      -3.052  -1.476  -3.215  0.00  0.00    -0.275 OA
ATOM     18  H   UNL     1      -0.716  -3.421  -3.752  0.00  0.00    +0.149 HD
BRANCH  15  19
ATOM     19  C   UNL     1      -2.068  -3.748  -2.148  0.00  0.00    +0.089 C 
BRANCH  19  24
ATOM     20  N   UNL     1       0.177  -4.629  -1.666  0.00  0.00    +0.382 N 
ATOM     21  C   UNL     1       0.602  -5.026  -0.307  0.00  0.00    -0.078 C 
ATOM     22  C   UNL     1      -0.707  -5.067   0.521  0.00  0.00    -0.020 C 
ATOM     23  C   UNL     1      -1.715  -5.629  -0.515  0.00  0.00    -0.016 C 
ATOM     24  C   UNL     1      -1.240  -4.997  -1.841  0.00  0.00    -0.051 C 
ATOM     25  H   UNL     1       0.285  -3.632  -1.776  0.00  0.00    -0.081 HD
BRANCH  20  27
ATOM     26  C   UNL     1       2.446  -4.851  -2.561  0.00  0.00    -0.017 C 
ATOM     27  C   UNL     1       0.996  -5.330  -2.664  0.00  0.00    -0.082 C 
ENDBRANCH  20  27
ENDBRANCH  19  24
ENDBRANCH  15  19
ENDBRANCH   1  16
BRANCH  11  28
ATOM     28  C   UNL     1      -0.854   2.864  -6.162  0.00  0.00    +0.131 C 
BRANCH  28  29
ATOM     29  C   UNL     1      -0.552   4.023  -7.077  0.00  0.00    -0.039 A 
ATOM     30  C   UNL     1       0.596   4.015  -7.847  0.00  0.00    +0.004 A 
ATOM     31  C   UNL     1       0.873   5.078  -8.686  0.00  0.00    +0.003 A 
ATOM     32  C   UNL     1       0.001   6.149  -8.756  0.00  0.00    -0.050 A 
ATOM     33  C   UNL     1      -1.148   6.156  -7.987  0.00  0.00    +0.003 A 
ATOM     34  C   UNL     1      -1.427   5.090  -7.151  0.00  0.00    +0.004 A 
ATOM     35  C   UNL     1       0.303   7.308  -9.670  0.00  0.00    +0.044 C 
ENDBRANCH  28  29
ENDBRANCH  11  28
TORSDOF 6
