REMARK  Name = ZINC15830409
REMARK  9 active torsions:
REMARK  status: ('A' for Active; 'I' for Inactive)
REMARK    1  A    between atoms: C_1  and  C_2
REMARK    2  A    between atoms: C_2  and  O_3
REMARK    3  A    between atoms: O_3  and  C_4
REMARK    4  A    between atoms: C_12  and  C_26
REMARK    5  A    between atoms: C_15  and  C_17
REMARK    6  A    between atoms: C_19  and  O_24
REMARK    7  A    between atoms: C_22  and  O_23
REMARK    8  A    between atoms: O_24  and  C_25
REMARK    9  A    between atoms: C_31  and  O_32
REMARK                            x       y       z     vdW  Elec       q    Type
REMARK                         _______ _______ _______ _____ _____    ______ ____
ROOT
ATOM      1  C   UNL     1      -1.399  -3.421  -1.804  0.00  0.00    +0.403 C 
ATOM      2  O   UNL     1      -2.500  -3.836  -1.500  0.00  0.00    -0.226 OA
ATOM      3  N   UNL     1      -0.771  -2.533  -1.008  0.00  0.00    -0.267 N 
ATOM      4  C   UNL     1      -1.404  -2.057   0.229  0.00  0.00    +0.111 C 
ATOM      5  C   UNL     1      -1.422  -0.526   0.216  0.00  0.00    +0.029 C 
ATOM      6  C   UNL     1       0.002  -0.004   0.002  0.00  0.00    +0.032 C 
ATOM      7  C   UNL     1       0.519  -0.491  -1.355  0.00  0.00    +0.029 C 
ATOM      8  C   UNL     1       0.561  -2.023  -1.361  0.00  0.00    +0.111 C 
ATOM      9  C   UNL     1       1.357   1.992  -0.000  0.00  0.00    -0.028 C 
ATOM     10  C   UNL     1       2.012   1.643   1.340  0.00  0.00    +0.044 C 
ATOM     11  C   UNL     1       1.758   0.196   1.658  0.00  0.00    +0.044 C 
ATOM     12  N   UNL     1       0.869  -0.506   1.063  0.00  0.00    -0.300 NA
ATOM     13  N   UNL     1      -0.022   1.468   0.010  0.00  0.00    +0.401 N 
ATOM     14  H   UNL     1      -0.505   1.796   0.855  0.00  0.00    -0.081 HD
ATOM     15  H   UNL     1      -0.521   1.805  -0.822  0.00  0.00    -0.081 HD
ENDROOT
BRANCH  11  16
ATOM     16  C   UNL     1       2.572  -0.445   2.707  0.00  0.00    +0.041 A 
ATOM     17  C   UNL     1       3.553   0.287   3.380  0.00  0.00    +0.059 A 
ATOM     18  C   UNL     1       4.312  -0.320   4.363  0.00  0.00    +0.121 A 
ATOM     19  C   UNL     1       4.102  -1.656   4.682  0.00  0.00    +0.049 A 
ATOM     20  C   UNL     1       3.134  -2.387   4.021  0.00  0.00    +0.049 A 
ATOM     21  C   UNL     1       2.362  -1.790   3.037  0.00  0.00    +0.126 A 
BRANCH  21  22
ATOM     22  O   UNL     1       1.407  -2.509   2.392  0.00  0.00    -0.506 OA
ATOM     23  H   UNL     1       1.724  -2.959   1.597  0.00  0.00    +0.292 HD
ENDBRANCH  21  22
BRANCH  18  24
ATOM     24  O   UNL     1       5.267   0.391   5.019  0.00  0.00    -0.495 OA
ATOM     25  C   UNL     1       6.015  -0.298   6.023  0.00  0.00    +0.277 C 
ENDBRANCH  18  24
ENDBRANCH  11  16
BRANCH   9  26
ATOM     26  C   UNL     1       1.327   3.489  -0.177  0.00  0.00    -0.019 A 
ATOM     27  C   UNL     1       0.212   4.208   0.206  0.00  0.00    +0.005 A 
ATOM     28  C   UNL     1       0.183   5.581   0.044  0.00  0.00    +0.000 A 
ATOM     29  C   UNL     1       1.272   6.237  -0.501  0.00  0.00    +0.004 A 
ATOM     30  C   UNL     1       2.390   5.523  -0.885  0.00  0.00    +0.045 A 
ATOM     31  C   UNL     1       2.422   4.146  -0.719  0.00  0.00    +0.118 A 
BRANCH  31  32
ATOM     32  O   UNL     1       3.523   3.441  -1.092  0.00  0.00    -0.507 OA
ATOM     33  H   UNL     1       3.502   3.135  -2.009  0.00  0.00    +0.292 HD
ENDBRANCH  31  32
ENDBRANCH   9  26
BRANCH   1  34
ATOM     34  O   UNL     1      -0.807  -3.849  -2.935  0.00  0.00    -0.451 OA
BRANCH  34  36
ATOM     35  C   UNL     1      -0.716  -5.171  -4.978  0.00  0.00    +0.048 C 
ATOM     36  C   UNL     1      -1.542  -4.806  -3.743  0.00  0.00    +0.230 C 
ENDBRANCH  34  36
ENDBRANCH   1  34
TORSDOF 7
