REMARK  Name = ZINC39601071
REMARK  9 active torsions:
REMARK  status: ('A' for Active; 'I' for Inactive)
REMARK    1  A    between atoms: C_1  and  C_2
REMARK    2  A    between atoms: C_2  and  C_3
REMARK    3  A    between atoms: C_2  and  C_4
REMARK    4  A    between atoms: C_4  and  C_5
REMARK    5  A    between atoms: C_5  and  N_6
REMARK    6  A    between atoms: C_7  and  C_9
REMARK    7  A    between atoms: C_20  and  C_22
REMARK    8  A    between atoms: C_22  and  C_23
REMARK    9  A    between atoms: C_23  and  C_24
REMARK                            x       y       z     vdW  Elec       q    Type
REMARK                         _______ _______ _______ _____ _____    ______ ____
ROOT
ATOM      1  C   UNL     1      -4.435  -4.410  -0.207  0.00  0.00    +0.100 C 
ATOM      2  C   UNL     1      -5.073  -4.205   1.185  0.00  0.00    +0.121 C 
ATOM      3  N   UNL     1      -5.902  -5.415   1.399  0.00  0.00    -0.300 N 
ATOM      4  C   UNL     1      -5.088  -6.523   0.845  0.00  0.00    +0.115 C 
ATOM      5  C   UNL     1      -4.446  -5.932  -0.426  0.00  0.00    -0.004 C 
ATOM      6  C   UNL     1      -5.283  -6.283  -1.653  0.00  0.00    -0.010 C 
ATOM      7  C   UNL     1      -5.232  -7.796  -1.883  0.00  0.00    -0.082 C 
ATOM      8  N   UNL     1      -3.839  -8.216  -2.080  0.00  0.00    +0.379 N 
ATOM      9  C   UNL     1      -3.061  -7.959  -0.862  0.00  0.00    -0.082 C 
ATOM     10  C   UNL     1      -3.021  -6.453  -0.588  0.00  0.00    -0.010 C 
ATOM     11  C   UNL     1      -7.122  -5.491   1.967  0.00  0.00    +0.216 C 
ATOM     12  O   UNL     1      -7.677  -6.564   2.071  0.00  0.00    -0.276 OA
ATOM     13  H   UNL     1      -3.814  -9.202  -2.293  0.00  0.00    -0.086 HD
ATOM     14  H   UNL     1      -3.439  -7.699  -2.849  0.00  0.00    -0.086 HD
ENDROOT
BRANCH   1  16
ATOM     15  N   UNL     1      -2.480  -3.431  -1.364  0.00  0.00    -0.315 N 
ATOM     16  C   UNL     1      -3.021  -3.888  -0.217  0.00  0.00    +0.218 C 
ATOM     17  O   UNL     1      -2.370  -3.880   0.806  0.00  0.00    -0.275 OA
ATOM     18  H   UNL     1      -3.001  -3.438  -2.183  0.00  0.00    +0.149 HD
BRANCH  15  19
ATOM     19  C   UNL     1      -1.105  -2.924  -1.375  0.00  0.00    +0.104 C 
BRANCH  19  20
ATOM     20  C   UNL     1      -0.740  -2.471  -2.789  0.00  0.00    +0.022 C 
BRANCH  20  22
ATOM     21  C   UNL     1       1.104  -1.605  -4.236  0.00  0.00    +0.007 C 
ATOM     22  C   UNL     1       0.696  -1.941  -2.800  0.00  0.00    -0.016 C 
ATOM     23  C   UNL     1       0.781  -0.681  -1.937  0.00  0.00    +0.007 C 
ENDBRANCH  20  22
ENDBRANCH  19  20
ENDBRANCH  15  19
ENDBRANCH   1  16
BRANCH  11  24
ATOM     24  C   UNL     1      -7.795  -4.242   2.475  0.00  0.00    +0.096 C 
BRANCH  24  25
ATOM     25  C   UNL     1      -9.158  -4.603   3.069  0.00  0.00    +0.013 C 
BRANCH  25  26
ATOM     26  C   UNL     1      -9.842  -3.335   3.584  0.00  0.00    -0.011 C 
ATOM     27  C   UNL     1      -9.077  -2.780   4.803  0.00  0.00    +0.003 C 
ATOM     28  C   UNL     1     -10.190  -2.245   5.739  0.00  0.00    +0.000 C 
ATOM     29  C   UNL     1     -11.314  -3.297   5.568  0.00  0.00    +0.000 C 
ATOM     30  C   UNL     1     -11.265  -3.664   4.071  0.00  0.00    +0.003 C 
ENDBRANCH  25  26
ENDBRANCH  24  25
ENDBRANCH  11  24
TORSDOF 7
