REMARK  Name = ZINC21944330
REMARK  4 active torsions:
REMARK  status: ('A' for Active; 'I' for Inactive)
REMARK    1  A    between atoms: C_4  and  C_7
REMARK    2  A    between atoms: C_7  and  N_8
REMARK    3  A    between atoms: N_15  and  C_20
REMARK    4  A    between atoms: C_20  and  C_21
REMARK                            x       y       z     vdW  Elec       q    Type
REMARK                         _______ _______ _______ _____ _____    ______ ____
ROOT
ATOM      1  N   UNL     1      -0.097   5.240   0.030  0.00  0.00    -0.298 N 
ATOM      2  C   UNL     1      -0.060   3.849   0.022  0.00  0.00    +0.069 A 
ATOM      3  C   UNL     1      -1.250   3.129   0.029  0.00  0.00    +0.028 A 
ATOM      4  C   UNL     1      -1.223   1.749   0.017  0.00  0.00    +0.002 A 
ATOM      5  C   UNL     1      -0.013   1.076   0.008  0.00  0.00    +0.002 A 
ATOM      6  C   UNL     1       1.174   1.779   0.000  0.00  0.00    +0.028 A 
ATOM      7  C   UNL     1       1.159   3.170   0.008  0.00  0.00    +0.069 A 
ATOM      8  N   UNL     1       2.361   3.873  -0.000  0.00  0.00    -0.293 N 
ATOM      9  C   UNL     1       2.355   5.221   0.007  0.00  0.00    +0.317 A 
ATOM     10  O   UNL     1       3.401   5.839  -0.000  0.00  0.00    -0.262 OA
ATOM     11  C   UNL     1       1.052   5.946   0.023  0.00  0.00    +0.317 A 
ATOM     12  O   UNL     1       1.026   7.161   0.029  0.00  0.00    -0.262 OA
ENDROOT
BRANCH   1  13
ATOM     13  C   UNL     1      -1.384   5.939   0.045  0.00  0.00    +0.160 C 
BRANCH  13  17
ATOM     14  C   UNL     1      -2.674   6.636  -3.967  0.00  0.00    +0.000 A 
ATOM     15  C   UNL     1      -3.035   5.471  -3.318  0.00  0.00    +0.000 A 
ATOM     16  C   UNL     1      -2.618   5.245  -2.020  0.00  0.00    +0.005 A 
ATOM     17  C   UNL     1      -1.839   6.185  -1.371  0.00  0.00    -0.028 A 
ATOM     18  C   UNL     1      -1.482   7.352  -2.018  0.00  0.00    +0.005 A 
ATOM     19  C   UNL     1      -1.895   7.576  -3.318  0.00  0.00    +0.000 A 
ENDBRANCH  13  17
ENDBRANCH   1  13
BRANCH   8  20
ATOM     20  C   UNL     1       3.633   3.146  -0.015  0.00  0.00    +0.221 C 
BRANCH  20  21
ATOM     21  C   UNL     1       4.056   2.904  -1.441  0.00  0.00    +0.235 C 
ATOM     22  O   UNL     1       3.363   3.299  -2.355  0.00  0.00    -0.274 OA
ATOM     23  N   UNL     1       5.205   2.248  -1.701  0.00  0.00    -0.300 N 
ATOM     24  C   UNL     1       6.057   1.769  -0.605  0.00  0.00    +0.108 C 
ATOM     25  C   UNL     1       6.319   0.269  -0.809  0.00  0.00    +0.019 C 
ATOM     26  C   UNL     1       6.905   0.045  -2.205  0.00  0.00    +0.003 C 
ATOM     27  C   UNL     1       5.899   0.506  -3.263  0.00  0.00    +0.019 C 
ATOM     28  C   UNL     1       5.630   2.004  -3.086  0.00  0.00    +0.108 C 
ENDBRANCH  20  21
ENDBRANCH   8  20
TORSDOF 4
