REMARK  Name = ZINC39685894
REMARK  13 active torsions:
REMARK  status: ('A' for Active; 'I' for Inactive)
REMARK    1  A    between atoms: C_1  and  C_2
REMARK    2  A    between atoms: C_3  and  C_8
REMARK    3  A    between atoms: C_4  and  C_7
REMARK    4  A    between atoms: C_12  and  C_21
REMARK    5  A    between atoms: N_23  and  C_24
REMARK    6  A    between atoms: C_24  and  C_26
REMARK    7  A    between atoms: C_24  and  C_29
REMARK    8  A    between atoms: C_26  and  C_27
REMARK    9  A    between atoms: C_26  and  C_28
REMARK   10  A    between atoms: N_31  and  C_32
REMARK   11  A    between atoms: C_32  and  C_33
REMARK   12  A    between atoms: C_32  and  C_34
REMARK   13  A    between atoms: C_32  and  C_35
REMARK                            x       y       z     vdW  Elec       q    Type
REMARK                         _______ _______ _______ _____ _____    ______ ____
ROOT
ATOM      1  C   UNL     1      -0.567  -1.530  -4.765  0.00  0.00    +0.252 C 
ATOM      2  O   UNL     1       0.161  -1.720  -5.721  0.00  0.00    -0.270 OA
ATOM      3  N   UNL     1      -1.888  -1.340  -4.952  0.00  0.00    -0.296 N 
ATOM      4  C   UNL     1      -2.924  -1.089  -3.922  0.00  0.00    +0.121 C 
ATOM      5  C   UNL     1      -3.859  -0.036  -4.557  0.00  0.00    +0.100 C 
ATOM      6  C   UNL     1      -3.665  -0.203  -6.074  0.00  0.00    -0.004 C 
ATOM      7  C   UNL     1      -2.632  -1.328  -6.234  0.00  0.00    +0.115 C 
ATOM      8  C   UNL     1      -3.129   1.088  -6.683  0.00  0.00    -0.010 C 
ATOM      9  C   UNL     1      -2.999   0.916  -8.199  0.00  0.00    -0.082 C 
ATOM     10  N   UNL     1      -4.311   0.589  -8.771  0.00  0.00    +0.379 N 
ATOM     11  C   UNL     1      -4.777  -0.701  -8.249  0.00  0.00    -0.082 C 
ATOM     12  C   UNL     1      -4.983  -0.597  -6.735  0.00  0.00    -0.010 C 
ATOM     13  H   UNL     1      -4.973   1.310  -8.524  0.00  0.00    -0.086 HD
ATOM     14  H   UNL     1      -4.235   0.536  -9.775  0.00  0.00    -0.086 HD
ENDROOT
BRANCH   1  17
ATOM     15  C   UNL     1       0.562   1.077  -3.212  0.00  0.00    +0.070 C 
ATOM     16  C   UNL     1       0.509  -0.336  -2.690  0.00  0.00    +0.093 A 
ATOM     17  C   UNL     1      -0.004  -1.507  -3.403  0.00  0.00    +0.101 A 
ATOM     18  C   UNL     1       0.139  -2.574  -2.563  0.00  0.00    +0.147 A 
ATOM     19  O   UNL     1       0.688  -2.136  -1.427  0.00  0.00    -0.359 OA
ATOM     20  N   UNL     1       0.915  -0.744  -1.524  0.00  0.00    -0.083 NA
ATOM     21  C   UNL     1      -0.253  -3.997  -2.866  0.00  0.00    +0.090 C 
ENDBRANCH   1  17
BRANCH   5  22
ATOM     22  C   UNL     1      -5.291  -0.309  -4.176  0.00  0.00    +0.219 C 
ATOM     23  O   UNL     1      -5.663  -1.448  -3.990  0.00  0.00    -0.275 OA
ATOM     24  N   UNL     1      -6.159   0.714  -4.041  0.00  0.00    -0.303 N 
ATOM     25  H   UNL     1      -5.862   1.625  -4.190  0.00  0.00    +0.149 HD
BRANCH  24  26
ATOM     26  C   UNL     1      -7.551   0.449  -3.671  0.00  0.00    +0.161 C 
BRANCH  26  27
ATOM     27  C   UNL     1      -8.425   1.573  -4.164  0.00  0.00    +0.234 C 
ATOM     28  O   UNL     1      -7.932   2.642  -4.455  0.00  0.00    -0.274 OA
ATOM     29  N   UNL     1      -9.755   1.391  -4.282  0.00  0.00    -0.309 N 
ATOM     30  H   UNL     1     -10.159   0.560  -3.985  0.00  0.00    +0.149 HD
BRANCH  29  31
ATOM     31  C   UNL     1     -10.591   2.446  -4.859  0.00  0.00    +0.026 C 
ATOM     32  C   UNL     1     -10.130   2.737  -6.289  0.00  0.00    +0.031 C 
ATOM     33  C   UNL     1     -12.051   1.988  -4.878  0.00  0.00    +0.031 C 
ATOM     34  C   UNL     1     -10.466   3.716  -4.014  0.00  0.00    +0.031 C 
ENDBRANCH  29  31
ENDBRANCH  26  27
BRANCH  26  35
ATOM     35  C   UNL     1      -7.663   0.346  -2.148  0.00  0.00    +0.012 C 
ATOM     36  C   UNL     1      -6.855  -0.856  -1.657  0.00  0.00    +0.009 C 
ATOM     37  C   UNL     1      -7.115   1.625  -1.510  0.00  0.00    +0.009 C 
ENDBRANCH  26  35
ENDBRANCH  24  26
ENDBRANCH   5  22
TORSDOF 6
