REMARK  Name = ZINC19219221
REMARK  10 active torsions:
REMARK  status: ('A' for Active; 'I' for Inactive)
REMARK    1  A    between atoms: C_1  and  C_2
REMARK    2  A    between atoms: C_8  and  O_34
REMARK    3  A    between atoms: N_15  and  C_18
REMARK    4  A    between atoms: C_18  and  C_19
REMARK    5  A    between atoms: C_19  and  C_21
REMARK    6  A    between atoms: C_19  and  O_33
REMARK    7  A    between atoms: C_24  and  O_31
REMARK    8  A    between atoms: C_25  and  N_27
REMARK    9  A    between atoms: C_28  and  C_30
REMARK   10  A    between atoms: O_31  and  C_32
REMARK                            x       y       z     vdW  Elec       q    Type
REMARK                         _______ _______ _______ _____ _____    ______ ____
ROOT
ATOM      1  C   UNL     1      -5.988  12.289   0.293  0.00  0.00    +0.044 C 
ATOM      2  C   UNL     1      -5.953  10.903  -0.298  0.00  0.00    -0.050 A 
ATOM      3  C   UNL     1      -4.904  10.525  -1.115  0.00  0.00    +0.007 A 
ATOM      4  C   UNL     1      -4.873   9.257  -1.656  0.00  0.00    +0.046 A 
ATOM      5  C   UNL     1      -5.896   8.354  -1.382  0.00  0.00    +0.127 A 
ATOM      6  C   UNL     1      -6.944   8.733  -0.562  0.00  0.00    +0.023 A 
ATOM      7  C   UNL     1      -6.970  10.009  -0.023  0.00  0.00    +0.013 A 
ATOM      8  C   UNL     1      -8.068   7.784  -0.232  0.00  0.00    +0.152 C 
ATOM      9  C   UNL     1      -8.086   6.636  -1.246  0.00  0.00    +0.084 C 
ATOM     10  C   UNL     1      -6.660   6.093  -1.384  0.00  0.00    +0.110 C 
ATOM     11  O   UNL     1      -5.833   7.115  -1.937  0.00  0.00    -0.485 OA
ATOM     12  C   UNL     1      -6.666   4.874  -2.308  0.00  0.00    +0.029 C 
ATOM     13  C   UNL     1      -5.252   4.293  -2.390  0.00  0.00    -0.075 C 
ATOM     14  N   UNL     1      -4.799   3.914  -1.046  0.00  0.00    +0.382 N 
ATOM     15  C   UNL     1      -4.735   5.082  -0.158  0.00  0.00    -0.075 C 
ATOM     16  C   UNL     1      -6.133   5.686  -0.007  0.00  0.00    +0.029 C 
ATOM     17  H   UNL     1      -5.538   3.214  -0.628  0.00  0.00    -0.082 HD
ENDROOT
BRANCH   8  18
ATOM     18  O   UNL     1      -9.312   8.484  -0.285  0.00  0.00    -0.387 OA
ATOM     19  H   UNL     1     -10.252   7.953  -0.072  0.00  0.00    +0.210 HD
ENDBRANCH   8  18
BRANCH  14  20
ATOM     20  C   UNL     1      -3.503   3.224  -1.103  0.00  0.00    -0.042 C 
BRANCH  20  21
ATOM     21  C   UNL     1      -2.919   3.119   0.307  0.00  0.00    +0.128 C 
BRANCH  21  22
ATOM     22  C   UNL     1      -1.609   2.375   0.254  0.00  0.00    -0.019 A 
ATOM     23  C   UNL     1      -1.603   0.994   0.179  0.00  0.00    +0.010 A 
ATOM     24  C   UNL     1      -0.404   0.307   0.135  0.00  0.00    +0.048 A 
ATOM     25  C   UNL     1       0.795   1.001   0.155  0.00  0.00    +0.141 A 
ATOM     26  C   UNL     1       0.789   2.392   0.226  0.00  0.00    +0.076 A 
ATOM     27  C   UNL     1      -0.418   3.075   0.275  0.00  0.00    +0.033 A 
BRANCH  26  28
ATOM     28  N   UNL     1       1.998   3.100   0.247  0.00  0.00    -0.283 N 
ATOM     29  C   UNL     1       2.081   4.309  -0.343  0.00  0.00    +0.214 C 
ATOM     30  O   UNL     1       1.088   4.827  -0.808  0.00  0.00    -0.276 OA
ATOM     31  C   UNL     1       3.409   5.018  -0.424  0.00  0.00    +0.109 C 
ATOM     32  H   UNL     1       2.879   2.669   0.744  0.00  0.00    +0.155 HD
ENDBRANCH  26  28
BRANCH  25  33
ATOM     33  O   UNL     1       1.974   0.326   0.107  0.00  0.00    -0.493 OA
ATOM     34  C   UNL     1       1.904  -1.099   0.035  0.00  0.00    +0.277 C 
ENDBRANCH  25  33
ENDBRANCH  21  22
BRANCH  21  35
ATOM     35  O   UNL     1      -3.833   2.414   1.150  0.00  0.00    -0.389 OA
ATOM     36  H   UNL     1      -3.584   2.239   2.207  0.00  0.00    +0.210 HD
ENDBRANCH  21  35
ENDBRANCH  20  21
ENDBRANCH  14  20
TORSDOF 7
