REMARK  Name = ZINC37714711
REMARK  10 active torsions:
REMARK  status: ('A' for Active; 'I' for Inactive)
REMARK    1  A    between atoms: C_1  and  C_2
REMARK    2  A    between atoms: C_4  and  N_18
REMARK    3  A    between atoms: C_6  and  S_9
REMARK    4  A    between atoms: C_7  and  C_8
REMARK    5  A    between atoms: S_9  and  N_12
REMARK    6  A    between atoms: N_12  and  C_13
REMARK    7  A    between atoms: C_13  and  C_14
REMARK    8  A    between atoms: C_14  and  C_15
REMARK    9  A    between atoms: C_15  and  C_16
REMARK   10  A    between atoms: C_16  and  N_17
REMARK                            x       y       z     vdW  Elec       q    Type
REMARK                         _______ _______ _______ _____ _____    ______ ____
ROOT
ATOM      1  S   UNL     1       0.047  -2.878   2.443  0.00  0.00    +0.059 S 
ATOM      2  O   UNL     1      -0.952  -2.249   3.235  0.00  0.00    -0.153 OA
ATOM      3  O   UNL     1      -0.021  -4.250   2.080  0.00  0.00    -0.153 OA
ENDROOT
BRANCH   1   9
ATOM      4  C   UNL     1       2.194  -1.958  -2.233  0.00  0.00    +0.044 C 
ATOM      5  C   UNL     1       1.168  -1.587  -1.193  0.00  0.00    -0.044 A 
ATOM      6  C   UNL     1       0.306  -0.530  -1.419  0.00  0.00    +0.036 A 
ATOM      7  C   UNL     1      -0.635  -0.190  -0.465  0.00  0.00    +0.128 A 
ATOM      8  C   UNL     1      -0.714  -0.907   0.715  0.00  0.00    +0.061 A 
ATOM      9  C   UNL     1       0.147  -1.964   0.940  0.00  0.00    +0.111 A 
ATOM     10  C   UNL     1       1.085  -2.307  -0.016  0.00  0.00    -0.021 A 
ATOM     11  C   UNL     1       2.021  -3.463   0.227  0.00  0.00    +0.046 C 
BRANCH   7  12
ATOM     12  N   UNL     1      -1.557   0.943  -0.706  0.00  0.00    +0.056 N 
ATOM     13  O   UNL     1      -1.488   1.570  -1.737  0.00  0.00    -0.126 OA
ATOM     14  O   UNL     1      -2.380   1.240   0.129  0.00  0.00    -0.126 OA
ENDBRANCH   7  12
ENDBRANCH   1   9
BRANCH   1  15
ATOM     15  N   UNL     1       1.484  -2.669   3.240  0.00  0.00    -0.190 NA
ATOM     16  H   UNL     1       2.075  -3.425   3.378  0.00  0.00    +0.148 HD
BRANCH  15  17
ATOM     17  C   UNL     1       1.861  -1.343   3.734  0.00  0.00    +0.106 C 
BRANCH  17  18
ATOM     18  C   UNL     1       3.003  -1.481   4.743  0.00  0.00    +0.015 C 
BRANCH  18  19
ATOM     19  C   UNL     1       3.397  -0.096   5.260  0.00  0.00    -0.018 C 
BRANCH  19  20
ATOM     20  C   UNL     1       4.540  -0.234   6.268  0.00  0.00    -0.086 C 
BRANCH  20  21
ATOM     21  N   UNL     1       4.918   1.096   6.764  0.00  0.00    +0.378 N 
ATOM     22  H   UNL     1       5.220   1.670   5.991  0.00  0.00    -0.090 HD
ATOM     23  H   UNL     1       4.123   1.526   7.213  0.00  0.00    -0.090 HD
ATOM     24  H   UNL     1       5.671   1.005   7.429  0.00  0.00    -0.090 HD
ENDBRANCH  20  21
ENDBRANCH  19  20
ENDBRANCH  18  19
ENDBRANCH  17  18
ENDBRANCH  15  17
ENDBRANCH   1  15
TORSDOF 8
