REMARK  Name = ZINC48909962
REMARK  7 active torsions:
REMARK  status: ('A' for Active; 'I' for Inactive)
REMARK    1  A    between atoms: C_1  and  N_2
REMARK    2  A    between atoms: N_2  and  C_3
REMARK    3  A    between atoms: N_2  and  C_9
REMARK    4  A    between atoms: C_3  and  C_4
REMARK    5  A    between atoms: C_9  and  C_11
REMARK    6  A    between atoms: C_9  and  C_13
REMARK    7  A    between atoms: C_11  and  N_12
REMARK                            x       y       z     vdW  Elec       q    Type
REMARK                         _______ _______ _______ _____ _____    ______ ____
ROOT
ATOM      1  C   UNL     1      -1.212  -0.606  -0.640  0.00  0.00    +0.071 C 
ENDROOT
BRANCH   1   2
ATOM      2  C   UNL     1      -1.929   0.037  -1.799  0.00  0.00    -0.012 A 
ATOM      3  C   UNL     1      -1.342   1.087  -2.479  0.00  0.00    +0.006 A 
ATOM      4  C   UNL     1      -1.999   1.677  -3.542  0.00  0.00    +0.002 A 
ATOM      5  C   UNL     1      -3.245   1.218  -3.927  0.00  0.00    +0.021 A 
ATOM      6  C   UNL     1      -3.834   0.167  -3.248  0.00  0.00    +0.060 A 
ATOM      7  C   UNL     1      -3.173  -0.428  -2.186  0.00  0.00    +0.064 A 
ATOM      8 CL   UNL     1      -3.907  -1.753  -1.337  0.00  0.00    -0.082 Cl
ATOM      9 CL   UNL     1      -5.398  -0.411  -3.730  0.00  0.00    -0.082 Cl
ENDBRANCH   1   2
BRANCH   1  11
ATOM     10  C   UNL     1       0.444   1.070  -0.080  0.00  0.00    +0.105 C 
ATOM     11  N   UNL     1       0.212  -0.248  -0.686  0.00  0.00    -0.296 NA
BRANCH  11  12
ATOM     12  C   UNL     1       1.035  -1.277  -0.037  0.00  0.00    +0.123 C 
BRANCH  12  13
ATOM     13  C   UNL     1       2.476  -1.098  -0.442  0.00  0.00    +0.004 A 
ATOM     14  C   UNL     1       3.116  -1.683  -1.558  0.00  0.00    +0.046 A 
ATOM     15  C   UNL     1       4.392  -1.257  -1.543  0.00  0.00    +0.195 A 
ATOM     16  O   UNL     1       4.557  -0.450  -0.482  0.00  0.00    -0.471 OA
ATOM     17  C   UNL     1       3.397  -0.346   0.186  0.00  0.00    +0.199 A 
ENDBRANCH  12  13
ENDBRANCH  11  12
ENDBRANCH   1  11
BRANCH   1  18
ATOM     18  C   UNL     1      -1.820  -0.110   0.674  0.00  0.00    -0.063 C 
BRANCH  18  19
ATOM     19  N   UNL     1      -1.188  -0.810   1.801  0.00  0.00    +0.379 N 
ATOM     20  H   UNL     1      -0.242  -0.478   1.915  0.00  0.00    -0.090 HD
ATOM     21  H   UNL     1      -1.711  -0.630   2.644  0.00  0.00    -0.090 HD
ATOM     22  H   UNL     1      -1.176  -1.802   1.617  0.00  0.00    -0.090 HD
ENDBRANCH  18  19
ENDBRANCH   1  18
TORSDOF 6
