REMARK  Name = ZINC12566333
REMARK  14 active torsions:
REMARK  status: ('A' for Active; 'I' for Inactive)
REMARK    1  A    between atoms: C_1  and  C_2
REMARK    2  A    between atoms: C_7  and  C_15
REMARK    3  A    between atoms: C_13  and  C_14
REMARK    4  A    between atoms: C_15  and  N_16
REMARK    5  A    between atoms: N_16  and  C_17
REMARK    6  A    between atoms: N_16  and  C_21
REMARK    7  A    between atoms: C_17  and  C_18
REMARK    8  A    between atoms: C_18  and  N_61
REMARK    9  A    between atoms: C_19  and  N_61
REMARK   10  A    between atoms: C_20  and  N_61
REMARK   11  A    between atoms: C_21  and  N_23
REMARK   12  A    between atoms: N_23  and  C_24
REMARK   13  A    between atoms: C_27  and  O_30
REMARK   14  A    between atoms: O_30  and  C_31
REMARK                            x       y       z     vdW  Elec       q    Type
REMARK                         _______ _______ _______ _____ _____    ______ ____
ROOT
ATOM      1  N   UNL     1       2.674   3.713   1.543  0.00  0.00    -0.310 N 
ENDROOT
BRANCH   1   2
ATOM      2  C   UNL     1       2.382   4.789   2.300  0.00  0.00    +0.137 C 
ATOM      3  S   UNL     1       1.046   5.781   1.900  0.00  0.00    -0.018 S 
BRANCH   2   4
ATOM      4  N   UNL     1       3.143   5.084   3.373  0.00  0.00    -0.297 N 
ATOM      5  H   UNL     1       3.863   4.489   3.635  0.00  0.00    +0.154 HD
BRANCH   4   6
ATOM      6  C   UNL     1       2.894   6.250   4.109  0.00  0.00    +0.033 A 
ATOM      7  C   UNL     1       3.949   7.064   4.498  0.00  0.00    +0.027 A 
ATOM      8  C   UNL     1       3.702   8.215   5.220  0.00  0.00    +0.047 A 
ATOM      9  C   UNL     1       2.402   8.553   5.565  0.00  0.00    +0.120 A 
ATOM     10  C   UNL     1       1.348   7.737   5.181  0.00  0.00    +0.047 A 
ATOM     11  C   UNL     1       1.592   6.588   4.455  0.00  0.00    +0.027 A 
BRANCH   9  12
ATOM     12  O   UNL     1       2.160   9.684   6.280  0.00  0.00    -0.495 OA
ATOM     13  C   UNL     1       3.292  10.477   6.642  0.00  0.00    +0.277 C 
ENDBRANCH   9  12
ENDBRANCH   4   6
ENDBRANCH   2   4
ENDBRANCH   1   2
BRANCH   1  14
ATOM     14  C   UNL     1       1.847   3.392   0.377  0.00  0.00    +0.147 C 
BRANCH  14  21
ATOM     15  C   UNL     1      -4.649  -0.629   2.671  0.00  0.00    +0.044 C 
ATOM     16  C   UNL     1      -3.555   0.322   2.259  0.00  0.00    -0.046 A 
ATOM     17  C   UNL     1      -3.812   1.686   2.210  0.00  0.00    +0.004 A 
ATOM     18  C   UNL     1      -2.833   2.564   1.840  0.00  0.00    +0.010 A 
ATOM     19  C   UNL     1      -1.562   2.087   1.507  0.00  0.00    -0.001 A 
ATOM     20  C   UNL     1      -0.490   3.000   1.106  0.00  0.00    +0.020 A 
ATOM     21  C   UNL     1       0.722   2.479   0.794  0.00  0.00    +0.035 A 
ATOM     22  C   UNL     1       0.935   1.086   0.859  0.00  0.00    +0.254 A 
ATOM     23  O   UNL     1       2.033   0.638   0.574  0.00  0.00    -0.268 OA
ATOM     24  N   UNL     1      -0.043   0.239   1.226  0.00  0.00    -0.322 N 
ATOM     25  H   UNL     1       0.137  -0.714   1.259  0.00  0.00    +0.169 HD
ATOM     26  C   UNL     1      -1.299   0.705   1.550  0.00  0.00    +0.052 A 
ATOM     27  C   UNL     1      -2.309  -0.171   1.936  0.00  0.00    -0.024 A 
ATOM     28  C   UNL     1      -2.044  -1.653   1.994  0.00  0.00    +0.046 C 
ENDBRANCH  14  21
ENDBRANCH   1  14
BRANCH   1  29
ATOM     29  C   UNL     1       3.817   2.864   1.886  0.00  0.00    +0.088 C 
BRANCH  29  30
ATOM     30  C   UNL     1       5.069   3.383   1.175  0.00  0.00    -0.060 C 
BRANCH  30  33
ATOM     31  C   UNL     1       6.045   1.176   0.980  0.00  0.00    -0.097 C 
ATOM     32  C   UNL     1       7.474   3.130   1.052  0.00  0.00    -0.097 C 
ATOM     33  N   UNL     1       6.217   2.530   1.548  0.00  0.00    +0.377 N 
ATOM     34  H   UNL     1       6.262   2.459   2.571  0.00  0.00    -0.083 HD
ENDBRANCH  30  33
ENDBRANCH  29  30
ENDBRANCH   1  29
TORSDOF 9
