REMARK  Name = ZINC51965263
REMARK  12 active torsions:
REMARK  status: ('A' for Active; 'I' for Inactive)
REMARK    1  A    between atoms: C_1  and  C_2
REMARK    2  A    between atoms: C_2  and  C_4
REMARK    3  A    between atoms: C_2  and  N_16
REMARK    4  A    between atoms: C_7  and  N_10
REMARK    5  A    between atoms: C_11  and  C_13
REMARK    6  A    between atoms: C_17  and  C_19
REMARK    7  A    between atoms: C_19  and  N_20
REMARK    8  A    between atoms: N_20  and  C_21
REMARK    9  A    between atoms: C_21  and  C_23
REMARK   10  A    between atoms: C_21  and  C_28
REMARK   11  A    between atoms: C_28  and  C_29
REMARK   12  A    between atoms: C_28  and  C_30
REMARK                            x       y       z     vdW  Elec       q    Type
REMARK                         _______ _______ _______ _____ _____    ______ ____
ROOT
ATOM      1  N   UNL     1       1.889  -1.578   2.146  0.00  0.00    -0.310 N 
ATOM      2  C   UNL     1       0.952  -1.385   3.095  0.00  0.00    +0.196 C 
ATOM      3  O   UNL     1      -0.223  -1.380   2.796  0.00  0.00    -0.278 OA
ATOM      4  H   UNL     1       2.829  -1.582   2.385  0.00  0.00    +0.149 HD
ENDROOT
BRANCH   1   6
ATOM      5  C   UNL     1       1.291  -0.423   0.074  0.00  0.00    +0.033 C 
ATOM      6  C   UNL     1       1.487  -1.781   0.751  0.00  0.00    +0.100 C 
BRANCH   6   7
ATOM      7  C   UNL     1       2.560  -2.553   0.027  0.00  0.00    -0.027 A 
ATOM      8  C   UNL     1       3.893  -2.280   0.275  0.00  0.00    +0.007 A 
ATOM      9  C   UNL     1       4.878  -2.986  -0.387  0.00  0.00    +0.023 A 
ATOM     10  C   UNL     1       4.529  -3.970  -1.303  0.00  0.00    +0.033 A 
ATOM     11  C   UNL     1       3.190  -4.242  -1.549  0.00  0.00    +0.023 A 
ATOM     12  C   UNL     1       2.209  -3.536  -0.880  0.00  0.00    +0.007 A 
BRANCH  10  13
ATOM     13  N   UNL     1       5.525  -4.687  -1.976  0.00  0.00    -0.285 N 
ATOM     14  C   UNL     1       6.694  -4.956  -1.360  0.00  0.00    +0.220 C 
ATOM     15  O   UNL     1       6.848  -4.659  -0.195  0.00  0.00    -0.275 OA
ATOM     16  H   UNL     1       5.375  -4.989  -2.885  0.00  0.00    +0.155 HD
BRANCH  14  17
ATOM     17  C   UNL     1       7.809  -5.627  -2.121  0.00  0.00    +0.075 C 
ATOM     18  C   UNL     1       8.171  -7.060  -1.725  0.00  0.00    +0.013 C 
ATOM     19  C   UNL     1       9.110  -5.907  -1.367  0.00  0.00    +0.013 C 
ENDBRANCH  14  17
ENDBRANCH  10  13
ENDBRANCH   6   7
ENDBRANCH   1   6
BRANCH   2  20
ATOM     20  C   UNL     1       1.365  -1.176   4.529  0.00  0.00    +0.016 C 
BRANCH  20  21
ATOM     21  N   UNL     1       0.169  -0.990   5.362  0.00  0.00    +0.390 N 
ATOM     22  H   UNL     1      -0.313  -0.151   5.075  0.00  0.00    -0.084 HD
ATOM     23  H   UNL     1      -0.444  -1.784   5.252  0.00  0.00    -0.084 HD
BRANCH  21  24
ATOM     24  C   UNL     1       0.567  -0.870   6.771  0.00  0.00    -0.031 C 
BRANCH  24  25
ATOM     25  C   UNL     1       1.376   0.388   6.958  0.00  0.00    -0.024 A 
ATOM     26  C   UNL     1       2.483   0.585   7.715  0.00  0.00    +0.009 A 
ATOM     27  C   UNL     1       3.067   1.838   7.735  0.00  0.00    +0.008 A 
ATOM     28  C   UNL     1       2.514   2.832   6.998  0.00  0.00    +0.045 A 
ATOM     29  S   UNL     1       1.130   2.001   6.235  0.00  0.00    -0.103 S 
ENDBRANCH  24  25
BRANCH  24  30
ATOM     30  C   UNL     1      -0.684  -0.807   7.650  0.00  0.00    -0.027 C 
ATOM     31  C   UNL     1      -1.497  -2.091   7.472  0.00  0.00    +0.006 C 
ATOM     32  C   UNL     1      -0.270  -0.664   9.116  0.00  0.00    +0.006 C 
ENDBRANCH  24  30
ENDBRANCH  21  24
ENDBRANCH  20  21
ENDBRANCH   2  20
TORSDOF 9
