REMARK  Name = ZINC63513790
REMARK  10 active torsions:
REMARK  status: ('A' for Active; 'I' for Inactive)
REMARK    1  A    between atoms: C_1  and  C_2
REMARK    2  A    between atoms: C_3  and  C_20
REMARK    3  A    between atoms: C_4  and  C_17
REMARK    4  A    between atoms: C_5  and  C_16
REMARK    5  A    between atoms: N_6  and  C_7
REMARK    6  A    between atoms: C_7  and  C_8
REMARK    7  A    between atoms: C_20  and  N_21
REMARK    8  A    between atoms: N_21  and  C_22
REMARK    9  A    between atoms: C_22  and  C_23
REMARK   10  A    between atoms: C_23  and  C_24
REMARK                            x       y       z     vdW  Elec       q    Type
REMARK                         _______ _______ _______ _____ _____    ______ ____
ROOT
ATOM      1  C   UNL     1      -0.314   1.041   0.069  0.00  0.00    +0.064 C 
ATOM      2  C   UNL     1      -0.076  -0.446   0.127  0.00  0.00    +0.018 A 
ATOM      3  C   UNL     1       0.120  -1.245  -0.934  0.00  0.00    -0.030 A 
ATOM      4  C   UNL     1       0.308  -2.601  -0.402  0.00  0.00    +0.085 A 
ATOM      5  C   UNL     1       0.205  -2.486   0.970  0.00  0.00    +0.031 A 
ATOM      6  N   UNL     1      -0.019  -1.194   1.267  0.00  0.00    -0.343 N 
ATOM      7  C   UNL     1       0.327  -3.613   1.963  0.00  0.00    +0.064 C 
ENDROOT
BRANCH   4   8
ATOM      8  C   UNL     1       0.556  -3.827  -1.171  0.00  0.00    +0.388 C 
ATOM      9  O   UNL     1       0.623  -3.780  -2.392  0.00  0.00    -0.241 OA
ATOM     10  O   UNL     1       0.694  -4.895  -0.591  0.00  0.00    -0.241 OA
ENDBRANCH   4   8
BRANCH   6  11
ATOM     11  C   UNL     1      -0.183  -0.664   2.623  0.00  0.00    +0.161 C 
BRANCH  11  12
ATOM     12  C   UNL     1       1.165  -0.291   3.183  0.00  0.00    +0.026 A 
ATOM     13  C   UNL     1       1.962  -1.257   3.775  0.00  0.00    +0.130 A 
ATOM     14  C   UNL     1       3.200  -0.912   4.289  0.00  0.00    +0.039 A 
ATOM     15  C   UNL     1       3.641   0.396   4.211  0.00  0.00    +0.004 A 
ATOM     16  C   UNL     1       2.846   1.360   3.620  0.00  0.00    +0.020 A 
ATOM     17  C   UNL     1       1.611   1.016   3.101  0.00  0.00    +0.049 A 
ATOM     18 CL   UNL     1       0.616   2.226   2.353  0.00  0.00    -0.083 Cl
ATOM     19  F   UNL     1       1.530  -2.535   3.852  0.00  0.00    -0.205 F 
ENDBRANCH  11  12
ENDBRANCH   6  11
BRANCH   3  20
ATOM     20  C   UNL     1       0.143  -0.833  -2.384  0.00  0.00    -0.044 C 
BRANCH  20  21
ATOM     21  N   UNL     1       1.514  -0.477  -2.770  0.00  0.00    +0.382 N 
ATOM     22  H   UNL     1       1.837   0.289  -2.198  0.00  0.00    -0.085 HD
ATOM     23  H   UNL     1       2.119  -1.274  -2.638  0.00  0.00    -0.085 HD
BRANCH  21  24
ATOM     24  C   UNL     1       1.536  -0.075  -4.183  0.00  0.00    -0.078 C 
BRANCH  24  25
ATOM     25  C   UNL     1       2.965   0.296  -4.586  0.00  0.00    +0.014 C 
BRANCH  25  26
ATOM     26  C   UNL     1       2.987   0.709  -6.035  0.00  0.00    -0.043 C 
ATOM     27  C   UNL     1       2.913   1.968  -6.524  0.00  0.00    -0.001 A 
ATOM     28  C   UNL     1       2.793   3.280  -5.877  0.00  0.00    +0.010 A 
ATOM     29  C   UNL     1       2.740   4.389  -6.649  0.00  0.00    +0.001 A 
ATOM     30  C   UNL     1       2.796   4.317  -8.048  0.00  0.00    +0.002 A 
ATOM     31  C   UNL     1       2.906   3.148  -8.714  0.00  0.00    +0.026 A 
ATOM     32  C   UNL     1       2.971   1.919  -8.002  0.00  0.00    +0.043 A 
ATOM     33  N   UNL     1       3.076   0.678  -8.412  0.00  0.00    -0.380 N 
ATOM     34  C   UNL     1       3.104  -0.202  -7.237  0.00  0.00    +0.144 C 
ATOM     35  H   UNL     1       3.131   0.389  -9.336  0.00  0.00    +0.160 HD
ENDBRANCH  25  26
ENDBRANCH  24  25
ENDBRANCH  21  24
ENDBRANCH  20  21
ENDBRANCH   3  20
TORSDOF 8
