REMARK  Name = ZINC35427366
REMARK  5 active torsions:
REMARK  status: ('A' for Active; 'I' for Inactive)
REMARK    1  A    between atoms: C_1  and  C_2
REMARK    2  A    between atoms: C_2  and  C_3
REMARK    3  A    between atoms: C_8  and  N_9
REMARK    4  A    between atoms: C_24  and  C_26
REMARK    5  A    between atoms: N_34  and  C_37
REMARK                            x       y       z     vdW  Elec       q    Type
REMARK                         _______ _______ _______ _____ _____    ______ ____
ROOT
ATOM      1  N   UNL     1       3.159  -0.538  -0.816  0.00  0.00    -0.269 N 
ATOM      2  C   UNL     1       4.471  -0.617  -0.521  0.00  0.00    +0.308 C 
ATOM      3  O   UNL     1       5.274  -0.899  -1.389  0.00  0.00    -0.252 OA
ATOM      4  N   UNL     1       4.894  -0.383   0.737  0.00  0.00    -0.268 N 
ATOM      5  C   UNL     1       3.952  -0.045   1.819  0.00  0.00    +0.148 C 
ATOM      6  C   UNL     1       4.305  -0.707   3.132  0.00  0.00    +0.004 A 
ATOM      7  C   UNL     1       3.534  -1.734   3.708  0.00  0.00    -0.034 A 
ATOM      8  C   UNL     1       3.940  -2.237   4.906  0.00  0.00    -0.021 A 
ATOM      9  S   UNL     1       5.410  -1.317   5.275  0.00  0.00    -0.077 S 
ATOM     10  C   UNL     1       5.415  -0.319   3.817  0.00  0.00    +0.090 A 
ATOM     11  N   UNL     1       6.309   0.646   3.369  0.00  0.00    -0.312 N 
ATOM     12  C   UNL     1       6.890   1.692   4.002  0.00  0.00    +0.092 A 
ATOM     13  C   UNL     1       7.630   2.370   3.095  0.00  0.00    +0.020 A 
ATOM     14  C   UNL     1       7.510   1.698   1.859  0.00  0.00    +0.025 A 
ATOM     15  C   UNL     1       6.719   0.633   2.056  0.00  0.00    +0.049 A 
ATOM     16  C   UNL     1       6.330  -0.460   1.101  0.00  0.00    +0.155 C 
ATOM     17  C   UNL     1       3.275  -3.314   5.698  0.00  0.00    -0.036 C 
ATOM     18  N   UNL     1       1.912  -3.504   5.168  0.00  0.00    +0.381 N 
ATOM     19  C   UNL     1       1.970  -3.650   3.708  0.00  0.00    -0.074 C 
ATOM     20  C   UNL     1       2.278  -2.301   3.051  0.00  0.00    +0.018 C 
ATOM     21  C   UNL     1       1.322  -4.714   5.758  0.00  0.00    -0.096 C 
ATOM     22  H   UNL     1       2.526  -0.248  -0.140  0.00  0.00    +0.156 HD
ATOM     23  H   UNL     1       1.345  -2.704   5.404  0.00  0.00    -0.082 HD
ENDROOT
BRANCH  16  24
ATOM     24  C   UNL     1       6.603  -1.797   1.742  0.00  0.00    -0.020 A 
ATOM     25  C   UNL     1       5.810  -2.887   1.431  0.00  0.00    +0.006 A 
ATOM     26  C   UNL     1       6.060  -4.113   2.018  0.00  0.00    +0.002 A 
ATOM     27  C   UNL     1       7.102  -4.251   2.915  0.00  0.00    +0.020 A 
ATOM     28  C   UNL     1       7.895  -3.161   3.227  0.00  0.00    +0.041 A 
ATOM     29  C   UNL     1       7.648  -1.935   2.634  0.00  0.00    +0.025 A 
ATOM     30 CL   UNL     1       9.204  -3.333   4.354  0.00  0.00    -0.084 Cl
ENDBRANCH  16  24
BRANCH   1  36
ATOM     31  C   UNL     1       1.424  -1.373  -2.275  0.00  0.00    -0.026 A 
ATOM     32  C   UNL     1       0.981  -1.699  -3.542  0.00  0.00    +0.005 A 
ATOM     33  C   UNL     1       1.815  -1.536  -4.632  0.00  0.00    +0.000 A 
ATOM     34  C   UNL     1       3.097  -1.046  -4.457  0.00  0.00    +0.002 A 
ATOM     35  C   UNL     1       3.547  -0.718  -3.193  0.00  0.00    +0.023 A 
ATOM     36  C   UNL     1       2.708  -0.875  -2.097  0.00  0.00    +0.038 A 
BRANCH  31  38
ATOM     37  C   UNL     1      -0.198  -0.231  -0.788  0.00  0.00    +0.009 C 
ATOM     38  C   UNL     1       0.513  -1.551  -1.087  0.00  0.00    +0.033 C 
ENDBRANCH  31  38
ENDBRANCH   1  36
TORSDOF 3
