REMARK  Name = ZINC08788440
REMARK  12 active torsions:
REMARK  status: ('A' for Active; 'I' for Inactive)
REMARK    1  A    between atoms: C_1  and  C_2
REMARK    2  A    between atoms: C_2  and  O_3
REMARK    3  A    between atoms: O_3  and  C_4
REMARK    4  A    between atoms: C_4  and  C_6
REMARK    5  A    between atoms: C_10  and  N_11
REMARK    6  A    between atoms: C_12  and  C_14
REMARK    7  A    between atoms: C_14  and  N_15
REMARK    8  A    between atoms: N_15  and  C_16
REMARK    9  A    between atoms: C_19  and  C_22
REMARK   10  A    between atoms: C_22  and  O_24
REMARK   11  A    between atoms: O_24  and  C_25
REMARK   12  A    between atoms: C_32  and  C_36
REMARK                            x       y       z     vdW  Elec       q    Type
REMARK                         _______ _______ _______ _____ _____    ______ ____
ROOT
ATOM      1  N   UNL     1      -1.491  -0.852  -2.475  0.00  0.00    -0.278 N 
ATOM      2  C   UNL     1      -2.243  -1.282  -3.508  0.00  0.00    +0.235 C 
ATOM      3  O   UNL     1      -3.268  -1.896  -3.298  0.00  0.00    -0.274 OA
ATOM      4  H   UNL     1      -0.671  -0.362  -2.643  0.00  0.00    +0.155 HD
ENDROOT
BRANCH   1   9
ATOM      5  C   UNL     1      -1.256  -0.753   0.010  0.00  0.00    +0.091 A 
ATOM      6  C   UNL     1      -1.892  -1.146   1.257  0.00  0.00    -0.021 A 
ATOM      7  C   UNL     1      -3.047  -1.832   1.122  0.00  0.00    -0.004 A 
ATOM      8  S   UNL     1      -3.297  -1.960  -0.626  0.00  0.00    -0.077 S 
ATOM      9  C   UNL     1      -1.889  -1.111  -1.173  0.00  0.00    +0.086 A 
ATOM     10  C   UNL     1      -3.917  -2.361   2.220  0.00  0.00    +0.046 C 
ATOM     11  C   UNL     1      -3.500  -1.686   3.535  0.00  0.00    -0.009 C 
ATOM     12  C   UNL     1      -1.975  -1.754   3.662  0.00  0.00    +0.008 C 
ATOM     13  C   UNL     1      -1.325  -0.826   2.634  0.00  0.00    +0.037 C 
ATOM     14  C   UNL     1      -4.149  -2.414   4.714  0.00  0.00    +0.008 C 
BRANCH   5  15
ATOM     15  C   UNL     1       0.002  -0.004   0.002  0.00  0.00    +0.342 C 
ATOM     16  O   UNL     1       1.064  -0.598  -0.011  0.00  0.00    -0.245 OA
BRANCH  15  17
ATOM     17  O   UNL     1      -0.016   1.345   0.009  0.00  0.00    -0.461 OA
BRANCH  17  19
ATOM     18  C   UNL     1       1.047   3.535   0.011  0.00  0.00    +0.048 C 
ATOM     19  C   UNL     1       1.268   2.021   0.001  0.00  0.00    +0.229 C 
ENDBRANCH  17  19
ENDBRANCH  15  17
ENDBRANCH   5  15
ENDBRANCH   1   9
BRANCH   2  20
ATOM     20  C   UNL     1      -1.810  -1.002  -4.924  0.00  0.00    +0.198 C 
BRANCH  20  21
ATOM     21  N   UNL     1      -2.788  -1.568  -5.855  0.00  0.00    -0.335 N 
ATOM     22  H   UNL     1      -3.567  -2.037  -5.515  0.00  0.00    +0.147 HD
BRANCH  21  23
ATOM     23  C   UNL     1      -2.601  -1.435  -7.226  0.00  0.00    +0.028 A 
ATOM     24  C   UNL     1      -1.486  -0.757  -7.712  0.00  0.00    +0.024 A 
ATOM     25  C   UNL     1      -1.296  -0.628  -9.064  0.00  0.00    +0.017 A 
ATOM     26  C   UNL     1      -2.229  -1.169  -9.955  0.00  0.00    +0.059 A 
ATOM     27  C   UNL     1      -3.350  -1.844  -9.463  0.00  0.00    +0.017 A 
ATOM     28  C   UNL     1      -3.532  -1.974  -8.110  0.00  0.00    +0.024 A 
BRANCH  26  29
ATOM     29  C   UNL     1      -2.030  -1.028 -11.408  0.00  0.00    +0.339 C 
ATOM     30  O   UNL     1      -2.841  -1.498 -12.181  0.00  0.00    -0.245 OA
BRANCH  29  31
ATOM     31  O   UNL     1      -0.949  -0.377 -11.880  0.00  0.00    -0.458 OA
BRANCH  31  32
ATOM     32  C   UNL     1      -0.818  -0.276 -13.323  0.00  0.00    +0.177 C 
ATOM     33  C   UNL     1      -0.034  -1.480 -13.849  0.00  0.00    +0.044 C 
ATOM     34  C   UNL     1       0.104  -1.374 -15.369  0.00  0.00    +0.004 C 
ATOM     35  C   UNL     1       0.849  -0.086 -15.725  0.00  0.00    +0.000 C 
ATOM     36  C   UNL     1       0.065   1.118 -15.199  0.00  0.00    +0.004 C 
ATOM     37  C   UNL     1      -0.073   1.012 -13.679  0.00  0.00    +0.044 C 
ENDBRANCH  31  32
ENDBRANCH  29  31
ENDBRANCH  26  29
ENDBRANCH  21  23
ENDBRANCH  20  21
ENDBRANCH   2  20
TORSDOF 10
