REMARK  Name = ZINC23078125
REMARK  11 active torsions:
REMARK  status: ('A' for Active; 'I' for Inactive)
REMARK    1  A    between atoms: C_1  and  C_2
REMARK    2  A    between atoms: C_2  and  C_4
REMARK    3  A    between atoms: C_2  and  N_14
REMARK    4  A    between atoms: C_7  and  S_10
REMARK    5  A    between atoms: S_10  and  N_13
REMARK    6  A    between atoms: N_14  and  C_15
REMARK    7  A    between atoms: C_15  and  C_17
REMARK    8  A    between atoms: C_15  and  C_18
REMARK    9  A    between atoms: N_20  and  C_21
REMARK   10  A    between atoms: C_26  and  O_27
REMARK   11  A    between atoms: O_27  and  C_28
REMARK                            x       y       z     vdW  Elec       q    Type
REMARK                         _______ _______ _______ _____ _____    ______ ____
ROOT
ATOM      1  N   UNL     1      -0.718   2.027  -1.180  0.00  0.00    +0.391 N 
ATOM      2  H   UNL     1      -1.133   3.022  -0.960  0.00  0.00    -0.084 HD
ATOM      3  H   UNL     1      -1.537   1.331  -1.413  0.00  0.00    -0.084 HD
ENDROOT
BRANCH   1   5
ATOM      4  C   UNL     1       0.922   3.461  -2.298  0.00  0.00    -0.009 C 
ATOM      5  C   UNL     1       0.189   2.119  -2.332  0.00  0.00    -0.043 C 
BRANCH   5   6
ATOM      6  C   UNL     1      -0.607   2.013  -3.607  0.00  0.00    -0.062 A 
ATOM      7  C   UNL     1      -1.835   2.640  -3.710  0.00  0.00    +0.004 A 
ATOM      8  C   UNL     1      -2.562   2.547  -4.882  0.00  0.00    +0.029 A 
ATOM      9  C   UNL     1      -2.067   1.817  -5.947  0.00  0.00    +0.105 A 
ATOM     10  C   UNL     1      -0.842   1.185  -5.842  0.00  0.00    +0.029 A 
ATOM     11  C   UNL     1      -0.112   1.283  -4.672  0.00  0.00    +0.004 A 
BRANCH   9  12
ATOM     12  S   UNL     1      -2.998   1.692  -7.437  0.00  0.00    +0.056 S 
ATOM     13  O   UNL     1      -3.858   2.823  -7.475  0.00  0.00    -0.153 OA
ATOM     14  O   UNL     1      -2.069   1.407  -8.474  0.00  0.00    -0.153 OA
BRANCH  12  15
ATOM     15  N   UNL     1      -3.973   0.361  -7.296  0.00  0.00    -0.204 NA
ATOM     16  H   UNL     1      -4.574   0.247  -8.210  0.00  0.00    +0.144 HD
ATOM     17  H   UNL     1      -4.642   0.486  -6.431  0.00  0.00    +0.144 HD
ENDBRANCH  12  15
ENDBRANCH   9  12
ENDBRANCH   5   6
ENDBRANCH   1   5
BRANCH   1  18
ATOM     18  C   UNL     1      -0.009   1.539   0.011  0.00  0.00    +0.014 C 
ATOM     19  C   UNL     1       0.020   0.009  -0.005  0.00  0.00    -0.004 C 
BRANCH  18  20
ATOM     20  C   UNL     1      -0.722   2.015   1.250  0.00  0.00    +0.203 C 
ATOM     21  O   UNL     1      -1.722   2.694   1.152  0.00  0.00    -0.277 OA
ATOM     22  N   UNL     1      -0.247   1.686   2.468  0.00  0.00    -0.284 N 
ATOM     23  H   UNL     1       0.605   0.996   2.559  0.00  0.00    +0.155 HD
BRANCH  22  24
ATOM     24  C   UNL     1      -0.840   2.223   3.619  0.00  0.00    +0.076 A 
ATOM     25  C   UNL     1      -1.525   3.427   3.551  0.00  0.00    +0.027 A 
ATOM     26  C   UNL     1      -2.113   3.952   4.687  0.00  0.00    +0.002 A 
ATOM     27  C   UNL     1      -2.012   3.284   5.893  0.00  0.00    +0.004 A 
ATOM     28  C   UNL     1      -1.326   2.086   5.970  0.00  0.00    +0.047 A 
ATOM     29  C   UNL     1      -0.738   1.551   4.835  0.00  0.00    +0.141 A 
BRANCH  29  30
ATOM     30  O   UNL     1      -0.063   0.373   4.909  0.00  0.00    -0.493 OA
ATOM     31  C   UNL     1       0.000  -0.260   6.188  0.00  0.00    +0.277 C 
ENDBRANCH  29  30
ENDBRANCH  22  24
ENDBRANCH  18  20
ENDBRANCH   1  18
TORSDOF 8
