REMARK  Name = ZINC41023164
REMARK  15 active torsions:
REMARK  status: ('A' for Active; 'I' for Inactive)
REMARK    1  A    between atoms: C_1  and  C_2
REMARK    2  A    between atoms: C_2  and  C_3
REMARK    3  A    between atoms: C_3  and  S_4
REMARK    4  A    between atoms: S_4  and  C_5
REMARK    5  A    between atoms: C_10  and  C_28
REMARK    6  A    between atoms: C_12  and  C_16
REMARK    7  A    between atoms: C_13  and  C_15
REMARK    8  A    between atoms: N_18  and  C_19
REMARK    9  A    between atoms: C_24  and  O_25
REMARK   10  A    between atoms: O_25  and  C_26
REMARK   11  A    between atoms: C_26  and  C_27
REMARK   12  A    between atoms: C_31  and  C_34
REMARK   13  A    between atoms: C_34  and  C_35
REMARK   14  A    between atoms: C_34  and  C_36
REMARK   15  A    between atoms: C_34  and  C_37
REMARK                            x       y       z     vdW  Elec       q    Type
REMARK                         _______ _______ _______ _____ _____    ______ ____
ROOT
ATOM      1  C   UNL     1       1.493  -2.759  -2.796  0.00  0.00    +0.210 A 
ATOM      2  N   UNL     1       2.002  -1.866  -3.658  0.00  0.00    -0.187 NA
ATOM      3  C   UNL     1       2.586  -2.495  -4.642  0.00  0.00    +0.219 A 
ATOM      4  N   UNL     1       2.456  -3.827  -4.427  0.00  0.00    -0.220 N 
ATOM      5  N   UNL     1       1.757  -3.972  -3.229  0.00  0.00    -0.141 NA
ATOM      6  C   UNL     1       2.981  -4.846  -5.331  0.00  0.00    +0.177 C 
ATOM      7  C   UNL     1       3.910  -4.204  -6.326  0.00  0.00    +0.060 C 
ATOM      8  C   UNL     1       4.000  -2.876  -6.492  0.00  0.00    +0.018 C 
ATOM      9  N   UNL     1       3.250  -1.994  -5.753  0.00  0.00    -0.287 N 
ATOM     10  C   UNL     1       4.954  -2.334  -7.525  0.00  0.00    +0.061 C 
ATOM     11  H   UNL     1       3.187  -1.057  -5.998  0.00  0.00    +0.155 HD
ENDROOT
BRANCH   6  12
ATOM     12  C   UNL     1       1.840  -5.505  -6.063  0.00  0.00    -0.018 A 
ATOM     13  C   UNL     1       1.006  -4.750  -6.866  0.00  0.00    +0.006 A 
ATOM     14  C   UNL     1      -0.041  -5.354  -7.537  0.00  0.00    +0.004 A 
ATOM     15  C   UNL     1      -0.254  -6.714  -7.405  0.00  0.00    -0.042 A 
ATOM     16  C   UNL     1       0.581  -7.469  -6.602  0.00  0.00    +0.004 A 
ATOM     17  C   UNL     1       1.630  -6.865  -5.934  0.00  0.00    +0.006 A 
BRANCH  15  18
ATOM     18  C   UNL     1      -1.395  -7.372  -8.135  0.00  0.00    -0.013 C 
ATOM     19  C   UNL     1      -1.221  -7.170  -9.642  0.00  0.00    +0.015 C 
ATOM     20  C   UNL     1      -1.407  -8.869  -7.819  0.00  0.00    +0.015 C 
ATOM     21  C   UNL     1      -2.717  -6.746  -7.686  0.00  0.00    +0.015 C 
ENDBRANCH  15  18
ENDBRANCH   6  12
BRANCH   7  22
ATOM     22  C   UNL     1       4.728  -5.039  -7.123  0.00  0.00    +0.248 C 
ATOM     23  O   UNL     1       5.753  -5.507  -6.661  0.00  0.00    -0.270 OA
ATOM     24  N   UNL     1       4.372  -5.318  -8.393  0.00  0.00    -0.279 N 
ATOM     25  H   UNL     1       3.600  -4.883  -8.786  0.00  0.00    +0.155 HD
BRANCH  24  26
ATOM     26  C   UNL     1       5.117  -6.236  -9.143  0.00  0.00    +0.076 A 
ATOM     27  C   UNL     1       5.860  -7.218  -8.504  0.00  0.00    +0.027 A 
ATOM     28  C   UNL     1       6.594  -8.123  -9.247  0.00  0.00    +0.002 A 
ATOM     29  C   UNL     1       6.591  -8.052 -10.628  0.00  0.00    +0.004 A 
ATOM     30  C   UNL     1       5.854  -7.075 -11.272  0.00  0.00    +0.047 A 
ATOM     31  C   UNL     1       5.111  -6.168 -10.535  0.00  0.00    +0.142 A 
BRANCH  31  32
ATOM     32  O   UNL     1       4.381  -5.211 -11.168  0.00  0.00    -0.490 OA
BRANCH  32  33
ATOM     33  C   UNL     1       4.422  -5.203 -12.596  0.00  0.00    +0.226 C 
ATOM     34  C   UNL     1       3.546  -4.065 -13.124  0.00  0.00    +0.048 C 
ENDBRANCH  32  33
ENDBRANCH  31  32
ENDBRANCH  24  26
ENDBRANCH   7  22
BRANCH   1  35
ATOM     35  S   UNL     1       0.619  -2.368  -1.317  0.00  0.00    -0.084 S 
BRANCH  35  36
ATOM     36  C   UNL     1       0.589  -0.555  -1.289  0.00  0.00    +0.077 C 
BRANCH  36  38
ATOM     37  C   UNL     1      -0.175   1.455  -0.017  0.00  0.00    +0.004 C 
ATOM     38  C   UNL     1      -0.151  -0.075  -0.039  0.00  0.00    +0.008 C 
ENDBRANCH  36  38
ENDBRANCH  35  36
ENDBRANCH   1  35
TORSDOF 9
