REMARK  Name = ZINC03262617
REMARK  12 active torsions:
REMARK  status: ('A' for Active; 'I' for Inactive)
REMARK    1  A    between atoms: C_1  and  C_2
REMARK    2  A    between atoms: C_2  and  O_3
REMARK    3  A    between atoms: O_3  and  C_4
REMARK    4  A    between atoms: C_8  and  C_11
REMARK    5  A    between atoms: C_9  and  O_10
REMARK    6  A    between atoms: N_12  and  N_13
REMARK    7  A    between atoms: C_14  and  C_16
REMARK    8  A    between atoms: C_19  and  C_22
REMARK    9  A    between atoms: C_22  and  S_23
REMARK   10  A    between atoms: S_23  and  C_24
REMARK   11  A    between atoms: C_26  and  C_31
REMARK   12  A    between atoms: C_28  and  C_30
REMARK                            x       y       z     vdW  Elec       q    Type
REMARK                         _______ _______ _______ _____ _____    ______ ____
ROOT
ATOM      1  N   UNL     1       2.334   4.248   0.002  0.00  0.00    -0.203 N 
ATOM      2  C   UNL     1       1.172   3.564   0.009  0.00  0.00    +0.263 C 
ATOM      3  O   UNL     1       0.114   4.163   0.022  0.00  0.00    -0.268 OA
ATOM      4  H   UNL     1       3.178   3.770  -0.008  0.00  0.00    +0.178 HD
ENDROOT
BRANCH   2   5
ATOM      5  C   UNL     1       1.185   2.087   0.002  0.00  0.00    +0.038 A 
ATOM      6  C   UNL     1      -0.017   1.375   0.010  0.00  0.00    +0.013 A 
ATOM      7  C   UNL     1       0.002  -0.004   0.002  0.00  0.00    +0.005 A 
ATOM      8  C   UNL     1       1.208  -0.683  -0.013  0.00  0.00    -0.037 A 
ATOM      9  C   UNL     1       2.402   0.016  -0.020  0.00  0.00    +0.005 A 
ATOM     10  C   UNL     1       2.398   1.396  -0.012  0.00  0.00    +0.013 A 
BRANCH   8  11
ATOM     11  C   UNL     1       1.220  -2.189  -0.021  0.00  0.00    +0.112 C 
BRANCH  11  12
ATOM     12  S   UNL     1       1.209  -2.784  -1.731  0.00  0.00    -0.081 S 
BRANCH  12  13
ATOM     13  C   UNL     1       1.226  -4.523  -1.451  0.00  0.00    +0.189 A 
ATOM     14  N   UNL     1       1.248  -4.978  -0.206  0.00  0.00    -0.227 NA
ATOM     15  C   UNL     1       1.256  -6.277   0.039  0.00  0.00    +0.043 A 
ATOM     16  C   UNL     1       1.253  -7.166  -1.024  0.00  0.00    +0.046 A 
ATOM     17  C   UNL     1       1.236  -6.657  -2.314  0.00  0.00    +0.043 A 
ATOM     18  N   UNL     1       1.224  -5.346  -2.490  0.00  0.00    -0.227 NA
ATOM     19  C   UNL     1       1.232  -7.586  -3.500  0.00  0.00    +0.066 C 
ATOM     20  C   UNL     1       1.273  -6.786   1.458  0.00  0.00    +0.066 C 
ENDBRANCH  12  13
ENDBRANCH  11  12
ENDBRANCH   8  11
ENDBRANCH   2   5
BRANCH   1  22
ATOM     21  C   UNL     1       3.441   6.308   0.002  0.00  0.00    +0.142 C 
ATOM     22  N   UNL     1       2.322   5.649   0.009  0.00  0.00    -0.187 NA
BRANCH  21  27
ATOM     23  C   UNL     1       2.212   9.864   0.030  0.00  0.00    +0.162 A 
ATOM     24  C   UNL     1       3.412  10.557   0.022  0.00  0.00    +0.049 A 
ATOM     25  C   UNL     1       4.615   9.872   0.009  0.00  0.00    +0.004 A 
ATOM     26  C   UNL     1       4.631   8.493   0.002  0.00  0.00    +0.013 A 
ATOM     27  C   UNL     1       3.428   7.781   0.010  0.00  0.00    +0.040 A 
ATOM     28  C   UNL     1       2.212   8.475   0.019  0.00  0.00    +0.167 A 
BRANCH  28  29
ATOM     29  O   UNL     1       1.037   7.792   0.021  0.00  0.00    -0.503 OA
ATOM     30  H   UNL     1       0.701   7.590   0.904  0.00  0.00    +0.292 HD
ENDBRANCH  28  29
BRANCH  23  31
ATOM     31  O   UNL     1       1.034  10.544   0.043  0.00  0.00    -0.489 OA
BRANCH  31  33
ATOM     32  C   UNL     1      -0.305  12.556   0.063  0.00  0.00    +0.048 C 
ATOM     33  C   UNL     1       1.109  11.971   0.048  0.00  0.00    +0.226 C 
ENDBRANCH  31  33
ENDBRANCH  23  31
ENDBRANCH  21  27
ENDBRANCH   1  22
TORSDOF 9
