REMARK  Name = ZINC20759788
REMARK  8 active torsions:
REMARK  status: ('A' for Active; 'I' for Inactive)
REMARK    1  A    between atoms: C_1  and  O_2
REMARK    2  A    between atoms: O_2  and  C_3
REMARK    3  A    between atoms: C_5  and  C_11
REMARK    4  A    between atoms: C_7  and  O_9
REMARK    5  A    between atoms: O_9  and  C_10
REMARK    6  A    between atoms: N_13  and  C_14
REMARK    7  A    between atoms: C_14  and  C_15
REMARK    8  A    between atoms: C_15  and  C_16
REMARK                            x       y       z     vdW  Elec       q    Type
REMARK                         _______ _______ _______ _____ _____    ______ ____
ROOT
ATOM      1  C   UNL     1      -5.327  -8.193   0.030  0.00  0.00    +0.217 C 
ATOM      2  O   UNL     1      -4.303  -8.842   0.022  0.00  0.00    -0.276 OA
ATOM      3  N   UNL     1      -6.521  -8.818   0.038  0.00  0.00    -0.301 N 
ATOM      4  C   UNL     1      -7.771  -8.046   0.043  0.00  0.00    +0.110 C 
ATOM      5  C   UNL     1      -8.647  -8.520  -1.121  0.00  0.00    +0.047 C 
ATOM      6  C   UNL     1      -8.841 -10.033  -1.027  0.00  0.00    +0.064 C 
ATOM      7  C   UNL     1      -7.487 -10.736  -1.121  0.00  0.00    +0.047 C 
ATOM      8  C   UNL     1      -6.598 -10.286   0.037  0.00  0.00    +0.110 C 
ATOM      9  C   UNL     1      -9.734 -10.501  -2.148  0.00  0.00    +0.057 A 
ATOM     10  C   UNL     1     -10.741 -11.387  -1.973  0.00  0.00    +0.039 A 
ATOM     11  N   UNL     1     -11.328 -11.572  -3.184  0.00  0.00    -0.349 N 
ATOM     12  H   UNL     1     -12.082 -12.150  -3.378  0.00  0.00    +0.166 HD
ATOM     13  C   UNL     1     -10.661 -10.794  -4.069  0.00  0.00    +0.171 A 
ATOM     14  N   UNL     1      -9.708 -10.158  -3.436  0.00  0.00    -0.348 N 
ATOM     15  C   UNL     1     -11.079 -12.008  -0.642  0.00  0.00    +0.070 C 
ATOM     16  C   UNL     1      -9.888 -11.782   0.300  0.00  0.00    +0.088 C 
ATOM     17  N   UNL     1      -9.484 -10.370   0.254  0.00  0.00    -0.305 NA
ATOM     18  H   UNL     1      -8.883 -10.140   1.031  0.00  0.00    +0.123 HD
ATOM     19  H   UNL     1      -9.083  -9.536  -3.840  0.00  0.00    +0.166 HD
ENDROOT
BRANCH   1  20
ATOM     20  C   UNL     1      -5.265  -6.687   0.032  0.00  0.00    +0.114 C 
BRANCH  20  21
ATOM     21  C   UNL     1      -3.803  -6.237   0.022  0.00  0.00    +0.113 C 
BRANCH  21  24
ATOM     22  C   UNL     1      -2.549  -4.148   0.015  0.00  0.00    +0.244 C 
ATOM     23  O   UNL     1      -1.522  -4.799   0.007  0.00  0.00    -0.270 OA
ATOM     24  N   UNL     1      -3.743  -4.774   0.024  0.00  0.00    -0.311 N 
ATOM     25  H   UNL     1      -4.562  -4.254   0.030  0.00  0.00    +0.149 HD
BRANCH  22  28
ATOM     26  C   UNL     1      -1.200  -0.637   0.010  0.00  0.00    +0.124 A 
ATOM     27  C   UNL     1      -1.253  -2.022   0.009  0.00  0.00    +0.059 A 
ATOM     28  C   UNL     1      -2.488  -2.671   0.017  0.00  0.00    +0.044 A 
ATOM     29  C   UNL     1      -3.665  -1.922   0.027  0.00  0.00    +0.059 A 
ATOM     30  C   UNL     1      -3.603  -0.538   0.028  0.00  0.00    +0.124 A 
ATOM     31  C   UNL     1      -2.373   0.103   0.025  0.00  0.00    +0.091 A 
BRANCH  26  33
ATOM     32  C   UNL     1      -0.017   1.425   0.010  0.00  0.00    +0.277 C 
ATOM     33  O   UNL     1       0.002  -0.004   0.002  0.00  0.00    -0.495 OA
ENDBRANCH  26  33
BRANCH  30  34
ATOM     34  O   UNL     1      -4.750   0.192   0.037  0.00  0.00    -0.495 OA
ATOM     35  C   UNL     1      -4.613   1.614   0.038  0.00  0.00    +0.277 C 
ENDBRANCH  30  34
ENDBRANCH  22  28
ENDBRANCH  21  24
ENDBRANCH  20  21
ENDBRANCH   1  20
TORSDOF 6
