REMARK  Name = ZINC36648033
REMARK  11 active torsions:
REMARK  status: ('A' for Active; 'I' for Inactive)
REMARK    1  A    between atoms: C_1  and  C_2
REMARK    2  A    between atoms: C_2  and  N_3
REMARK    3  A    between atoms: N_3  and  C_4
REMARK    4  A    between atoms: N_3  and  C_6
REMARK    5  A    between atoms: C_4  and  C_5
REMARK    6  A    between atoms: C_6  and  C_7
REMARK    7  A    between atoms: C_7  and  N_8
REMARK    8  A    between atoms: C_14  and  C_18
REMARK    9  A    between atoms: C_19  and  C_21
REMARK   10  A    between atoms: N_27  and  S_28
REMARK   11  A    between atoms: S_28  and  C_31
REMARK                            x       y       z     vdW  Elec       q    Type
REMARK                         _______ _______ _______ _____ _____    ______ ____
ROOT
ATOM      1  N   UNL     1      -2.202  -3.917   0.012  0.00  0.00    -0.251 N 
ATOM      2  C   UNL     1      -2.271  -4.534   1.250  0.00  0.00    +0.168 A 
ATOM      3  N   UNL     1      -2.459  -3.992   2.431  0.00  0.00    -0.224 NA
ATOM      4  C   UNL     1      -2.505  -4.722   3.566  0.00  0.00    +0.080 A 
ATOM      5  C   UNL     1      -2.699  -4.266   4.891  0.00  0.00    +0.029 A 
ATOM      6  C   UNL     1      -2.718  -5.148   5.939  0.00  0.00    +0.005 A 
ATOM      7  C   UNL     1      -2.550  -6.511   5.743  0.00  0.00    -0.049 A 
ATOM      8  C   UNL     1      -2.358  -6.992   4.461  0.00  0.00    +0.020 A 
ATOM      9  C   UNL     1      -2.337  -6.116   3.405  0.00  0.00    +0.041 A 
ATOM     10  S   UNL     1      -2.135  -6.271   1.646  0.00  0.00    -0.052 S 
ATOM     11  C   UNL     1      -2.575  -7.458   6.915  0.00  0.00    +0.044 C 
ATOM     12  C   UNL     1      -2.007  -4.655  -1.099  0.00  0.00    +0.240 C 
ATOM     13  O   UNL     1      -1.998  -5.865  -1.028  0.00  0.00    -0.273 OA
ENDROOT
BRANCH  12  14
ATOM     14  C   UNL     1      -1.801  -3.976  -2.428  0.00  0.00    +0.166 C 
ATOM     15  C   UNL     1      -0.444  -4.385  -3.009  0.00  0.00    +0.030 C 
ATOM     16  C   UNL     1      -0.300  -3.804  -4.418  0.00  0.00    +0.003 C 
ATOM     17  C   UNL     1      -1.401  -4.369  -5.318  0.00  0.00    +0.017 C 
ATOM     18  C   UNL     1      -2.769  -3.960  -4.764  0.00  0.00    +0.110 C 
ATOM     19  N   UNL     1      -2.860  -4.386  -3.360  0.00  0.00    -0.164 NA
BRANCH  19  20
ATOM     20  S   UNL     1      -4.130  -5.313  -2.840  0.00  0.00    +0.068 S 
ATOM     21  O   UNL     1      -4.240  -5.101  -1.439  0.00  0.00    -0.152 OA
ATOM     22  O   UNL     1      -5.206  -5.068  -3.735  0.00  0.00    -0.152 OA
BRANCH  20  23
ATOM     23  C   UNL     1      -3.667  -6.999  -3.058  0.00  0.00    +0.143 A 
ATOM     24  C   UNL     1      -3.170  -7.873  -2.149  0.00  0.00    +0.036 A 
ATOM     25  C   UNL     1      -2.876  -9.162  -2.550  0.00  0.00    +0.010 A 
ATOM     26  C   UNL     1      -3.093  -9.516  -3.840  0.00  0.00    +0.047 A 
ATOM     27  S   UNL     1      -3.739  -8.002  -4.533  0.00  0.00    -0.077 S 
ENDBRANCH  20  23
ENDBRANCH  19  20
ENDBRANCH  12  14
BRANCH   1  28
ATOM     28  C   UNL     1      -2.340  -2.462  -0.090  0.00  0.00    +0.097 C 
BRANCH  28  29
ATOM     29  C   UNL     1      -0.953  -1.816  -0.088  0.00  0.00    -0.059 C 
BRANCH  29  30
ATOM     30  N   UNL     1      -1.085  -0.372  -0.321  0.00  0.00    +0.380 N 
ATOM     31  H   UNL     1      -1.602  -0.214  -1.173  0.00  0.00    -0.082 HD
BRANCH  30  33
ATOM     32  C   UNL     1      -2.046   1.723   0.508  0.00  0.00    -0.017 C 
ATOM     33  C   UNL     1      -1.799   0.243   0.807  0.00  0.00    -0.082 C 
ENDBRANCH  30  33
BRANCH  30  34
ATOM     34  C   UNL     1       0.251   0.229  -0.440  0.00  0.00    -0.082 C 
ATOM     35  C   UNL     1       0.932  -0.289  -1.708  0.00  0.00    -0.017 C 
ENDBRANCH  30  34
ENDBRANCH  29  30
ENDBRANCH  28  29
ENDBRANCH   1  28
TORSDOF 8
