REMARK  Name = ZINC67550915
REMARK  11 active torsions:
REMARK  status: ('A' for Active; 'I' for Inactive)
REMARK    1  A    between atoms: C_1  and  C_2
REMARK    2  A    between atoms: N_5  and  C_8
REMARK    3  A    between atoms: C_8  and  C_9
REMARK    4  A    between atoms: C_9  and  C_11
REMARK    5  A    between atoms: C_9  and  O_27
REMARK    6  A    between atoms: C_11  and  N_12
REMARK    7  A    between atoms: N_15  and  C_16
REMARK    8  A    between atoms: C_19  and  O_23
REMARK    9  A    between atoms: O_23  and  C_24
REMARK   10  A    between atoms: C_24  and  C_25
REMARK   11  A    between atoms: C_24  and  C_26
REMARK                            x       y       z     vdW  Elec       q    Type
REMARK                         _______ _______ _______ _____ _____    ______ ____
ROOT
ATOM      1  N   UNL     1       2.246  -6.096   4.159  0.00  0.00    -0.297 N 
ATOM      2  C   UNL     1       2.167  -7.428   4.348  0.00  0.00    +0.304 C 
ATOM      3  O   UNL     1       2.055  -8.172   3.393  0.00  0.00    -0.253 OA
ATOM      4  N   UNL     1       2.213  -7.934   5.596  0.00  0.00    -0.267 N 
ATOM      5  H   UNL     1       2.336  -5.502   4.920  0.00  0.00    +0.150 HD
ATOM      6  H   UNL     1       2.221  -7.339   6.362  0.00  0.00    +0.156 HD
ENDROOT
BRANCH   4   7
ATOM      7  C   UNL     1       2.248  -9.324   5.788  0.00  0.00    +0.070 A 
ATOM      8  C   UNL     1       2.625 -10.159   4.746  0.00  0.00    +0.030 A 
ATOM      9  C   UNL     1       2.661 -11.527   4.936  0.00  0.00    +0.047 A 
ATOM     10  C   UNL     1       2.320 -12.067   6.168  0.00  0.00    +0.124 A 
ATOM     11  C   UNL     1       1.943 -11.234   7.210  0.00  0.00    +0.085 A 
ATOM     12  C   UNL     1       1.912  -9.864   7.024  0.00  0.00    +0.148 A 
ATOM     13  F   UNL     1       1.550  -9.051   8.041  0.00  0.00    -0.203 F 
BRANCH  10  14
ATOM     14  O   UNL     1       2.356 -13.413   6.352  0.00  0.00    -0.489 OA
BRANCH  14  15
ATOM     15  C   UNL     1       2.665 -14.217   5.212  0.00  0.00    +0.167 C 
ATOM     16  C   UNL     1       4.184 -14.308   5.049  0.00  0.00    +0.051 C 
ATOM     17  C   UNL     1       2.088 -15.620   5.405  0.00  0.00    +0.051 C 
ENDBRANCH  14  15
ENDBRANCH  10  14
ENDBRANCH   4   7
BRANCH   1  18
ATOM     18  C   UNL     1       2.197  -5.545   2.802  0.00  0.00    +0.135 C 
BRANCH  18  19
ATOM     19  C   UNL     1       2.305  -4.020   2.867  0.00  0.00    +0.115 C 
BRANCH  19  20
ATOM     20  O   UNL     1       3.589  -3.655   3.376  0.00  0.00    -0.392 OA
ATOM     21  H   UNL     1       4.330  -3.971   2.841  0.00  0.00    +0.210 HD
ENDBRANCH  19  20
BRANCH  19  22
ATOM     22  C   UNL     1       2.129  -3.436   1.463  0.00  0.00    -0.046 C 
BRANCH  22  27
ATOM     23  C   UNL     1       1.399   2.212   1.165  0.00  0.00    +0.007 C 
ATOM     24  C   UNL     1       1.201   0.700   1.033  0.00  0.00    -0.018 C 
ATOM     25  C   UNL     1       1.177   0.064   2.426  0.00  0.00    -0.016 C 
ATOM     26  C   UNL     1       1.058  -1.455   2.285  0.00  0.00    -0.078 C 
ATOM     27  N   UNL     1       2.206  -1.971   1.529  0.00  0.00    +0.381 N 
ATOM     28  C   UNL     1       2.195  -1.420   0.169  0.00  0.00    -0.078 C 
ATOM     29  C   UNL     1       2.357   0.100   0.229  0.00  0.00    -0.016 C 
ATOM     30  H   UNL     1       3.061  -1.702   1.993  0.00  0.00    -0.082 HD
ENDBRANCH  22  27
ENDBRANCH  19  22
ENDBRANCH  18  19
ENDBRANCH   1  18
TORSDOF 8
