REMARK  Name = ZINC50103304
REMARK  9 active torsions:
REMARK  status: ('A' for Active; 'I' for Inactive)
REMARK    1  A    between atoms: C_3  and  N_9
REMARK    2  A    between atoms: C_10  and  C_12
REMARK    3  A    between atoms: C_12  and  N_13
REMARK    4  A    between atoms: N_13  and  C_14
REMARK    5  A    between atoms: N_13  and  C_17
REMARK    6  A    between atoms: C_14  and  C_15
REMARK    7  A    between atoms: C_15  and  O_16
REMARK    8  A    between atoms: C_17  and  C_18
REMARK    9  A    between atoms: C_18  and  O_19
REMARK                            x       y       z     vdW  Elec       q    Type
REMARK                         _______ _______ _______ _____ _____    ______ ____
ROOT
ATOM      1  N   UNL     1       5.382   2.761   2.014  0.00  0.00    -0.286 N 
ATOM      2  C   UNL     1       5.030   4.014   1.662  0.00  0.00    +0.201 C 
ATOM      3  O   UNL     1       5.108   4.915   2.469  0.00  0.00    -0.278 OA
ATOM      4  H   UNL     1       5.397   2.056   1.348  0.00  0.00    +0.155 HD
ENDROOT
BRANCH   1   7
ATOM      5  C   UNL     1       5.604   3.006   5.677  0.00  0.00    +0.017 A 
ATOM      6  C   UNL     1       5.263   3.288   4.368  0.00  0.00    +0.026 A 
ATOM      7  C   UNL     1       5.727   2.478   3.341  0.00  0.00    +0.052 A 
ATOM      8  C   UNL     1       6.534   1.384   3.632  0.00  0.00    +0.063 A 
ATOM      9  C   UNL     1       6.871   1.107   4.943  0.00  0.00    +0.037 A 
ATOM     10  C   UNL     1       6.407   1.917   5.965  0.00  0.00    +0.019 A 
ATOM     11 BR   UNL     1       6.872   1.535   7.757  0.00  0.00    -0.050 Br
ATOM     12 CL   UNL     1       7.116   0.368   2.351  0.00  0.00    -0.082 Cl
ENDBRANCH   1   7
BRANCH   2  13
ATOM     13  C   UNL     1       4.539   4.294   0.265  0.00  0.00    +0.019 C 
BRANCH  13  14
ATOM     14  N   UNL     1       4.355   5.741   0.091  0.00  0.00    +0.388 N 
ATOM     15  H   UNL     1       3.765   6.096   0.829  0.00  0.00    -0.081 HD
BRANCH  14  16
ATOM     16  C   UNL     1       5.662   6.411   0.145  0.00  0.00    -0.050 C 
BRANCH  16  17
ATOM     17  C   UNL     1       5.461   7.926   0.090  0.00  0.00    +0.137 C 
BRANCH  17  18
ATOM     18  O   UNL     1       4.766   8.358   1.262  0.00  0.00    -0.397 OA
ATOM     19  H   UNL     1       4.604   9.311   1.294  0.00  0.00    +0.209 HD
ENDBRANCH  17  18
ENDBRANCH  16  17
ENDBRANCH  14  16
BRANCH  14  20
ATOM     20  C   UNL     1       3.725   6.002  -1.210  0.00  0.00    -0.050 C 
BRANCH  20  21
ATOM     21  C   UNL     1       2.303   5.436  -1.210  0.00  0.00    +0.137 C 
BRANCH  21  22
ATOM     22  O   UNL     1       1.509   6.143  -0.255  0.00  0.00    -0.397 OA
ATOM     23  H   UNL     1       0.593   5.837  -0.201  0.00  0.00    +0.209 HD
ENDBRANCH  21  22
ENDBRANCH  20  21
ENDBRANCH  14  20
ENDBRANCH  13  14
ENDBRANCH   2  13
TORSDOF 9
