REMARK  Name = ZINC63515502
REMARK  7 active torsions:
REMARK  status: ('A' for Active; 'I' for Inactive)
REMARK    1  A    between atoms: C_1  and  C_2
REMARK    2  A    between atoms: C_9  and  C_14
REMARK    3  A    between atoms: C_14  and  N_15
REMARK    4  A    between atoms: N_15  and  C_16
REMARK    5  A    between atoms: C_19  and  N_24
REMARK    6  A    between atoms: C_20  and  C_22
REMARK    7  A    between atoms: C_22  and  O_23
REMARK                            x       y       z     vdW  Elec       q    Type
REMARK                         _______ _______ _______ _____ _____    ______ ____
ROOT
ATOM      1  N   UNL     1      -1.014  -6.357   3.119  0.00  0.00    -0.343 N 
ATOM      2  H   UNL     1      -0.228  -6.814   2.782  0.00  0.00    +0.146 HD
ENDROOT
BRANCH   1   3
ATOM      3  C   UNL     1      -2.019  -7.082   3.772  0.00  0.00    +0.028 A 
ATOM      4  C   UNL     1      -3.147  -6.429   4.250  0.00  0.00    +0.025 A 
ATOM      5  C   UNL     1      -4.138  -7.144   4.894  0.00  0.00    +0.025 A 
ATOM      6  C   UNL     1      -4.005  -8.516   5.064  0.00  0.00    +0.035 A 
ATOM      7  C   UNL     1      -2.876  -9.168   4.586  0.00  0.00    +0.001 A 
ATOM      8  C   UNL     1      -1.889  -8.454   3.937  0.00  0.00    +0.030 A 
BRANCH   6   9
ATOM      9  N   UNL     1      -5.008  -9.240   5.718  0.00  0.00    -0.330 N 
ATOM     10  C   UNL     1      -4.967  -9.429   7.174  0.00  0.00    +0.105 C 
ATOM     11  C   UNL     1      -6.300  -8.963   7.770  0.00  0.00    +0.019 C 
ATOM     12  C   UNL     1      -7.449  -9.695   7.073  0.00  0.00    +0.003 C 
ATOM     13  C   UNL     1      -7.442  -9.356   5.581  0.00  0.00    +0.019 C 
ATOM     14  C   UNL     1      -6.126  -9.821   4.961  0.00  0.00    +0.105 C 
ENDBRANCH   6   9
BRANCH   7  15
ATOM     15  C   UNL     1      -2.732 -10.657   4.771  0.00  0.00    +0.193 C 
BRANCH  15  16
ATOM     16  O   UNL     1      -1.496 -11.091   4.199  0.00  0.00    -0.390 OA
ATOM     17  H   UNL     1      -1.337 -12.041   4.281  0.00  0.00    +0.210 HD
ENDBRANCH  15  16
ENDBRANCH   7  15
ENDBRANCH   1   3
BRANCH   1  18
ATOM     18  C   UNL     1      -1.152  -4.909   2.945  0.00  0.00    +0.118 C 
BRANCH  18  27
ATOM     19  C   UNL     1      -0.018   1.503   0.010  0.00  0.00    +0.044 C 
ATOM     20  C   UNL     1       0.002  -0.004   0.002  0.00  0.00    -0.050 A 
ATOM     21  C   UNL     1       0.005  -0.680  -1.218  0.00  0.00    +0.005 A 
ATOM     22  C   UNL     1       0.024  -2.036  -1.305  0.00  0.00    +0.024 A 
ATOM     23  C   UNL     1       0.041  -2.826  -0.141  0.00  0.00    +0.040 A 
ATOM     24  N   UNL     1       0.059  -4.155  -0.238  0.00  0.00    -0.284 N 
ATOM     25  C   UNL     1       0.075  -4.956   0.815  0.00  0.00    +0.226 C 
ATOM     26  O   UNL     1       0.092  -6.163   0.663  0.00  0.00    -0.275 OA
ATOM     27  C   UNL     1       0.073  -4.365   2.207  0.00  0.00    +0.115 C 
ATOM     28  C   UNL     1       0.053  -2.854   2.322  0.00  0.00    -0.003 C 
ATOM     29  C   UNL     1       0.037  -2.138   1.162  0.00  0.00    -0.007 A 
ATOM     30  C   UNL     1       0.022  -0.675   1.183  0.00  0.00    +0.012 A 
ATOM     31  H   UNL     1       0.061  -4.554  -1.122  0.00  0.00    +0.155 HD
ENDBRANCH  18  27
ENDBRANCH   1  18
TORSDOF 6
