REMARK  Name = ZINC32511582
REMARK  10 active torsions:
REMARK  status: ('A' for Active; 'I' for Inactive)
REMARK    1  A    between atoms: C_1  and  C_2
REMARK    2  A    between atoms: C_2  and  C_4
REMARK    3  A    between atoms: C_2  and  O_22
REMARK    4  A    between atoms: C_4  and  N_5
REMARK    5  A    between atoms: N_5  and  C_6
REMARK    6  A    between atoms: C_6  and  C_7
REMARK    7  A    between atoms: C_7  and  N_8
REMARK    8  A    between atoms: N_8  and  C_9
REMARK    9  A    between atoms: C_9  and  C_10
REMARK   10  A    between atoms: C_13  and  C_15
REMARK                            x       y       z     vdW  Elec       q    Type
REMARK                         _______ _______ _______ _____ _____    ______ ____
ROOT
ATOM      1  N   UNL     1       2.204  -4.483   3.605  0.00  0.00    +0.383 N 
ATOM      2  H   UNL     1       3.150  -4.134   3.598  0.00  0.00    -0.085 HD
ATOM      3  H   UNL     1       1.731  -4.157   4.435  0.00  0.00    -0.085 HD
ENDROOT
BRANCH   1   4
ATOM      4  C   UNL     1       1.493  -3.996   2.415  0.00  0.00    -0.102 C 
BRANCH   4   5
ATOM      5  C   UNL     1       1.472  -2.466   2.424  0.00  0.00    -0.102 C 
BRANCH   5   6
ATOM      6  N   UNL     1       0.762  -1.980   1.234  0.00  0.00    +0.379 N 
ATOM      7  H   UNL     1      -0.185  -2.329   1.241  0.00  0.00    -0.086 HD
ATOM      8  H   UNL     1       1.234  -2.305   0.403  0.00  0.00    -0.086 HD
BRANCH   6   9
ATOM      9  C   UNL     1       0.742  -0.511   1.242  0.00  0.00    -0.051 C 
BRANCH   9  11
ATOM     10  C   UNL     1      -0.019   1.526   0.010  0.00  0.00    +0.035 C 
ATOM     11  C   UNL     1       0.002  -0.004   0.002  0.00  0.00    +0.095 C 
BRANCH  11  12
ATOM     12  O   UNL     1       0.671  -0.465  -1.174  0.00  0.00    -0.394 OA
ATOM     13  H   UNL     1       0.256  -0.181  -1.999  0.00  0.00    +0.210 HD
ENDBRANCH  11  12
ENDBRANCH   9  11
ENDBRANCH   6   9
ENDBRANCH   5   6
ENDBRANCH   4   5
ENDBRANCH   1   4
BRANCH   1  14
ATOM     14  C   UNL     1       2.224  -5.952   3.597  0.00  0.00    -0.007 C 
BRANCH  14  15
ATOM     15  C   UNL     1       2.953  -6.451   4.818  0.00  0.00    +0.089 A 
ATOM     16  C   UNL     1       2.389  -6.732   6.009  0.00  0.00    +0.043 A 
ATOM     17  C   UNL     1       3.423  -7.166   6.863  0.00  0.00    +0.050 A 
ATOM     18  C   UNL     1       4.572  -7.125   6.138  0.00  0.00    +0.135 A 
ATOM     19  O   UNL     1       4.271  -6.695   4.898  0.00  0.00    -0.462 OA
BRANCH  18  20
ATOM     20  C   UNL     1       5.918  -7.494   6.625  0.00  0.00    +0.017 A 
ATOM     21  C   UNL     1       6.091  -7.939   7.937  0.00  0.00    +0.012 A 
ATOM     22  C   UNL     1       7.350  -8.282   8.385  0.00  0.00    +0.016 A 
ATOM     23  C   UNL     1       8.440  -8.186   7.537  0.00  0.00    +0.018 A 
ATOM     24  C   UNL     1       8.275  -7.746   6.234  0.00  0.00    +0.016 A 
ATOM     25  C   UNL     1       7.020  -7.406   5.772  0.00  0.00    +0.012 A 
ATOM     26 BR   UNL     1      10.162  -8.658   8.159  0.00  0.00    -0.050 Br
ENDBRANCH  18  20
ENDBRANCH  14  15
ENDBRANCH   1  14
TORSDOF 9
