REMARK  Name = ZINC09510749
REMARK  12 active torsions:
REMARK  status: ('A' for Active; 'I' for Inactive)
REMARK    1  A    between atoms: C_1  and  C_2
REMARK    2  A    between atoms: C_5  and  C_8
REMARK    3  A    between atoms: C_10  and  C_14
REMARK    4  A    between atoms: C_17  and  S_20
REMARK    5  A    between atoms: N_18  and  N_19
REMARK    6  A    between atoms: S_20  and  C_21
REMARK    7  A    between atoms: C_21  and  C_22
REMARK    8  A    between atoms: N_24  and  C_25
REMARK    9  A    between atoms: C_26  and  C_34
REMARK   10  A    between atoms: C_30  and  C_31
REMARK   11  A    between atoms: C_31  and  C_32
REMARK   12  A    between atoms: C_31  and  C_33
REMARK                            x       y       z     vdW  Elec       q    Type
REMARK                         _______ _______ _______ _____ _____    ______ ____
ROOT
ATOM      1  C   UNL     1       2.174  -7.816   1.783  0.00  0.00    +0.199 A 
ATOM      2  N   UNL     1       1.501  -7.760   2.910  0.00  0.00    -0.125 NA
ATOM      3  N   UNL     1       1.267  -8.948   3.341  0.00  0.00    -0.120 NA
ATOM      4  C   UNL     1       1.776  -9.836   2.516  0.00  0.00    +0.209 A 
ATOM      5  N   UNL     1       2.366  -9.149   1.494  0.00  0.00    -0.223 N 
ENDROOT
BRANCH   1   8
ATOM      6  C   UNL     1       2.895  -4.609   0.144  0.00  0.00    +0.093 A 
ATOM      7  C   UNL     1       2.208  -5.376   1.099  0.00  0.00    +0.061 A 
ATOM      8  C   UNL     1       2.632  -6.670   0.978  0.00  0.00    +0.105 A 
ATOM      9  N   UNL     1       3.557  -6.706  -0.026  0.00  0.00    -0.273 N 
ATOM     10  H   UNL     1       4.031  -7.493  -0.338  0.00  0.00    +0.189 HD
ATOM     11  N   UNL     1       3.696  -5.407  -0.530  0.00  0.00    -0.173 NA
BRANCH   6  16
ATOM     12  C   UNL     1       2.289   1.057  -0.697  0.00  0.00    +0.044 C 
ATOM     13  C   UNL     1       2.448  -0.426  -0.477  0.00  0.00    -0.050 A 
ATOM     14  C   UNL     1       3.330  -1.148  -1.260  0.00  0.00    +0.004 A 
ATOM     15  C   UNL     1       3.479  -2.506  -1.062  0.00  0.00    +0.010 A 
ATOM     16  C   UNL     1       2.739  -3.149  -0.072  0.00  0.00    +0.002 A 
ATOM     17  C   UNL     1       1.852  -2.416   0.713  0.00  0.00    +0.010 A 
ATOM     18  C   UNL     1       1.714  -1.058   0.511  0.00  0.00    +0.004 A 
ENDBRANCH   6  16
ENDBRANCH   1   8
BRANCH   5  19
ATOM     19  N   UNL     1       3.013  -9.673   0.411  0.00  0.00    -0.295 N 
ATOM     20  H   UNL     1       3.995  -9.800   0.604  0.00  0.00    +0.163 HD
ATOM     21  H   UNL     1       2.587 -10.541   0.121  0.00  0.00    +0.163 HD
ENDBRANCH   5  19
BRANCH   4  22
ATOM     22  S   UNL     1       1.705 -11.588   2.693  0.00  0.00    -0.075 S 
BRANCH  22  23
ATOM     23  C   UNL     1       0.788 -11.836   4.239  0.00  0.00    +0.173 C 
BRANCH  23  24
ATOM     24  C   UNL     1       0.654 -13.312   4.512  0.00  0.00    +0.228 C 
ATOM     25  O   UNL     1       1.130 -14.117   3.740  0.00  0.00    -0.275 OA
ATOM     26  N   UNL     1       0.004 -13.737   5.614  0.00  0.00    -0.284 N 
ATOM     27  H   UNL     1      -0.329 -13.093   6.259  0.00  0.00    +0.155 HD
BRANCH  26  28
ATOM     28  C   UNL     1      -0.189 -15.106   5.828  0.00  0.00    +0.040 A 
ATOM     29  C   UNL     1      -0.766 -15.890   4.837  0.00  0.00    -0.029 A 
ATOM     30  C   UNL     1      -0.956 -17.241   5.051  0.00  0.00    +0.005 A 
ATOM     31  C   UNL     1      -0.571 -17.813   6.250  0.00  0.00    +0.001 A 
ATOM     32  C   UNL     1       0.004 -17.035   7.238  0.00  0.00    +0.006 A 
ATOM     33  C   UNL     1       0.202 -15.684   7.028  0.00  0.00    -0.023 A 
ATOM     34  C   UNL     1      -1.186 -15.267   3.531  0.00  0.00    +0.045 C 
BRANCH  33  35
ATOM     35  C   UNL     1       0.835 -14.839   8.102  0.00  0.00    +0.015 C 
ATOM     36  C   UNL     1      -0.021 -14.899   9.369  0.00  0.00    +0.012 C 
ATOM     37  C   UNL     1       2.237 -15.368   8.408  0.00  0.00    +0.012 C 
ENDBRANCH  33  35
ENDBRANCH  26  28
ENDBRANCH  23  24
ENDBRANCH  22  23
ENDBRANCH   4  22
TORSDOF 8
