REMARK  Name = ZINC17863242
REMARK  7 active torsions:
REMARK  status: ('A' for Active; 'I' for Inactive)
REMARK    1  A    between atoms: C_1  and  C_2
REMARK    2  A    between atoms: C_2  and  O_3
REMARK    3  A    between atoms: O_3  and  C_4
REMARK    4  A    between atoms: C_9  and  C_10
REMARK    5  A    between atoms: C_10  and  N_11
REMARK    6  A    between atoms: N_11  and  C_12
REMARK    7  A    between atoms: C_21  and  O_24
REMARK                            x       y       z     vdW  Elec       q    Type
REMARK                         _______ _______ _______ _____ _____    ______ ____
ROOT
ATOM      1  N   UNL     1      -0.065   1.119  -2.440  0.00  0.00    +0.386 N 
ATOM      2  H   UNL     1      -0.050   0.019  -2.429  0.00  0.00    -0.085 HD
ATOM      3  H   UNL     1       0.967   1.500  -2.431  0.00  0.00    -0.085 HD
ENDROOT
BRANCH   1   4
ATOM      4  C   UNL     1      -0.753   1.593  -1.232  0.00  0.00    -0.065 C 
ATOM      5  C   UNL     1      -0.773   3.123  -1.223  0.00  0.00    -0.009 C 
ATOM      6  C   UNL     1      -1.490   3.616   0.036  0.00  0.00    -0.009 C 
ATOM      7  C   UNL     1      -2.925   3.086   0.047  0.00  0.00    +0.007 C 
ATOM      8  C   UNL     1      -2.904   1.556   0.038  0.00  0.00    -0.009 C 
ATOM      9  C   UNL     1      -2.188   1.063  -1.221  0.00  0.00    -0.009 C 
ATOM     10  C   UNL     1      -2.164   1.050   1.278  0.00  0.00    +0.038 C 
ATOM     11  C   UNL     1      -0.729   1.579   1.267  0.00  0.00    +0.065 C 
ATOM     12  C   UNL     1      -0.750   3.109   1.275  0.00  0.00    +0.038 C 
ATOM     13  C   UNL     1      -0.013   1.086   0.008  0.00  0.00    +0.022 C 
BRANCH  11  14
ATOM     14  O   UNL     1      -0.038   1.106   2.425  0.00  0.00    -0.389 OA
ATOM     15  H   UNL     1       1.013   1.385   2.590  0.00  0.00    +0.210 HD
ENDBRANCH  11  14
ENDBRANCH   1   4
BRANCH   1  16
ATOM     16  C   UNL     1      -0.749   1.587  -3.653  0.00  0.00    -0.042 C 
BRANCH  16  22
ATOM     17  C   UNL     1      -0.210  -0.220  -5.305  0.00  0.00    +0.122 A 
ATOM     18  C   UNL     1       0.465  -0.681  -6.426  0.00  0.00    +0.047 A 
ATOM     19  C   UNL     1       1.328   0.156  -7.105  0.00  0.00    +0.019 A 
ATOM     20  C   UNL     1       1.519   1.455  -6.669  0.00  0.00    +0.018 A 
ATOM     21  C   UNL     1       0.844   1.919  -5.554  0.00  0.00    +0.020 A 
ATOM     22  C   UNL     1      -0.017   1.083  -4.869  0.00  0.00    -0.022 A 
ATOM     23 BR   UNL     1       2.701   2.600  -7.601  0.00  0.00    -0.050 Br
BRANCH  17  24
ATOM     24  O   UNL     1      -1.060  -1.042  -4.636  0.00  0.00    -0.492 OA
BRANCH  24  26
ATOM     25  C   UNL     1      -2.200  -3.141  -4.265  0.00  0.00    +0.048 C 
ATOM     26  C   UNL     1      -1.211  -2.370  -5.142  0.00  0.00    +0.225 C 
ENDBRANCH  24  26
ENDBRANCH  17  24
ENDBRANCH  16  22
ENDBRANCH   1  16
TORSDOF 6
