REMARK  Name = ZINC45589913
REMARK  10 active torsions:
REMARK  status: ('A' for Active; 'I' for Inactive)
REMARK    1  A    between atoms: C_1  and  C_2
REMARK    2  A    between atoms: C_2  and  C_3
REMARK    3  A    between atoms: C_3  and  N_4
REMARK    4  A    between atoms: N_4  and  C_5
REMARK    5  A    between atoms: C_5  and  C_6
REMARK    6  A    between atoms: C_5  and  C_7
REMARK    7  A    between atoms: C_5  and  C_19
REMARK    8  A    between atoms: C_7  and  C_8
REMARK    9  A    between atoms: C_8  and  S_9
REMARK   10  A    between atoms: S_9  and  C_10
REMARK                            x       y       z     vdW  Elec       q    Type
REMARK                         _______ _______ _______ _____ _____    ______ ____
ROOT
ATOM      1  C   UNL     1       1.472  -2.466   2.424  0.00  0.00    +0.008 C 
ATOM      2  C   UNL     1       0.756  -1.973   3.682  0.00  0.00    -0.001 C 
ENDROOT
BRANCH   1   3
ATOM      3  C   UNL     1       2.886  -1.945   2.413  0.00  0.00    +0.199 C 
ATOM      4  O   UNL     1       3.433  -1.655   3.456  0.00  0.00    -0.278 OA
ATOM      5  N   UNL     1       3.543  -1.801   1.245  0.00  0.00    -0.330 N 
ATOM      6  H   UNL     1       3.105  -2.033   0.411  0.00  0.00    +0.145 HD
ATOM      7  H   UNL     1       4.453  -1.465   1.238  0.00  0.00    +0.145 HD
ENDBRANCH   1   3
BRANCH   1   8
ATOM      8  N   UNL     1       0.762  -1.980   1.234  0.00  0.00    +0.388 N 
ATOM      9  H   UNL     1      -0.185  -2.329   1.241  0.00  0.00    -0.084 HD
ATOM     10  H   UNL     1       1.234  -2.305   0.403  0.00  0.00    -0.084 HD
BRANCH   8  11
ATOM     11  C   UNL     1       0.742  -0.511   1.242  0.00  0.00    -0.081 C 
BRANCH  11  13
ATOM     12  C   UNL     1      -0.019   1.526   0.010  0.00  0.00    +0.002 C 
ATOM     13  C   UNL     1       0.002  -0.004   0.002  0.00  0.00    -0.022 C 
ENDBRANCH  11  13
ENDBRANCH   8  11
ENDBRANCH   1   8
BRANCH   1  14
ATOM     14  C   UNL     1       1.493  -3.996   2.415  0.00  0.00    +0.007 C 
BRANCH  14  15
ATOM     15  C   UNL     1       2.233  -4.503   3.655  0.00  0.00    +0.073 C 
BRANCH  15  16
ATOM     16  S   UNL     1       2.258  -6.317   3.645  0.00  0.00    -0.125 S 
BRANCH  16  17
ATOM     17  C   UNL     1       3.132  -6.739   5.115  0.00  0.00    +0.008 A 
ATOM     18  C   UNL     1       3.606  -5.740   5.957  0.00  0.00    +0.015 A 
ATOM     19  C   UNL     1       4.290  -6.077   7.106  0.00  0.00    +0.005 A 
ATOM     20  C   UNL     1       4.508  -7.407   7.426  0.00  0.00    -0.044 A 
ATOM     21  C   UNL     1       4.038  -8.405   6.591  0.00  0.00    -0.043 A 
ATOM     22  C   UNL     1       3.346  -8.072   5.439  0.00  0.00    +0.018 A 
ATOM     23  C   UNL     1       4.402  -9.760   7.158  0.00  0.00    +0.036 C 
ATOM     24  C   UNL     1       5.515  -9.481   8.190  0.00  0.00    +0.009 C 
ATOM     25  C   UNL     1       5.219  -8.026   8.611  0.00  0.00    +0.036 C 
ENDBRANCH  16  17
ENDBRANCH  15  16
ENDBRANCH  14  15
ENDBRANCH   1  14
TORSDOF 8
