REMARK  Name = ZINC08789704
REMARK  6 active torsions:
REMARK  status: ('A' for Active; 'I' for Inactive)
REMARK    1  A    between atoms: C_1  and  C_2
REMARK    2  A    between atoms: C_16  and  C_18
REMARK    3  A    between atoms: C_18  and  C_19
REMARK    4  A    between atoms: N_27  and  C_30
REMARK    5  A    between atoms: C_33  and  O_36
REMARK    6  A    between atoms: O_36  and  C_37
REMARK                            x       y       z     vdW  Elec       q    Type
REMARK                         _______ _______ _______ _____ _____    ______ ____
ROOT
ATOM      1  C   UNL     1       9.944   2.572   1.665  0.00  0.00    +0.047 C 
ATOM      2  C   UNL     1       9.082   1.392   1.300  0.00  0.00    -0.011 A 
ATOM      3  C   UNL     1       9.669   0.208   0.899  0.00  0.00    +0.046 A 
ATOM      4  C   UNL     1       8.884  -0.881   0.562  0.00  0.00    +0.020 A 
ATOM      5  C   UNL     1       7.506  -0.784   0.629  0.00  0.00    +0.006 A 
ATOM      6  C   UNL     1       6.917   0.395   1.028  0.00  0.00    -0.027 A 
ATOM      7  C   UNL     1       7.695   1.498   1.369  0.00  0.00    +0.040 A 
ATOM      8  N   UNL     1       6.879   2.569   1.738  0.00  0.00    -0.286 N 
ATOM      9  C   UNL     1       5.570   2.258   1.668  0.00  0.00    +0.211 C 
ATOM     10  O   UNL     1       4.637   2.988   1.929  0.00  0.00    -0.277 OA
ATOM     11  C   UNL     1       5.489   0.830   1.204  0.00  0.00    +0.050 C 
ATOM     12  C   UNL     1       4.698   0.707  -0.104  0.00  0.00    +0.088 C 
ATOM     13  C   UNL     1       3.943  -0.645   0.023  0.00  0.00    +0.074 C 
ATOM     14  C   UNL     1       4.362  -1.207   1.398  0.00  0.00    -0.053 C 
ATOM     15  C   UNL     1       2.490  -0.231   0.075  0.00  0.00    +0.228 C 
ATOM     16  O   UNL     1       1.549  -0.988   0.180  0.00  0.00    -0.275 OA
ATOM     17  N   UNL     1       2.405   1.101  -0.015  0.00  0.00    -0.210 N 
ATOM     18  C   UNL     1       3.582   1.727  -0.126  0.00  0.00    +0.229 C 
ATOM     19  O   UNL     1       3.731   2.926  -0.226  0.00  0.00    -0.275 OA
ATOM     20 CL   UNL     1      11.398   0.086   0.817  0.00  0.00    -0.083 Cl
ATOM     21  H   UNL     1       7.215   3.436   2.014  0.00  0.00    +0.155 HD
ATOM     22  N   UNL     1       4.790  -0.024   2.148  0.00  0.00    +0.394 N 
ATOM     23  H   UNL     1       3.974   0.466   2.534  0.00  0.00    -0.083 HD
ATOM     24  H   UNL     1       5.418  -0.297   2.913  0.00  0.00    -0.083 HD
ENDROOT
BRANCH  17  25
ATOM     25  C   UNL     1       1.180   1.786   0.000  0.00  0.00    +0.044 A 
ATOM     26  C   UNL     1       0.406   1.800   1.153  0.00  0.00    +0.027 A 
ATOM     27  C   UNL     1      -0.801   2.469   1.166  0.00  0.00    +0.047 A 
ATOM     28  C   UNL     1      -1.237   3.137   0.030  0.00  0.00    +0.120 A 
ATOM     29  C   UNL     1      -0.464   3.123  -1.122  0.00  0.00    +0.047 A 
ATOM     30  C   UNL     1       0.741   2.450  -1.137  0.00  0.00    +0.027 A 
BRANCH  28  31
ATOM     31  O   UNL     1      -2.423   3.800   0.045  0.00  0.00    -0.495 OA
ATOM     32  C   UNL     1      -3.167   3.772   1.265  0.00  0.00    +0.277 C 
ENDBRANCH  28  31
ENDBRANCH  17  25
BRANCH  14  33
ATOM     33  C   UNL     1       3.177  -1.899   2.074  0.00  0.00    +0.020 C 
BRANCH  33  34
ATOM     34  C   UNL     1       3.638  -2.545   3.356  0.00  0.00    -0.049 A 
ATOM     35  C   UNL     1       4.091  -3.851   3.347  0.00  0.00    +0.003 A 
ATOM     36  C   UNL     1       4.517  -4.442   4.522  0.00  0.00    +0.000 A 
ATOM     37  C   UNL     1       4.481  -3.731   5.706  0.00  0.00    +0.000 A 
ATOM     38  C   UNL     1       4.023  -2.427   5.716  0.00  0.00    +0.000 A 
ATOM     39  C   UNL     1       3.601  -1.834   4.540  0.00  0.00    +0.003 A 
ENDBRANCH  33  34
ENDBRANCH  14  33
TORSDOF 4
