REMARK  Name = ZINC03138244
REMARK  10 active torsions:
REMARK  status: ('A' for Active; 'I' for Inactive)
REMARK    1  A    between atoms: C_1  and  C_2
REMARK    2  A    between atoms: C_2  and  C_3
REMARK    3  A    between atoms: C_3  and  C_4
REMARK    4  A    between atoms: C_4  and  N_49
REMARK    5  A    between atoms: C_5  and  N_49
REMARK    6  A    between atoms: C_6  and  C_7
REMARK    7  A    between atoms: C_6  and  N_49
REMARK    8  A    between atoms: C_7  and  C_9
REMARK    9  A    between atoms: C_7  and  O_25
REMARK   10  A    between atoms: C_9  and  N_10
REMARK                            x       y       z     vdW  Elec       q    Type
REMARK                         _______ _______ _______ _____ _____    ______ ____
ROOT
ATOM      1  N   UNL     1      -3.225   3.451   0.022  0.00  0.00    -0.337 N 
ATOM      2  C   UNL     1      -2.003   2.801   0.016  0.00  0.00    +0.050 A 
ATOM      3  C   UNL     1      -0.693   3.271   0.028  0.00  0.00    +0.027 A 
ATOM      4  C   UNL     1       0.359   2.381   0.018  0.00  0.00    +0.017 A 
ATOM      5  C   UNL     1       0.126   1.014  -0.003  0.00  0.00    +0.019 A 
ATOM      6  C   UNL     1      -1.165   0.530  -0.015  0.00  0.00    +0.026 A 
ATOM      7  C   UNL     1      -2.238   1.419  -0.012  0.00  0.00    +0.009 A 
ATOM      8  C   UNL     1      -3.701   1.242  -0.014  0.00  0.00    +0.009 A 
ATOM      9  C   UNL     1      -4.258   2.530   0.004  0.00  0.00    +0.050 A 
ATOM     10  C   UNL     1      -5.641   2.675   0.003  0.00  0.00    +0.027 A 
ATOM     11  C   UNL     1      -6.452   1.561  -0.016  0.00  0.00    +0.017 A 
ATOM     12  C   UNL     1      -5.901   0.288  -0.034  0.00  0.00    +0.019 A 
ATOM     13  C   UNL     1      -4.532   0.124  -0.033  0.00  0.00    +0.026 A 
ATOM     14 BR   UNL     1      -7.032  -1.228  -0.060  0.00  0.00    -0.050 Br
ATOM     15 BR   UNL     1       1.584  -0.191  -0.016  0.00  0.00    -0.050 Br
ENDROOT
BRANCH   1  16
ATOM     16  C   UNL     1      -3.400   4.905   0.043  0.00  0.00    +0.151 C 
BRANCH  16  17
ATOM     17  C   UNL     1      -3.457   5.433  -1.392  0.00  0.00    +0.118 C 
BRANCH  17  18
ATOM     18  O   UNL     1      -4.622   4.921  -2.042  0.00  0.00    -0.392 OA
ATOM     19  H   UNL     1      -5.453   5.170  -1.614  0.00  0.00    +0.210 HD
ENDBRANCH  17  18
BRANCH  17  20
ATOM     20  C   UNL     1      -3.514   6.962  -1.372  0.00  0.00    -0.046 C 
BRANCH  20  22
ATOM     21  C   UNL     1      -3.965   8.873  -2.788  0.00  0.00    -0.096 C 
ATOM     22  N   UNL     1      -3.553   7.454  -2.765  0.00  0.00    +0.380 N 
ATOM     23  H   UNL     1      -4.235   6.900  -3.296  0.00  0.00    -0.082 HD
BRANCH  22  24
ATOM     24  C   UNL     1      -2.222   7.304  -3.390  0.00  0.00    -0.079 C 
BRANCH  24  25
ATOM     25  C   UNL     1      -2.342   7.608  -4.885  0.00  0.00    -0.019 C 
BRANCH  25  27
ATOM     26  C   UNL     1      -1.096   7.739  -7.047  0.00  0.00    +0.004 C 
ATOM     27  C   UNL     1      -0.976   7.436  -5.552  0.00  0.00    -0.005 C 
ENDBRANCH  25  27
ENDBRANCH  24  25
ENDBRANCH  22  24
ENDBRANCH  20  22
ENDBRANCH  17  20
ENDBRANCH  16  17
ENDBRANCH   1  16
TORSDOF 8
