REMARK  Name = ZINC39702061
REMARK  9 active torsions:
REMARK  status: ('A' for Active; 'I' for Inactive)
REMARK    1  A    between atoms: C_1  and  O_2
REMARK    2  A    between atoms: O_2  and  C_3
REMARK    3  A    between atoms: C_6  and  C_9
REMARK    4  A    between atoms: N_10  and  C_11
REMARK    5  A    between atoms: C_14  and  C_17
REMARK    6  A    between atoms: C_23  and  N_27
REMARK    7  A    between atoms: C_28  and  C_29
REMARK    8  A    between atoms: C_32  and  O_35
REMARK    9  A    between atoms: O_35  and  C_36
REMARK                            x       y       z     vdW  Elec       q    Type
REMARK                         _______ _______ _______ _____ _____    ______ ____
ROOT
ATOM      1  C   UNL     1       5.225  -6.389   8.649  0.00  0.00    +0.206 C 
ATOM      2  N   UNL     1       6.003  -5.411   9.418  0.00  0.00    -0.360 N 
ATOM      3  C   UNL     1       5.530  -5.399  10.631  0.00  0.00    +0.061 A 
ATOM      4  C   UNL     1       5.910  -4.628  11.826  0.00  0.00    +0.029 A 
ATOM      5  C   UNL     1       5.239  -4.816  12.977  0.00  0.00    +0.030 A 
ATOM      6  C   UNL     1       4.137  -5.776  13.065  0.00  0.00    +0.066 A 
ATOM      7  C   UNL     1       3.745  -6.521  11.977  0.00  0.00    +0.055 A 
ATOM      8  C   UNL     1       4.410  -6.371  10.734  0.00  0.00    +0.062 A 
ATOM      9  N   UNL     1       4.232  -6.950   9.573  0.00  0.00    -0.360 N 
ATOM     10  H   UNL     1       6.737  -4.872   9.083  0.00  0.00    +0.162 HD
ATOM     11  H   UNL     1       3.568  -7.624   9.362  0.00  0.00    +0.162 HD
ENDROOT
BRANCH   1  15
ATOM     12  C   UNL     1       3.259  -4.455   5.380  0.00  0.00    +0.064 A 
ATOM     13  C   UNL     1       4.498  -3.991   5.827  0.00  0.00    +0.028 A 
ATOM     14  C   UNL     1       5.127  -4.620   6.882  0.00  0.00    +0.009 A 
ATOM     15  C   UNL     1       4.532  -5.707   7.497  0.00  0.00    -0.005 A 
ATOM     16  C   UNL     1       3.305  -6.173   7.059  0.00  0.00    +0.009 A 
ATOM     17  C   UNL     1       2.662  -5.550   6.009  0.00  0.00    +0.028 A 
BRANCH  12  19
ATOM     18  C   UNL     1       2.574  -2.535   4.285  0.00  0.00    +0.119 C 
ATOM     19  N   UNL     1       2.630  -3.837   4.333  0.00  0.00    -0.255 NA
BRANCH  18  23
ATOM     20  C   UNL     1       0.625  -0.618   1.040  0.00  0.00    +0.120 A 
ATOM     21  C   UNL     1       1.202   0.144   2.050  0.00  0.00    +0.046 A 
ATOM     22  C   UNL     1       1.835  -0.474   3.105  0.00  0.00    +0.013 A 
ATOM     23  C   UNL     1       1.897  -1.871   3.160  0.00  0.00    -0.007 A 
ATOM     24  C   UNL     1       1.315  -2.633   2.141  0.00  0.00    +0.013 A 
ATOM     25  C   UNL     1       0.680  -2.006   1.093  0.00  0.00    +0.046 A 
BRANCH  20  27
ATOM     26  C   UNL     1      -0.017   1.425   0.010  0.00  0.00    +0.277 C 
ATOM     27  O   UNL     1       0.002  -0.004   0.002  0.00  0.00    -0.495 OA
ENDBRANCH  20  27
ENDBRANCH  18  23
ENDBRANCH  12  19
ENDBRANCH   1  15
BRANCH   6  28
ATOM     28  N   UNL     1       3.486  -5.935  14.250  0.00  0.00    -0.255 NA
ATOM     29  C   UNL     1       4.166  -6.037  15.361  0.00  0.00    +0.119 C 
BRANCH  29  30
ATOM     30  C   UNL     1       3.464  -6.209  16.640  0.00  0.00    -0.007 A 
ATOM     31  C   UNL     1       2.065  -6.269  16.670  0.00  0.00    +0.013 A 
ATOM     32  C   UNL     1       1.412  -6.431  17.871  0.00  0.00    +0.046 A 
ATOM     33  C   UNL     1       2.138  -6.534  19.052  0.00  0.00    +0.120 A 
ATOM     34  C   UNL     1       3.527  -6.474  19.027  0.00  0.00    +0.046 A 
ATOM     35  C   UNL     1       4.191  -6.319  17.832  0.00  0.00    +0.013 A 
BRANCH  33  36
ATOM     36  O   UNL     1       1.489  -6.692  20.233  0.00  0.00    -0.495 OA
ATOM     37  C   UNL     1       2.296  -6.791  21.409  0.00  0.00    +0.277 C 
ENDBRANCH  33  36
ENDBRANCH  29  30
ENDBRANCH   6  28
TORSDOF 7
