REMARK  Name = ZINC50053107
REMARK  6 active torsions:
REMARK  status: ('A' for Active; 'I' for Inactive)
REMARK    1  A    between atoms: C_2  and  C_3
REMARK    2  A    between atoms: C_7  and  N_9
REMARK    3  A    between atoms: N_12  and  C_13
REMARK    4  A    between atoms: C_13  and  C_14
REMARK    5  A    between atoms: N_19  and  C_21
REMARK    6  A    between atoms: C_21  and  C_22
REMARK                            x       y       z     vdW  Elec       q    Type
REMARK                         _______ _______ _______ _____ _____    ______ ____
ROOT
ATOM      1  N   UNL     1       2.351   4.253  -0.009  0.00  0.00    -0.269 N 
ATOM      2  C   UNL     1       2.326   5.597  -0.104  0.00  0.00    +0.304 C 
ATOM      3  O   UNL     1       1.263   6.188  -0.085  0.00  0.00    -0.253 OA
ATOM      4  N   UNL     1       3.478   6.286  -0.218  0.00  0.00    -0.299 N 
ATOM      5  H   UNL     1       3.199   3.787   0.054  0.00  0.00    +0.156 HD
ATOM      6  H   UNL     1       4.326   5.814  -0.233  0.00  0.00    +0.150 HD
ENDROOT
BRANCH   1  11
ATOM      7  C   UNL     1      -1.126   3.258  -0.723  0.00  0.00    +0.026 A 
ATOM      8  C   UNL     1      -1.216   2.082   0.022  0.00  0.00    +0.017 A 
ATOM      9  C   UNL     1      -0.128   1.639   0.747  0.00  0.00    +0.003 A 
ATOM     10  C   UNL     1       1.053   2.357   0.737  0.00  0.00    +0.023 A 
ATOM     11  C   UNL     1       1.153   3.529  -0.003  0.00  0.00    +0.036 A 
ATOM     12  C   UNL     1       0.067   3.979  -0.738  0.00  0.00    +0.040 A 
BRANCH   7  14
ATOM     13  C   UNL     1      -3.179   4.098  -2.092  0.00  0.00    +0.009 C 
ATOM     14  C   UNL     1      -2.254   3.720  -1.475  0.00  0.00    -0.070 C 
ENDBRANCH   7  14
ENDBRANCH   1  11
BRANCH   4  15
ATOM     15  C   UNL     1       3.451   7.747  -0.321  0.00  0.00    +0.107 C 
BRANCH  15  16
ATOM     16  C   UNL     1       4.881   8.277  -0.440  0.00  0.00    -0.011 C 
ATOM     17  C   UNL     1       5.647   7.978   0.853  0.00  0.00    +0.001 C 
ATOM     18  C   UNL     1       7.051   8.580   0.754  0.00  0.00    -0.018 C 
ATOM     19  C   UNL     1       6.938  10.082   0.481  0.00  0.00    -0.078 C 
ATOM     20  N   UNL     1       6.220  10.300  -0.780  0.00  0.00    +0.383 N 
ATOM     21  C   UNL     1       4.849   9.789  -0.669  0.00  0.00    -0.073 C 
ATOM     22  H   UNL     1       6.698   9.818  -1.526  0.00  0.00    -0.081 HD
BRANCH  20  23
ATOM     23  C   UNL     1       6.183  11.739  -1.077  0.00  0.00    -0.036 C 
BRANCH  23  24
ATOM     24  C   UNL     1       7.583  12.238  -1.323  0.00  0.00    -0.027 A 
ATOM     25  C   UNL     1       8.271  12.311  -2.489  0.00  0.00    +0.009 A 
ATOM     26  C   UNL     1       9.560  12.811  -2.476  0.00  0.00    +0.008 A 
ATOM     27  C   UNL     1      10.098  13.212  -1.298  0.00  0.00    +0.045 A 
ATOM     28  S   UNL     1       8.764  12.893  -0.155  0.00  0.00    -0.103 S 
ENDBRANCH  23  24
ENDBRANCH  20  23
ENDBRANCH  15  16
ENDBRANCH   4  15
TORSDOF 6
