REMARK  Name = ZINC51045551
REMARK  6 active torsions:
REMARK  status: ('A' for Active; 'I' for Inactive)
REMARK    1  A    between atoms: C_3  and  N_9
REMARK    2  A    between atoms: C_10  and  C_12
REMARK    3  A    between atoms: C_12  and  C_13
REMARK    4  A    between atoms: C_13  and  N_14
REMARK    5  A    between atoms: C_18  and  C_21
REMARK    6  A    between atoms: N_23  and  C_24
REMARK                            x       y       z     vdW  Elec       q    Type
REMARK                         _______ _______ _______ _____ _____    ______ ____
ROOT
ATOM      1  C   UNL     1       4.563   5.735  -0.329  0.00  0.00    -0.070 C 
ENDROOT
BRANCH   1   2
ATOM      2  N   UNL     1       5.824   6.479  -0.448  0.00  0.00    +0.381 N 
ATOM      3  C   UNL     1       6.480   6.127  -1.714  0.00  0.00    -0.079 C 
ATOM      4  C   UNL     1       7.832   6.837  -1.806  0.00  0.00    -0.018 C 
ATOM      5  C   UNL     1       7.613   8.352  -1.746  0.00  0.00    +0.009 C 
ATOM      6  C   UNL     1       6.862   8.698  -0.457  0.00  0.00    +0.058 C 
ATOM      7  C   UNL     1       5.546   7.919  -0.415  0.00  0.00    -0.066 C 
ATOM      8  H   UNL     1       6.430   6.237   0.321  0.00  0.00    -0.082 HD
BRANCH   6   9
ATOM      9  C   UNL     1       6.574  10.177  -0.425  0.00  0.00    +0.215 C 
ATOM     10  O   UNL     1       5.428  10.571  -0.370  0.00  0.00    -0.276 OA
ATOM     11  N   UNL     1       7.590  11.062  -0.458  0.00  0.00    -0.312 N 
ATOM     12  H   UNL     1       8.506  10.748  -0.502  0.00  0.00    +0.149 HD
BRANCH  11  13
ATOM     13  C   UNL     1       7.310  12.500  -0.426  0.00  0.00    +0.073 C 
ATOM     14  C   UNL     1       8.097  13.394  -1.386  0.00  0.00    +0.024 C 
ATOM     15  C   UNL     1       8.406  13.422   0.112  0.00  0.00    +0.024 C 
ENDBRANCH  11  13
ENDBRANCH   6   9
ENDBRANCH   1   2
BRANCH   1  16
ATOM     16  C   UNL     1       4.861   4.237  -0.238  0.00  0.00    +0.077 C 
BRANCH  16  18
ATOM     17  N   UNL     1       3.584   2.129  -0.021  0.00  0.00    -0.283 N 
ATOM     18  C   UNL     1       3.567   3.474  -0.116  0.00  0.00    +0.215 C 
ATOM     19  O   UNL     1       2.511   4.069  -0.103  0.00  0.00    -0.276 OA
ATOM     20  H   UNL     1       4.430   1.659   0.049  0.00  0.00    +0.155 HD
BRANCH  17  23
ATOM     21  C   UNL     1       0.065   1.244  -0.620  0.00  0.00    +0.022 A 
ATOM     22  C   UNL     1       1.250   1.953  -0.618  0.00  0.00    +0.027 A 
ATOM     23  C   UNL     1       2.381   1.412  -0.024  0.00  0.00    +0.069 A 
ATOM     24  C   UNL     1       2.318   0.154   0.567  0.00  0.00    +0.146 A 
ATOM     25  C   UNL     1       1.129  -0.551   0.562  0.00  0.00    +0.060 A 
ATOM     26  C   UNL     1       0.004  -0.007  -0.032  0.00  0.00    +0.044 A 
ATOM     27 CL   UNL     1      -1.488  -0.895  -0.036  0.00  0.00    -0.083 Cl
ATOM     28  F   UNL     1       3.418  -0.377   1.146  0.00  0.00    -0.203 F 
ENDBRANCH  17  23
ENDBRANCH  16  18
ENDBRANCH   1  16
TORSDOF 6
