REMARK  Name = ZINC08704764
REMARK  6 active torsions:
REMARK  status: ('A' for Active; 'I' for Inactive)
REMARK    1  A    between atoms: C_1  and  C_2
REMARK    2  A    between atoms: C_2  and  C_4
REMARK    3  A    between atoms: C_2  and  N_43
REMARK    4  A    between atoms: C_11  and  C_12
REMARK    5  A    between atoms: C_11  and  N_43
REMARK    6  A    between atoms: N_17  and  C_18
REMARK                            x       y       z     vdW  Elec       q    Type
REMARK                         _______ _______ _______ _____ _____    ______ ____
ROOT
ATOM      1  C   UNL     1       6.968  -2.980   4.087  0.00  0.00    +0.203 C 
ATOM      2  O   UNL     1       6.234  -3.945   4.090  0.00  0.00    -0.277 OA
ATOM      3  N   UNL     1       6.588  -1.846   3.466  0.00  0.00    -0.241 N 
ATOM      4  C   UNL     1       5.392  -1.784   2.849  0.00  0.00    +0.310 C 
ATOM      5  O   UNL     1       4.655  -2.751   2.853  0.00  0.00    -0.252 OA
ATOM      6  N   UNL     1       5.011  -0.649   2.228  0.00  0.00    -0.269 N 
ATOM      7  H   UNL     1       7.176  -1.074   3.464  0.00  0.00    +0.159 HD
ATOM      8  H   UNL     1       5.629   0.096   2.159  0.00  0.00    +0.156 HD
ENDROOT
BRANCH   6   9
ATOM      9  C   UNL     1       3.725  -0.546   1.683  0.00  0.00    +0.038 A 
ATOM     10  C   UNL     1       2.658  -1.190   2.296  0.00  0.00    +0.027 A 
ATOM     11  C   UNL     1       1.388  -1.090   1.759  0.00  0.00    +0.051 A 
ATOM     12  C   UNL     1       1.176  -0.346   0.610  0.00  0.00    +0.166 A 
ATOM     13  C   UNL     1       2.244   0.302  -0.006  0.00  0.00    +0.168 A 
ATOM     14  C   UNL     1       3.516   0.200   0.532  0.00  0.00    +0.073 A 
ATOM     15  O   UNL     1       1.779   0.960  -1.108  0.00  0.00    -0.453 OA
ATOM     16  C   UNL     1       0.353   1.045  -0.931  0.00  0.00    +0.466 C 
ATOM     17  O   UNL     1       0.041  -0.093  -0.107  0.00  0.00    -0.453 OA
ENDBRANCH   6   9
BRANCH   1  18
ATOM     18  C   UNL     1       8.306  -3.049   4.777  0.00  0.00    +0.016 C 
BRANCH  18  19
ATOM     19  N   UNL     1       8.475  -4.389   5.371  0.00  0.00    +0.389 N 
ATOM     20  H   UNL     1       7.723  -4.555   6.051  0.00  0.00    -0.084 HD
ATOM     21  H   UNL     1       8.428  -5.097   4.629  0.00  0.00    -0.084 HD
BRANCH  19  23
ATOM     22  C   UNL     1       9.650  -3.939   7.478  0.00  0.00    -0.009 C 
ATOM     23  C   UNL     1       9.778  -4.486   6.055  0.00  0.00    -0.043 C 
BRANCH  23  24
ATOM     24  C   UNL     1      10.203  -5.931   6.108  0.00  0.00    -0.060 A 
ATOM     25  C   UNL     1      11.527  -6.270   5.899  0.00  0.00    +0.002 A 
ATOM     26  C   UNL     1      11.917  -7.595   5.948  0.00  0.00    +0.002 A 
ATOM     27  C   UNL     1      10.984  -8.582   6.206  0.00  0.00    +0.020 A 
ATOM     28  C   UNL     1       9.659  -8.243   6.415  0.00  0.00    +0.041 A 
ATOM     29  C   UNL     1       9.270  -6.915   6.371  0.00  0.00    +0.022 A 
ATOM     30 CL   UNL     1       8.487  -9.481   6.740  0.00  0.00    -0.084 Cl
ENDBRANCH  23  24
ENDBRANCH  19  23
ENDBRANCH  18  19
ENDBRANCH   1  18
TORSDOF 5
