REMARK  Name = ZINC56657342
REMARK  7 active torsions:
REMARK  status: ('A' for Active; 'I' for Inactive)
REMARK    1  A    between atoms: C_1  and  C_2
REMARK    2  A    between atoms: N_4  and  C_5
REMARK    3  A    between atoms: C_8  and  N_13
REMARK    4  A    between atoms: C_10  and  O_11
REMARK    5  A    between atoms: O_11  and  C_12
REMARK    6  A    between atoms: N_16  and  C_17
REMARK    7  A    between atoms: N_26  and  C_28
REMARK                            x       y       z     vdW  Elec       q    Type
REMARK                         _______ _______ _______ _____ _____    ______ ____
ROOT
ATOM      1  N   UNL     1      -1.446  -6.258  -0.224  0.00  0.00    -0.269 N 
ATOM      2  C   UNL     1      -0.323  -6.995  -0.107  0.00  0.00    +0.304 C 
ATOM      3  O   UNL     1       0.760  -6.446  -0.042  0.00  0.00    -0.253 OA
ATOM      4  N   UNL     1      -0.402  -8.339  -0.063  0.00  0.00    -0.296 N 
ATOM      5  H   UNL     1      -2.303  -6.696  -0.342  0.00  0.00    +0.156 HD
ATOM      6  H   UNL     1      -1.266  -8.777  -0.115  0.00  0.00    +0.151 HD
ENDROOT
BRANCH   4   7
ATOM      7  C   UNL     1       0.816  -9.139   0.064  0.00  0.00    +0.077 C 
ATOM      8  C   UNL     1       1.193  -9.303   1.538  0.00  0.00    -0.007 C 
ATOM      9  C   UNL     1       2.524 -10.040   1.639  0.00  0.00    +0.003 C 
ATOM     10  C   UNL     1       2.509 -11.382   0.925  0.00  0.00    +0.001 C 
ATOM     11  C   UNL     1       1.907 -11.315  -0.470  0.00  0.00    +0.003 C 
ATOM     12  C   UNL     1       0.595 -10.540  -0.509  0.00  0.00    -0.007 C 
ATOM     13  C   UNL     1      -0.504 -11.257   0.260  0.00  0.00    -0.073 C 
ATOM     14  N   UNL     1      -0.256 -11.322   1.696  0.00  0.00    +0.382 N 
ATOM     15  C   UNL     1       0.089 -10.033   2.287  0.00  0.00    -0.073 C 
ATOM     16  H   UNL     1       0.459 -12.003   1.898  0.00  0.00    -0.081 HD
BRANCH  14  17
ATOM     17  C   UNL     1      -1.481 -11.806   2.347  0.00  0.00    -0.069 C 
ATOM     18  C   UNL     1      -1.349 -12.987   3.311  0.00  0.00    -0.017 C 
ATOM     19  C   UNL     1      -1.998 -13.188   1.941  0.00  0.00    -0.017 C 
ENDBRANCH  14  17
ENDBRANCH   4   7
BRANCH   1  23
ATOM     20  C   UNL     1      -1.228  -2.093  -0.081  0.00  0.00    +0.076 A 
ATOM     21  C   UNL     1      -0.206  -2.822  -0.672  0.00  0.00    +0.029 A 
ATOM     22  C   UNL     1      -0.279  -4.201  -0.719  0.00  0.00    +0.025 A 
ATOM     23  C   UNL     1      -1.374  -4.859  -0.175  0.00  0.00    +0.038 A 
ATOM     24  C   UNL     1      -2.398  -4.133   0.417  0.00  0.00    +0.070 A 
ATOM     25  C   UNL     1      -2.324  -2.751   0.471  0.00  0.00    +0.143 A 
BRANCH  20  29
ATOM     26  C   UNL     1      -0.596   1.493  -1.049  0.00  0.00    +0.109 C 
ATOM     27  C   UNL     1      -0.585  -0.014  -1.050  0.00  0.00    +0.214 C 
ATOM     28  O   UNL     1      -0.065  -0.616  -1.966  0.00  0.00    -0.276 OA
ATOM     29  N   UNL     1      -1.153  -0.693  -0.034  0.00  0.00    -0.283 N 
ATOM     30  H   UNL     1      -1.511  -0.213   0.730  0.00  0.00    +0.155 HD
ENDBRANCH  20  29
BRANCH  25  31
ATOM     31  O   UNL     1      -3.323  -2.038   1.056  0.00  0.00    -0.493 OA
ATOM     32  C   UNL     1      -4.417  -2.779   1.600  0.00  0.00    +0.277 C 
ENDBRANCH  25  31
ENDBRANCH   1  23
TORSDOF 5
