REMARK  Name = ZINC43259039
REMARK  9 active torsions:
REMARK  status: ('A' for Active; 'I' for Inactive)
REMARK    1  A    between atoms: C_1  and  C_2
REMARK    2  A    between atoms: C_2  and  C_3
REMARK    3  A    between atoms: C_3  and  C_5
REMARK    4  A    between atoms: C_3  and  N_23
REMARK    5  A    between atoms: C_5  and  C_7
REMARK    6  A    between atoms: C_5  and  N_13
REMARK    7  A    between atoms: C_18  and  C_20
REMARK    8  A    between atoms: C_20  and  C_21
REMARK    9  A    between atoms: C_21  and  O_22
REMARK                            x       y       z     vdW  Elec       q    Type
REMARK                         _______ _______ _______ _____ _____    ______ ____
ROOT
ATOM      1  C   UNL     1      -1.342  -1.922  -0.633  0.00  0.00    +0.079 C 
ENDROOT
BRANCH   1   2
ATOM      2  C   UNL     1      -0.564  -0.704  -0.208  0.00  0.00    +0.006 A 
ATOM      3  C   UNL     1      -0.222  -0.302   1.040  0.00  0.00    +0.014 A 
ATOM      4  C   UNL     1       0.504   0.865   1.194  0.00  0.00    +0.023 A 
ATOM      5  C   UNL     1       0.851   1.573   0.090  0.00  0.00    +0.055 A 
ATOM      6  S   UNL     1       0.153   0.581  -1.220  0.00  0.00    -0.085 S 
ATOM      7 BR   UNL     1       1.829   3.187  -0.030  0.00  0.00    -0.043 Br
ENDBRANCH   1   2
BRANCH   1   8
ATOM      8  N   UNL     1      -0.591  -2.648  -1.666  0.00  0.00    -0.294 NA
ATOM      9  C   UNL     1       0.853  -2.423  -1.522  0.00  0.00    +0.085 C 
ATOM     10  C   UNL     1       1.591  -3.071  -2.696  0.00  0.00    +0.015 C 
ATOM     11  C   UNL     1       1.289  -4.572  -2.716  0.00  0.00    +0.003 C 
ATOM     12  C   UNL     1      -0.225  -4.779  -2.818  0.00  0.00    +0.019 C 
ATOM     13  C   UNL     1      -0.910  -4.081  -1.641  0.00  0.00    +0.059 C 
BRANCH  13  14
ATOM     14  C   UNL     1      -2.425  -4.268  -1.749  0.00  0.00    +0.046 C 
BRANCH  14  15
ATOM     15  C   UNL     1      -2.754  -5.762  -1.768  0.00  0.00    +0.157 C 
BRANCH  15  16
ATOM     16  O   UNL     1      -4.158  -5.937  -1.970  0.00  0.00    -0.395 OA
ATOM     17  H   UNL     1      -4.439  -6.862  -1.993  0.00  0.00    +0.209 HD
ENDBRANCH  15  16
ENDBRANCH  14  15
ENDBRANCH  13  14
ENDBRANCH   1   8
BRANCH   1  18
ATOM     18  C   UNL     1      -2.698  -1.491  -1.196  0.00  0.00    -0.053 C 
BRANCH  18  19
ATOM     19  N   UNL     1      -3.389  -0.644  -0.215  0.00  0.00    +0.381 N 
ATOM     20  H   UNL     1      -3.529  -1.165   0.638  0.00  0.00    -0.090 HD
ATOM     21  H   UNL     1      -2.829   0.173  -0.022  0.00  0.00    -0.090 HD
ATOM     22  H   UNL     1      -4.283  -0.360  -0.587  0.00  0.00    -0.090 HD
ENDBRANCH  18  19
BRANCH  18  24
ATOM     23  C   UNL     1      -3.839  -0.411  -3.139  0.00  0.00    +0.002 C 
ATOM     24  C   UNL     1      -2.485  -0.703  -2.490  0.00  0.00    -0.018 C 
ENDBRANCH  18  24
ENDBRANCH   1  18
TORSDOF 8
