REMARK  Name = ZINC25415376
REMARK  15 active torsions:
REMARK  status: ('A' for Active; 'I' for Inactive)
REMARK    1  A    between atoms: C_1  and  C_2
REMARK    2  A    between atoms: C_2  and  C_3
REMARK    3  A    between atoms: C_2  and  C_4
REMARK    4  A    between atoms: C_4  and  N_5
REMARK    5  A    between atoms: C_6  and  N_36
REMARK    6  A    between atoms: C_7  and  N_14
REMARK    7  A    between atoms: N_14  and  C_15
REMARK    8  A    between atoms: C_15  and  C_16
REMARK    9  A    between atoms: C_16  and  C_17
REMARK   10  A    between atoms: C_16  and  C_18
REMARK   11  A    between atoms: C_19  and  C_21
REMARK   12  A    between atoms: C_21  and  N_22
REMARK   13  A    between atoms: C_26  and  C_28
REMARK   14  A    between atoms: C_31  and  O_34
REMARK   15  A    between atoms: O_34  and  C_35
REMARK                            x       y       z     vdW  Elec       q    Type
REMARK                         _______ _______ _______ _____ _____    ______ ____
ROOT
ATOM      1  N   UNL     1      -1.957   3.736  -4.848  0.00  0.00    -0.266 N 
ATOM      2  C   UNL     1      -1.206   4.090  -3.785  0.00  0.00    +0.203 C 
ATOM      3  O   UNL     1      -0.349   4.940  -3.904  0.00  0.00    -0.277 OA
ENDROOT
BRANCH   1   6
ATOM      4  N   UNL     1      -1.928   6.419  -7.358  0.00  0.00    -0.280 N 
ATOM      5  C   UNL     1      -2.075   5.776  -6.151  0.00  0.00    +0.127 A 
ATOM      6  C   UNL     1      -1.816   4.423  -6.072  0.00  0.00    +0.140 A 
ATOM      7  C   UNL     1      -1.402   3.742  -7.232  0.00  0.00    +0.277 A 
ATOM      8  O   UNL     1      -1.162   2.547  -7.190  0.00  0.00    -0.266 OA
ATOM      9  N   UNL     1      -1.280   4.418  -8.392  0.00  0.00    -0.273 N 
ATOM     10  H   UNL     1      -0.966   3.891  -9.305  0.00  0.00    +0.173 HD
ATOM     11  C   UNL     1      -1.536   5.737  -8.450  0.00  0.00    +0.331 A 
ATOM     12  O   UNL     1      -1.413   6.323  -9.508  0.00  0.00    -0.246 OA
BRANCH   5  13
ATOM     13  N   UNL     1      -2.476   6.473  -5.036  0.00  0.00    -0.343 N 
ATOM     14  H   UNL     1      -2.591   5.953  -4.074  0.00  0.00    +0.144 HD
ATOM     15  H   UNL     1      -2.681   7.552  -5.106  0.00  0.00    +0.144 HD
ENDBRANCH   5  13
BRANCH   4  16
ATOM     16  C   UNL     1      -2.200   7.855  -7.456  0.00  0.00    +0.131 C 
BRANCH  16  18
ATOM     17  C   UNL     1       0.112   8.345  -8.266  0.00  0.00    +0.009 C 
ATOM     18  C   UNL     1      -0.917   8.638  -7.172  0.00  0.00    +0.003 C 
ATOM     19  C   UNL     1      -1.228  10.136  -7.152  0.00  0.00    +0.009 C 
ENDBRANCH  16  18
ENDBRANCH   4  16
ENDBRANCH   1   6
BRANCH   1  20
ATOM     20  C   UNL     1      -2.920   2.637  -4.732  0.00  0.00    +0.117 C 
BRANCH  20  21
ATOM     21  C   UNL     1      -4.242   3.174  -4.180  0.00  0.00    +0.001 C 
ATOM     22  C   UNL     1      -4.871   4.127  -5.198  0.00  0.00    +0.009 C 
ATOM     23  C   UNL     1      -5.196   2.007  -3.917  0.00  0.00    +0.009 C 
ENDBRANCH  20  21
ENDBRANCH   1  20
BRANCH   2  24
ATOM     24  C   UNL     1      -1.431   3.428  -2.450  0.00  0.00    +0.020 C 
BRANCH  24  25
ATOM     25  N   UNL     1      -0.495   3.984  -1.464  0.00  0.00    +0.390 N 
ATOM     26  C   UNL     1      -0.829   5.385  -1.149  0.00  0.00    -0.077 C 
ATOM     27  C   UNL     1      -1.045   5.471   0.377  0.00  0.00    -0.020 C 
ATOM     28  C   UNL     1      -0.267   4.240   0.911  0.00  0.00    -0.013 C 
ATOM     29  C   UNL     1      -0.519   3.200  -0.210  0.00  0.00    -0.037 C 
ATOM     30  H   UNL     1       0.507   3.935  -1.915  0.00  0.00    -0.080 HD
BRANCH  29  31
ATOM     31  C   UNL     1       0.574   2.163  -0.219  0.00  0.00    -0.061 A 
ATOM     32  C   UNL     1       1.818   2.475  -0.735  0.00  0.00    +0.005 A 
ATOM     33  C   UNL     1       2.819   1.523  -0.749  0.00  0.00    +0.046 A 
ATOM     34  C   UNL     1       2.576   0.254  -0.245  0.00  0.00    +0.120 A 
ATOM     35  C   UNL     1       1.327  -0.057   0.272  0.00  0.00    +0.046 A 
ATOM     36  C   UNL     1       0.329   0.898   0.285  0.00  0.00    +0.005 A 
BRANCH  34  37
ATOM     37  O   UNL     1       3.560  -0.684  -0.259  0.00  0.00    -0.495 OA
ATOM     38  C   UNL     1       4.820  -0.294  -0.807  0.00  0.00    +0.277 C 
ENDBRANCH  34  37
ENDBRANCH  29  31
ENDBRANCH  24  25
ENDBRANCH   2  24
TORSDOF 10
