REMARK  Name = ZINC41006583
REMARK  13 active torsions:
REMARK  status: ('A' for Active; 'I' for Inactive)
REMARK    1  A    between atoms: C_1  and  C_2
REMARK    2  A    between atoms: C_7  and  N_8
REMARK    3  A    between atoms: C_9  and  C_11
REMARK    4  A    between atoms: C_13  and  C_33
REMARK    5  A    between atoms: C_15  and  C_23
REMARK    6  A    between atoms: C_17  and  C_21
REMARK    7  A    between atoms: C_17  and  O_22
REMARK    8  A    between atoms: N_25  and  C_26
REMARK    9  A    between atoms: C_31  and  C_32
REMARK   10  A    between atoms: C_36  and  C_39
REMARK   11  A    between atoms: C_39  and  C_40
REMARK   12  A    between atoms: C_39  and  C_41
REMARK   13  A    between atoms: C_39  and  C_42
REMARK                            x       y       z     vdW  Elec       q    Type
REMARK                         _______ _______ _______ _____ _____    ______ ____
ROOT
ATOM      1  C   UNL     1       1.133  -0.321   5.422  0.00  0.00    +0.149 C 
ATOM      2  C   UNL     1       0.658  -1.488   6.293  0.00  0.00    +0.053 C 
ATOM      3  C   UNL     1      -0.716  -1.956   5.811  0.00  0.00    +0.115 C 
ATOM      4  C   UNL     1      -1.740  -0.835   5.997  0.00  0.00    +0.082 C 
ATOM      5  C   UNL     1      -1.356   0.357   5.114  0.00  0.00    +0.110 C 
ATOM      6  C   UNL     1       0.072   0.757   5.435  0.00  0.00    +0.148 C 
ATOM      7  O   UNL     1       0.355   1.901   5.697  0.00  0.00    -0.296 OA
ATOM      8  C   UNL     1      -3.128  -1.340   5.597  0.00  0.00    +0.042 C 
ENDROOT
BRANCH   2   9
ATOM      9  C   UNL     1       1.641  -2.625   6.189  0.00  0.00    -0.042 A 
ATOM     10  C   UNL     1       1.679  -3.404   5.048  0.00  0.00    +0.004 A 
ATOM     11  C   UNL     1       2.581  -4.447   4.953  0.00  0.00    +0.004 A 
ATOM     12  C   UNL     1       3.446  -4.712   5.999  0.00  0.00    -0.042 A 
ATOM     13  C   UNL     1       3.408  -3.932   7.140  0.00  0.00    +0.004 A 
ATOM     14  C   UNL     1       2.509  -2.886   7.233  0.00  0.00    +0.004 A 
BRANCH  12  15
ATOM     15  C   UNL     1       4.428  -5.849   5.895  0.00  0.00    -0.013 C 
ATOM     16  C   UNL     1       5.355  -5.616   4.700  0.00  0.00    +0.015 C 
ATOM     17  C   UNL     1       5.259  -5.924   7.178  0.00  0.00    +0.015 C 
ATOM     18  C   UNL     1       3.668  -7.163   5.703  0.00  0.00    +0.015 C 
ENDBRANCH  12  15
ENDBRANCH   2   9
BRANCH   1  20
ATOM     19  N   UNL     1       0.833  -0.106   2.976  0.00  0.00    -0.285 N 
ATOM     20  C   UNL     1       1.350  -0.800   4.009  0.00  0.00    +0.228 C 
ATOM     21  O   UNL     1       1.990  -1.809   3.803  0.00  0.00    -0.275 OA
ATOM     22  H   UNL     1       0.377   0.735   3.135  0.00  0.00    +0.155 HD
BRANCH  19  29
ATOM     23  C   UNL     1      -1.067   0.741   1.035  0.00  0.00    +0.045 C 
ATOM     24  C   UNL     1       0.050  -0.211   0.694  0.00  0.00    -0.029 A 
ATOM     25  C   UNL     1       0.176  -0.695  -0.594  0.00  0.00    +0.005 A 
ATOM     26  C   UNL     1       1.201  -1.569  -0.908  0.00  0.00    +0.000 A 
ATOM     27  C   UNL     1       2.102  -1.962   0.065  0.00  0.00    +0.002 A 
ATOM     28  C   UNL     1       1.981  -1.481   1.354  0.00  0.00    +0.023 A 
ATOM     29  C   UNL     1       0.956  -0.599   1.672  0.00  0.00    +0.036 A 
ENDBRANCH  19  29
ENDBRANCH   1  20
BRANCH   3  30
ATOM     30  C   UNL     1      -0.637  -2.324   4.352  0.00  0.00    +0.224 C 
ATOM     31  O   UNL     1      -0.592  -1.453   3.509  0.00  0.00    -0.275 OA
ATOM     32  N   UNL     1      -0.617  -3.620   3.984  0.00  0.00    -0.285 N 
ATOM     33  H   UNL     1      -0.711  -4.316   4.653  0.00  0.00    +0.155 HD
BRANCH  32  34
ATOM     34  C   UNL     1      -0.460  -3.962   2.636  0.00  0.00    +0.036 A 
ATOM     35  C   UNL     1      -0.738  -3.030   1.645  0.00  0.00    +0.023 A 
ATOM     36  C   UNL     1      -0.583  -3.370   0.316  0.00  0.00    +0.002 A 
ATOM     37  C   UNL     1      -0.151  -4.639  -0.029  0.00  0.00    +0.000 A 
ATOM     38  C   UNL     1       0.125  -5.569   0.956  0.00  0.00    +0.005 A 
ATOM     39  C   UNL     1      -0.022  -5.232   2.287  0.00  0.00    -0.029 A 
ATOM     40  C   UNL     1       0.287  -6.245   3.360  0.00  0.00    +0.045 C 
ENDBRANCH  32  34
ENDBRANCH   3  30
BRANCH   4  41
ATOM     41  O   UNL     1      -1.758  -0.428   7.367  0.00  0.00    -0.388 OA
ATOM     42  H   UNL     1      -2.386   0.282   7.558  0.00  0.00    +0.210 HD
ENDBRANCH   4  41
TORSDOF 7
