REMARK  Name = ZINC05185443
REMARK  6 active torsions:
REMARK  status: ('A' for Active; 'I' for Inactive)
REMARK    1  A    between atoms: C_10  and  N_12
REMARK    2  A    between atoms: C_13  and  C_15
REMARK    3  A    between atoms: C_15  and  N_16
REMARK    4  A    between atoms: N_25  and  C_26
REMARK    5  A    between atoms: C_26  and  C_27
REMARK    6  A    between atoms: C_27  and  O_28
REMARK                            x       y       z     vdW  Elec       q    Type
REMARK                         _______ _______ _______ _____ _____    ______ ____
ROOT
ATOM      1  N   UNL     1       6.869   2.958  -0.781  0.00  0.00    -0.305 N 
ATOM      2  C   UNL     1       6.376   4.250  -0.700  0.00  0.00    +0.068 A 
ATOM      3  C   UNL     1       5.240   4.879  -1.189  0.00  0.00    +0.028 A 
ATOM      4  C   UNL     1       5.031   6.217  -0.928  0.00  0.00    +0.002 A 
ATOM      5  C   UNL     1       5.949   6.940  -0.181  0.00  0.00    +0.002 A 
ATOM      6  C   UNL     1       7.082   6.332   0.311  0.00  0.00    +0.028 A 
ATOM      7  C   UNL     1       7.309   4.977   0.057  0.00  0.00    +0.065 A 
ATOM      8  N   UNL     1       8.306   4.118   0.396  0.00  0.00    -0.327 N 
ATOM      9  C   UNL     1       8.046   2.930  -0.090  0.00  0.00    +0.175 A 
ATOM     10  N   UNL     1       8.845   1.817   0.069  0.00  0.00    -0.314 N 
ATOM     11  H   UNL     1       8.582   0.971  -0.327  0.00  0.00    +0.149 HD
ATOM     12  H   UNL     1       9.088   4.348   0.922  0.00  0.00    +0.169 HD
ENDROOT
BRANCH   1  13
ATOM     13  C   UNL     1       6.241   1.831  -1.474  0.00  0.00    +0.220 C 
BRANCH  13  15
ATOM     14  N   UNL     1       4.631   0.029  -0.946  0.00  0.00    -0.307 N 
ATOM     15  C   UNL     1       5.321   1.107  -0.525  0.00  0.00    +0.233 C 
ATOM     16  O   UNL     1       5.202   1.495   0.618  0.00  0.00    -0.274 OA
ATOM     17  H   UNL     1       4.726  -0.282  -1.860  0.00  0.00    +0.149 HD
BRANCH  14  27
ATOM     18  C   UNL     1      -0.017   1.375   0.010  0.00  0.00    +0.000 A 
ATOM     19  C   UNL     1       1.174   2.078   0.002  0.00  0.00    +0.000 A 
ATOM     20  C   UNL     1       2.372   1.395  -0.010  0.00  0.00    +0.006 A 
ATOM     21  C   UNL     1       2.393   0.006  -0.017  0.00  0.00    -0.024 A 
ATOM     22  C   UNL     1       1.208  -0.694  -0.015  0.00  0.00    -0.042 A 
ATOM     23  C   UNL     1       0.002  -0.004   0.002  0.00  0.00    +0.004 A 
ATOM     24  C   UNL     1       1.155  -2.199  -0.038  0.00  0.00    +0.035 C 
ATOM     25  C   UNL     1       2.501  -2.790   0.375  0.00  0.00    +0.007 C 
ATOM     26  C   UNL     1       3.599  -2.130  -0.467  0.00  0.00    +0.027 C 
ATOM     27  C   UNL     1       3.737  -0.675  -0.023  0.00  0.00    +0.103 C 
ENDBRANCH  14  27
ENDBRANCH  13  15
ENDBRANCH   1  13
BRANCH  10  28
ATOM     28  C   UNL     1      10.090   1.912   0.835  0.00  0.00    +0.132 C 
BRANCH  28  29
ATOM     29  C   UNL     1      10.780   0.547   0.859  0.00  0.00    +0.174 C 
BRANCH  29  30
ATOM     30  O   UNL     1      11.178   0.192  -0.467  0.00  0.00    -0.393 OA
ATOM     31  H   UNL     1      11.623  -0.665  -0.527  0.00  0.00    +0.209 HD
ENDBRANCH  29  30
ENDBRANCH  28  29
ENDBRANCH  10  28
TORSDOF 6
