REMARK  Name = ZINC35778484
REMARK  14 active torsions:
REMARK  status: ('A' for Active; 'I' for Inactive)
REMARK    1  A    between atoms: C_1  and  C_2
REMARK    2  A    between atoms: C_2  and  C_3
REMARK    3  A    between atoms: C_3  and  N_4
REMARK    4  A    between atoms: N_4  and  C_5
REMARK    5  A    between atoms: N_4  and  C_27
REMARK    6  A    between atoms: C_5  and  C_6
REMARK    7  A    between atoms: C_7  and  C_26
REMARK    8  A    between atoms: N_9  and  C_20
REMARK    9  A    between atoms: C_10  and  O_11
REMARK   10  A    between atoms: O_11  and  C_12
REMARK   11  A    between atoms: C_27  and  C_28
REMARK   12  A    between atoms: C_28  and  C_29
REMARK   13  A    between atoms: C_28  and  C_30
REMARK   14  A    between atoms: C_28  and  O_32
REMARK                            x       y       z     vdW  Elec       q    Type
REMARK                         _______ _______ _______ _____ _____    ______ ____
ROOT
ATOM      1  C   UNL     1       3.488  -1.802  -1.139  0.00  0.00    +0.021 A 
ATOM      2  C   UNL     1       4.116  -0.565  -0.964  0.00  0.00    +0.065 A 
ATOM      3  N   UNL     1       4.987  -0.677   0.006  0.00  0.00    -0.168 NA
ATOM      4  N   UNL     1       4.947  -1.992   0.487  0.00  0.00    -0.200 N 
ATOM      5  C   UNL     1       4.010  -2.668  -0.230  0.00  0.00    +0.225 A 
ATOM      6  C   UNL     1       3.838   0.685  -1.758  0.00  0.00    +0.068 C 
ENDROOT
BRANCH   4   7
ATOM      7  C   UNL     1       5.728  -2.515   1.526  0.00  0.00    +0.069 A 
ATOM      8  C   UNL     1       5.178  -3.425   2.420  0.00  0.00    +0.028 A 
ATOM      9  C   UNL     1       5.951  -3.940   3.442  0.00  0.00    +0.002 A 
ATOM     10  C   UNL     1       7.271  -3.550   3.577  0.00  0.00    +0.000 A 
ATOM     11  C   UNL     1       7.822  -2.644   2.688  0.00  0.00    +0.002 A 
ATOM     12  C   UNL     1       7.055  -2.130   1.661  0.00  0.00    +0.028 A 
ENDBRANCH   4   7
BRANCH   1  13
ATOM     13  C   UNL     1       2.417  -2.117  -2.152  0.00  0.00    -0.036 C 
BRANCH  13  14
ATOM     14  N   UNL     1       1.097  -1.848  -1.568  0.00  0.00    +0.385 N 
ATOM     15  H   UNL     1       0.974  -2.411  -0.739  0.00  0.00    -0.081 HD
BRANCH  14  16
ATOM     16  C   UNL     1       0.998  -0.426  -1.214  0.00  0.00    -0.078 C 
BRANCH  16  18
ATOM     17  C   UNL     1      -0.380   1.282  -0.019  0.00  0.00    +0.002 C 
ATOM     18  C   UNL     1      -0.334  -0.167  -0.507  0.00  0.00    -0.022 C 
ENDBRANCH  16  18
ENDBRANCH  14  16
BRANCH  14  19
ATOM     19  C   UNL     1       0.052  -2.182  -2.545  0.00  0.00    -0.039 C 
BRANCH  19  20
ATOM     20  C   UNL     1       0.027  -3.696  -2.768  0.00  0.00    +0.067 C 
ATOM     21  C   UNL     1      -0.097  -4.408  -1.419  0.00  0.00    +0.044 C 
BRANCH  20  22
ATOM     22  C   UNL     1      -1.151  -4.057  -3.636  0.00  0.00    -0.003 C 
ATOM     23  C   UNL     1      -0.958  -4.652  -4.787  0.00  0.00    +0.006 C 
ENDBRANCH  20  22
BRANCH  20  24
ATOM     24  O   UNL     1       1.236  -4.102  -3.412  0.00  0.00    -0.387 OA
ATOM     25  H   UNL     1       1.380  -3.689  -4.275  0.00  0.00    +0.210 HD
ENDBRANCH  20  24
ENDBRANCH  19  20
ENDBRANCH  14  19
ENDBRANCH  13  14
ENDBRANCH   1  13
BRANCH   5  26
ATOM     26  O   UNL     1       3.662  -3.970  -0.070  0.00  0.00    -0.435 OA
BRANCH  26  27
ATOM     27  C   UNL     1       4.426  -4.915  -0.681  0.00  0.00    +0.166 A 
ATOM     28  C   UNL     1       5.582  -4.546  -1.351  0.00  0.00    +0.052 A 
ATOM     29  C   UNL     1       6.358  -5.506  -1.970  0.00  0.00    +0.042 A 
ATOM     30  C   UNL     1       5.982  -6.838  -1.923  0.00  0.00    +0.126 A 
ATOM     31  C   UNL     1       4.828  -7.210  -1.255  0.00  0.00    +0.080 A 
ATOM     32  C   UNL     1       4.052  -6.252  -0.628  0.00  0.00    +0.168 A 
ATOM     33  F   UNL     1       2.928  -6.615   0.028  0.00  0.00    -0.202 F 
ATOM     34  F   UNL     1       6.742  -7.776  -2.530  0.00  0.00    -0.205 F 
ENDBRANCH  26  27
ENDBRANCH   5  26
TORSDOF 11
