REMARK  Name = ZINC09479344
REMARK  9 active torsions:
REMARK  status: ('A' for Active; 'I' for Inactive)
REMARK    1  A    between atoms: C_1  and  C_2
REMARK    2  A    between atoms: C_2  and  C_3
REMARK    3  A    between atoms: C_2  and  C_4
REMARK    4  A    between atoms: C_4  and  C_6
REMARK    5  A    between atoms: C_4  and  N_56
REMARK    6  A    between atoms: C_17  and  C_18
REMARK    7  A    between atoms: C_17  and  N_56
REMARK    8  A    between atoms: N_20  and  C_21
REMARK    9  A    between atoms: C_22  and  C_29
REMARK                            x       y       z     vdW  Elec       q    Type
REMARK                         _______ _______ _______ _____ _____    ______ ____
ROOT
ATOM      1  N   UNL     1      -2.788   1.362  -0.051  0.00  0.00    +0.389 N 
ATOM      2  H   UNL     1      -2.438   2.287  -0.327  0.00  0.00    -0.084 HD
ATOM      3  H   UNL     1      -3.803   1.410   0.096  0.00  0.00    -0.084 HD
ENDROOT
BRANCH   1   4
ATOM      4  C   UNL     1      -2.134   0.950   1.206  0.00  0.00    -0.038 C 
BRANCH   4   5
ATOM      5  C   UNL     1      -2.907   1.509   2.373  0.00  0.00    -0.057 A 
ATOM      6  C   UNL     1      -3.420   2.791   2.309  0.00  0.00    +0.006 A 
ATOM      7  C   UNL     1      -4.137   3.308   3.373  0.00  0.00    +0.049 A 
ATOM      8  C   UNL     1      -4.328   2.540   4.509  0.00  0.00    +0.162 A 
ATOM      9  C   UNL     1      -3.809   1.255   4.575  0.00  0.00    +0.162 A 
ATOM     10  C   UNL     1      -3.097   0.738   3.506  0.00  0.00    +0.051 A 
ATOM     11  O   UNL     1      -4.005   0.505   5.699  0.00  0.00    -0.488 OA
ATOM     12  C   UNL     1      -3.326   0.953   6.874  0.00  0.00    +0.232 C 
ATOM     13  C   UNL     1      -4.132   2.028   7.586  0.00  0.00    +0.082 C 
ATOM     14  C   UNL     1      -4.271   3.293   6.754  0.00  0.00    +0.232 C 
ATOM     15  O   UNL     1      -5.029   3.039   5.569  0.00  0.00    -0.488 OA
ENDBRANCH   4   5
BRANCH   4  17
ATOM     16  C   UNL     1       0.015   0.962   2.481  0.00  0.00    +0.006 C 
ATOM     17  C   UNL     1      -0.703   1.491   1.238  0.00  0.00    -0.027 C 
ATOM     18  C   UNL     1      -0.736   3.020   1.279  0.00  0.00    +0.006 C 
ENDBRANCH   4  17
ENDBRANCH   1   4
BRANCH   1  19
ATOM     19  C   UNL     1      -2.496   0.391  -1.122  0.00  0.00    +0.016 C 
BRANCH  19  20
ATOM     20  C   UNL     1      -3.282   0.763  -2.353  0.00  0.00    +0.201 C 
ATOM     21  O   UNL     1      -4.009   1.734  -2.338  0.00  0.00    -0.278 OA
ATOM     22  N   UNL     1      -3.177   0.016  -3.470  0.00  0.00    -0.281 N 
ATOM     23  H   UNL     1      -2.596  -0.760  -3.482  0.00  0.00    +0.155 HD
BRANCH  22  24
ATOM     24  C   UNL     1      -3.901   0.359  -4.604  0.00  0.00    +0.090 A 
ATOM     25  C   UNL     1      -3.922  -0.274  -5.834  0.00  0.00    +0.084 A 
ATOM     26  C   UNL     1      -4.782   0.291  -6.872  0.00  0.00    -0.018 A 
ATOM     27  C   UNL     1      -5.466   1.393  -6.510  0.00  0.00    -0.004 A 
ATOM     28  S   UNL     1      -4.992   1.684  -4.824  0.00  0.00    -0.077 S 
ATOM     29  C   UNL     1      -6.325   1.916  -7.629  0.00  0.00    +0.043 C 
ATOM     30  C   UNL     1      -6.424   0.741  -8.626  0.00  0.00    +0.010 C 
ATOM     31  C   UNL     1      -5.128  -0.038  -8.325  0.00  0.00    +0.037 C 
BRANCH  25  32
ATOM     32  C   UNL     1      -3.131  -1.442  -6.080  0.00  0.00    +0.102 C 
ATOM     33  N   UNL     1      -2.505  -2.369  -6.276  0.00  0.00    -0.191 NA
ENDBRANCH  25  32
ENDBRANCH  22  24
ENDBRANCH  19  20
ENDBRANCH   1  19
TORSDOF 7
