REMARK  Name = ZINC21264233
REMARK  14 active torsions:
REMARK  status: ('A' for Active; 'I' for Inactive)
REMARK    1  A    between atoms: C_1  and  C_2
REMARK    2  A    between atoms: C_2  and  C_4
REMARK    3  A    between atoms: C_2  and  N_10
REMARK    4  A    between atoms: N_10  and  C_11
REMARK    5  A    between atoms: N_10  and  C_15
REMARK    6  A    between atoms: C_11  and  C_12
REMARK    7  A    between atoms: C_12  and  C_13
REMARK    8  A    between atoms: C_12  and  C_14
REMARK    9  A    between atoms: C_15  and  N_17
REMARK   10  A    between atoms: N_17  and  C_18
REMARK   11  A    between atoms: C_20  and  C_26
REMARK   12  A    between atoms: C_20  and  C_27
REMARK   13  A    between atoms: C_22  and  C_24
REMARK   14  A    between atoms: C_22  and  C_25
REMARK                            x       y       z     vdW  Elec       q    Type
REMARK                         _______ _______ _______ _____ _____    ______ ____
ROOT
ATOM      1  C   UNL     1       1.742  -0.691   0.767  0.00  0.00    +0.134 C 
ATOM      2  S   UNL     1       2.245  -0.975  -0.844  0.00  0.00    -0.019 S 
ENDROOT
BRANCH   1   3
ATOM      3  N   UNL     1       2.547  -1.026   1.794  0.00  0.00    -0.324 N 
ATOM      4  H   UNL     1       2.262  -0.865   2.707  0.00  0.00    +0.148 HD
BRANCH   3   5
ATOM      5  C   UNL     1       3.858  -1.635   1.531  0.00  0.00    +0.069 C 
ATOM      6  C   UNL     1       3.691  -3.150   1.403  0.00  0.00    +0.009 C 
ATOM      7  C   UNL     1       5.049  -3.800   1.141  0.00  0.00    -0.072 C 
ATOM      8  N   UNL     1       6.037  -3.430   2.144  0.00  0.00    +0.386 N 
ATOM      9  C   UNL     1       6.144  -2.024   2.500  0.00  0.00    -0.072 C 
ATOM     10  C   UNL     1       4.790  -1.352   2.708  0.00  0.00    +0.009 C 
ATOM     11  C   UNL     1       6.963  -1.240   1.472  0.00  0.00    -0.010 C 
ATOM     12  C   UNL     1       6.908  -1.942   3.843  0.00  0.00    -0.010 C 
ATOM     13  C   UNL     1       5.522  -3.484  -0.277  0.00  0.00    -0.010 C 
ATOM     14  C   UNL     1       4.849  -5.331   1.227  0.00  0.00    -0.010 C 
ATOM     15  H   UNL     1       5.846  -3.964   2.995  0.00  0.00    -0.084 HD
ATOM     16  H   UNL     1       6.954  -3.752   1.825  0.00  0.00    -0.084 HD
ENDBRANCH   3   5
ENDBRANCH   1   3
BRANCH   1  17
ATOM     17  N   UNL     1       0.539  -0.133   1.008  0.00  0.00    -0.306 N 
BRANCH  17  19
ATOM     18  C   UNL     1      -1.602   0.901   0.434  0.00  0.00    +0.033 C 
ATOM     19  C   UNL     1      -0.337   0.231  -0.108  0.00  0.00    +0.102 C 
BRANCH  19  20
ATOM     20  C   UNL     1      -0.715  -1.009  -0.875  0.00  0.00    -0.027 A 
ATOM     21  C   UNL     1      -0.933  -2.198  -0.203  0.00  0.00    +0.005 A 
ATOM     22  C   UNL     1      -1.279  -3.336  -0.907  0.00  0.00    +0.000 A 
ATOM     23  C   UNL     1      -1.409  -3.285  -2.283  0.00  0.00    +0.000 A 
ATOM     24  C   UNL     1      -1.192  -2.097  -2.954  0.00  0.00    +0.000 A 
ATOM     25  C   UNL     1      -0.850  -0.958  -2.250  0.00  0.00    +0.005 A 
ENDBRANCH  19  20
ENDBRANCH  17  19
BRANCH  17  26
ATOM     26  C   UNL     1       0.108   0.110   2.387  0.00  0.00    +0.110 C 
BRANCH  26  27
ATOM     27  C   UNL     1      -0.711  -1.083   2.884  0.00  0.00    +0.000 C 
ATOM     28  C   UNL     1       0.189  -2.318   2.971  0.00  0.00    +0.009 C 
ATOM     29  C   UNL     1      -1.282  -0.769   4.268  0.00  0.00    +0.009 C 
ENDBRANCH  26  27
ENDBRANCH  17  26
ENDBRANCH   1  17
TORSDOF 7
