REMARK  Name = ZINC59170670
REMARK  7 active torsions:
REMARK  status: ('A' for Active; 'I' for Inactive)
REMARK    1  A    between atoms: C_1  and  O_2
REMARK    2  A    between atoms: O_2  and  C_3
REMARK    3  A    between atoms: N_11  and  C_12
REMARK    4  A    between atoms: C_15  and  S_18
REMARK    5  A    between atoms: S_18  and  N_21
REMARK    6  A    between atoms: C_22  and  C_24
REMARK    7  A    between atoms: N_26  and  C_27
REMARK                            x       y       z     vdW  Elec       q    Type
REMARK                         _______ _______ _______ _____ _____    ______ ____
ROOT
ATOM      1  C   UNL     1      -0.800  -0.632   0.029  0.00  0.00    +0.163 A 
ATOM      2  C   UNL     1      -1.695   0.139  -0.692  0.00  0.00    +0.049 A 
ATOM      3  C   UNL     1      -2.603  -0.455  -1.557  0.00  0.00    +0.004 A 
ATOM      4  C   UNL     1      -2.628  -1.823  -1.710  0.00  0.00    +0.012 A 
ATOM      5  C   UNL     1      -1.730  -2.619  -0.987  0.00  0.00    +0.022 A 
ATOM      6  C   UNL     1      -0.804  -2.016  -0.117  0.00  0.00    +0.179 A 
ATOM      7  O   UNL     1       0.074  -2.785   0.573  0.00  0.00    -0.435 OA
ATOM      8  C   UNL     1      -0.307  -4.058   0.850  0.00  0.00    +0.212 A 
ATOM      9  N   UNL     1      -0.054  -4.602   2.021  0.00  0.00    -0.325 N 
ATOM     10  C   UNL     1      -1.016  -4.813  -0.203  0.00  0.00    +0.098 A 
ATOM     11  C   UNL     1      -1.742  -4.077  -1.126  0.00  0.00    +0.030 A 
ATOM     12  H   UNL     1      -0.426  -5.470   2.243  0.00  0.00    +0.169 HD
ENDROOT
BRANCH   9  13
ATOM     13  C   UNL     1       0.732  -3.944   2.925  0.00  0.00    +0.042 A 
ATOM     14  C   UNL     1       1.919  -3.335   2.511  0.00  0.00    +0.027 A 
ATOM     15  C   UNL     1       2.707  -2.672   3.429  0.00  0.00    +0.030 A 
ATOM     16  C   UNL     1       2.325  -2.610   4.757  0.00  0.00    +0.105 A 
ATOM     17  C   UNL     1       1.150  -3.210   5.175  0.00  0.00    +0.030 A 
ATOM     18  C   UNL     1       0.349  -3.872   4.267  0.00  0.00    +0.027 A 
BRANCH  16  19
ATOM     19  S   UNL     1       3.338  -1.761   5.922  0.00  0.00    +0.056 S 
ATOM     20  O   UNL     1       3.039  -2.312   7.198  0.00  0.00    -0.153 OA
ATOM     21  O   UNL     1       4.654  -1.754   5.386  0.00  0.00    -0.153 OA
BRANCH  19  22
ATOM     22  N   UNL     1       2.832  -0.185   5.956  0.00  0.00    -0.204 NA
ATOM     23  H   UNL     1       2.918   0.335   6.771  0.00  0.00    +0.144 HD
ATOM     24  H   UNL     1       2.449   0.218   5.162  0.00  0.00    +0.144 HD
ENDBRANCH  19  22
ENDBRANCH  16  19
ENDBRANCH   9  13
BRANCH  10  25
ATOM     25  C   UNL     1      -0.962  -6.284  -0.262  0.00  0.00    +0.253 C 
ATOM     26  O   UNL     1      -1.660  -6.886  -1.055  0.00  0.00    -0.270 OA
ATOM     27  N   UNL     1      -0.140  -6.962   0.563  0.00  0.00    -0.281 N 
ATOM     28  H   UNL     1       0.377  -6.486   1.232  0.00  0.00    +0.155 HD
BRANCH  27  29
ATOM     29  C   UNL     1      -0.031  -8.353   0.455  0.00  0.00    +0.034 A 
ATOM     30  C   UNL     1      -1.143  -9.113   0.117  0.00  0.00    +0.026 A 
ATOM     31  C   UNL     1      -1.034 -10.485   0.010  0.00  0.00    +0.040 A 
ATOM     32  C   UNL     1       0.184 -11.104   0.239  0.00  0.00    +0.124 A 
ATOM     33  C   UNL     1       1.294 -10.348   0.577  0.00  0.00    +0.040 A 
ATOM     34  C   UNL     1       1.190  -8.974   0.679  0.00  0.00    +0.026 A 
ATOM     35  F   UNL     1       0.289 -12.447   0.135  0.00  0.00    -0.205 F 
ENDBRANCH  27  29
ENDBRANCH  10  25
BRANCH   1  37
ATOM     36  C   UNL     1       0.032   1.386   0.972  0.00  0.00    +0.277 C 
ATOM     37  O   UNL     1       0.086  -0.038   0.873  0.00  0.00    -0.491 OA
ENDBRANCH   1  37
TORSDOF 6
