REMARK  Name = ZINC09102996
REMARK  13 active torsions:
REMARK  status: ('A' for Active; 'I' for Inactive)
REMARK    1  A    between atoms: C_1  and  C_2
REMARK    2  A    between atoms: C_4  and  N_11
REMARK    3  A    between atoms: C_5  and  O_9
REMARK    4  A    between atoms: O_9  and  C_10
REMARK    5  A    between atoms: C_12  and  C_14
REMARK    6  A    between atoms: C_14  and  S_15
REMARK    7  A    between atoms: S_15  and  C_16
REMARK    8  A    between atoms: C_19  and  C_28
REMARK    9  A    between atoms: N_20  and  C_21
REMARK   10  A    between atoms: C_28  and  C_30
REMARK   11  A    between atoms: C_28  and  N_57
REMARK   12  A    between atoms: C_31  and  N_57
REMARK   13  A    between atoms: C_32  and  N_57
REMARK                            x       y       z     vdW  Elec       q    Type
REMARK                         _______ _______ _______ _____ _____    ______ ____
ROOT
ATOM      1  C   UNL     1      -3.264   4.462  -1.091  0.00  0.00    +0.197 A 
ATOM      2  N   UNL     1      -2.599   3.613  -1.839  0.00  0.00    -0.122 NA
ATOM      3  N   UNL     1      -1.675   3.050  -1.146  0.00  0.00    -0.135 NA
ATOM      4  C   UNL     1      -1.698   3.494   0.079  0.00  0.00    +0.125 A 
ATOM      5  N   UNL     1      -2.710   4.413   0.159  0.00  0.00    -0.275 N 
ENDROOT
BRANCH   5   6
ATOM      6  C   UNL     1      -3.098   5.151   1.288  0.00  0.00    +0.050 A 
ATOM      7  C   UNL     1      -3.626   4.501   2.395  0.00  0.00    +0.028 A 
ATOM      8  C   UNL     1      -4.002   5.229   3.507  0.00  0.00    +0.022 A 
ATOM      9  C   UNL     1      -3.862   6.606   3.514  0.00  0.00    +0.041 A 
ATOM     10  C   UNL     1      -3.340   7.256   2.410  0.00  0.00    +0.022 A 
ATOM     11  C   UNL     1      -2.958   6.532   1.297  0.00  0.00    +0.028 A 
ATOM     12 CL   UNL     1      -4.341   7.518   4.911  0.00  0.00    -0.084 Cl
ENDBRANCH   5   6
BRANCH   4  13
ATOM     13  C   UNL     1      -0.778   3.078   1.198  0.00  0.00    -0.003 C 
ATOM     14  C   UNL     1       0.598   3.712   0.989  0.00  0.00    -0.005 C 
BRANCH  13  17
ATOM     15  C   UNL     1       0.039   1.142  -0.005  0.00  0.00    -0.096 C 
ATOM     16  C   UNL     1       0.046   1.154   2.416  0.00  0.00    -0.096 C 
ATOM     17  N   UNL     1      -0.673   1.603   1.205  0.00  0.00    +0.382 N 
ATOM     18  H   UNL     1      -1.618   1.202   1.210  0.00  0.00    -0.082 HD
ENDBRANCH  13  17
ENDBRANCH   4  13
BRANCH   1  19
ATOM     19  S   UNL     1      -4.615   5.473  -1.599  0.00  0.00    -0.076 S 
BRANCH  19  20
ATOM     20  C   UNL     1      -4.743   4.976  -3.335  0.00  0.00    +0.173 C 
BRANCH  20  22
ATOM     21  N   UNL     1      -6.149   5.526  -5.294  0.00  0.00    -0.282 N 
ATOM     22  C   UNL     1      -5.867   5.734  -3.993  0.00  0.00    +0.228 C 
ATOM     23  O   UNL     1      -6.517   6.532  -3.351  0.00  0.00    -0.275 OA
ATOM     24  H   UNL     1      -5.589   4.937  -5.824  0.00  0.00    +0.155 HD
BRANCH  21  28
ATOM     25  C   UNL     1      -9.092   9.451  -5.629  0.00  0.00    +0.045 C 
ATOM     26  C   UNL     1      -8.701   8.063  -6.064  0.00  0.00    -0.030 A 
ATOM     27  C   UNL     1      -7.613   7.438  -5.483  0.00  0.00    +0.031 A 
ATOM     28  C   UNL     1      -7.252   6.161  -5.883  0.00  0.00    +0.076 A 
ATOM     29  C   UNL     1      -7.984   5.511  -6.874  0.00  0.00    +0.143 A 
ATOM     30  C   UNL     1      -9.076   6.140  -7.449  0.00  0.00    +0.067 A 
ATOM     31  C   UNL     1      -9.431   7.415  -7.045  0.00  0.00    +0.047 A 
ATOM     32 CL   UNL     1     -10.796   8.205  -7.772  0.00  0.00    -0.083 Cl
BRANCH  29  33
ATOM     33  O   UNL     1      -7.630   4.260  -7.273  0.00  0.00    -0.493 OA
ATOM     34  C   UNL     1      -8.427   3.656  -8.294  0.00  0.00    +0.277 C 
ENDBRANCH  29  33
ENDBRANCH  21  28
ENDBRANCH  20  22
ENDBRANCH  19  20
ENDBRANCH   1  19
TORSDOF 8
