REMARK  Name = ZINC21809873
REMARK  8 active torsions:
REMARK  status: ('A' for Active; 'I' for Inactive)
REMARK    1  A    between atoms: C_1  and  C_2
REMARK    2  A    between atoms: C_2  and  C_25
REMARK    3  A    between atoms: N_14  and  C_15
REMARK    4  A    between atoms: C_15  and  C_16
REMARK    5  A    between atoms: C_16  and  N_17
REMARK    6  A    between atoms: N_17  and  C_18
REMARK    7  A    between atoms: N_17  and  C_19
REMARK    8  A    between atoms: N_27  and  C_28
REMARK                            x       y       z     vdW  Elec       q    Type
REMARK                         _______ _______ _______ _____ _____    ______ ____
ROOT
ATOM      1  C   UNL     1       0.934   2.386  -2.368  0.00  0.00    +0.043 C 
ATOM      2  C   UNL     1       2.006   2.284  -1.281  0.00  0.00    +0.128 C 
ATOM      3  C   UNL     1       2.832   3.571  -1.280  0.00  0.00    +0.157 C 
ATOM      4  N   UNL     1       3.649   3.614  -0.064  0.00  0.00    -0.333 N 
ATOM      5  C   UNL     1       4.874   4.223   0.137  0.00  0.00    +0.057 A 
ATOM      6  C   UNL     1       5.815   4.971  -0.587  0.00  0.00    +0.034 A 
ATOM      7  C   UNL     1       6.943   5.406   0.012  0.00  0.00    +0.048 A 
ATOM      8  S   UNL     1       6.768   4.783   1.675  0.00  0.00    -0.095 S 
ATOM      9  C   UNL     1       5.200   3.976   1.479  0.00  0.00    +0.038 A 
ATOM     10  C   UNL     1       4.190   3.227   2.072  0.00  0.00    +0.048 A 
ATOM     11  C   UNL     1       3.244   3.002   1.117  0.00  0.00    +0.106 A 
ATOM     12  C   UNL     1       1.980   2.259   1.180  0.00  0.00    +0.264 C 
ATOM     13  O   UNL     1       1.521   1.863   2.236  0.00  0.00    -0.268 OA
ATOM     14  N   UNL     1       1.356   2.033   0.000  0.00  0.00    -0.282 N 
ENDROOT
BRANCH   2  15
ATOM     15  C   UNL     1       2.914   1.125  -1.601  0.00  0.00    +0.238 C 
ATOM     16  O   UNL     1       3.055   0.765  -2.750  0.00  0.00    -0.273 OA
ATOM     17  N   UNL     1       3.570   0.489  -0.610  0.00  0.00    -0.311 N 
ATOM     18  H   UNL     1       3.443   0.816   0.432  0.00  0.00    +0.149 HD
BRANCH  17  19
ATOM     19  C   UNL     1       4.454  -0.637  -0.921  0.00  0.00    +0.073 C 
ATOM     20  C   UNL     1       3.605  -1.921  -1.035  0.00  0.00    +0.022 C 
ATOM     21  C   UNL     1       4.380  -2.936  -1.832  0.00  0.00    +0.002 C 
ATOM     22  C   UNL     1       5.188  -3.894  -0.936  0.00  0.00    +0.000 C 
ATOM     23  C   UNL     1       5.878  -3.175   0.238  0.00  0.00    +0.000 C 
ATOM     24  C   UNL     1       6.490  -1.862  -0.170  0.00  0.00    +0.002 C 
ATOM     25  C   UNL     1       5.472  -0.738   0.113  0.00  0.00    +0.022 C 
ENDBRANCH  17  19
ENDBRANCH   2  15
BRANCH  14  26
ATOM     26  C   UNL     1      -0.019   1.526   0.010  0.00  0.00    +0.091 C 
BRANCH  26  27
ATOM     27  C   UNL     1       0.002  -0.004   0.002  0.00  0.00    -0.060 C 
BRANCH  27  28
ATOM     28  N   UNL     1      -1.376  -0.512   0.012  0.00  0.00    +0.381 N 
ATOM     29  C   UNL     1      -2.051  -0.179   1.274  0.00  0.00    -0.096 C 
ATOM     30  H   UNL     1      -1.924  -0.020  -0.804  0.00  0.00    -0.082 HD
BRANCH  28  31
ATOM     31  C   UNL     1      -1.405  -1.961  -0.233  0.00  0.00    -0.069 C 
ATOM     32  C   UNL     1      -0.782  -2.259  -1.599  0.00  0.00    -0.015 C 
ATOM     33  C   UNL     1      -0.812  -3.767  -1.855  0.00  0.00    -0.002 C 
ATOM     34  C   UNL     1      -2.261  -4.258  -1.836  0.00  0.00    -0.000 C 
ATOM     35  C   UNL     1      -2.884  -3.960  -0.471  0.00  0.00    -0.002 C 
ATOM     36  C   UNL     1      -2.854  -2.452  -0.215  0.00  0.00    -0.015 C 
ENDBRANCH  28  31
ENDBRANCH  27  28
ENDBRANCH  26  27
ENDBRANCH  14  26
TORSDOF 6
