REMARK  Name = ZINC66978762
REMARK  8 active torsions:
REMARK  status: ('A' for Active; 'I' for Inactive)
REMARK    1  A    between atoms: C_1  and  C_2
REMARK    2  A    between atoms: C_2  and  C_4
REMARK    3  A    between atoms: C_2  and  N_12
REMARK    4  A    between atoms: C_4  and  N_5
REMARK    5  A    between atoms: N_8  and  C_11
REMARK    6  A    between atoms: N_15  and  C_16
REMARK    7  A    between atoms: C_16  and  C_17
REMARK    8  A    between atoms: C_17  and  O_27
REMARK                            x       y       z     vdW  Elec       q    Type
REMARK                         _______ _______ _______ _____ _____    ______ ____
ROOT
ATOM      1  N   UNL     1      -1.230  -1.032   0.062  0.00  0.00    -0.296 N 
ATOM      2  C   UNL     1      -1.925  -1.037   1.217  0.00  0.00    +0.300 C 
ATOM      3  O   UNL     1      -1.354  -0.829   2.271  0.00  0.00    -0.253 OA
ATOM      4  N   UNL     1      -3.252  -1.272   1.205  0.00  0.00    -0.296 N 
ATOM      5  H   UNL     1      -1.686  -1.197  -0.778  0.00  0.00    +0.151 HD
ATOM      6  H   UNL     1      -3.707  -1.438   0.364  0.00  0.00    +0.150 HD
ENDROOT
BRANCH   1   8
ATOM      7  C   UNL     1       0.462   0.734   0.062  0.00  0.00    +0.029 C 
ATOM      8  C   UNL     1       0.212  -0.775   0.076  0.00  0.00    +0.085 C 
BRANCH   8   9
ATOM      9  C   UNL     1       0.854  -1.409  -1.160  0.00  0.00    +0.106 C 
BRANCH   9  10
ATOM     10  N   UNL     1       0.514  -2.837  -1.210  0.00  0.00    -0.304 NA
ATOM     11  C   UNL     1       1.128  -3.565  -0.091  0.00  0.00    +0.066 C 
ATOM     12  C   UNL     1       0.701  -5.034  -0.146  0.00  0.00    -0.064 C 
ATOM     13  N   UNL     1       1.125  -5.620  -1.424  0.00  0.00    +0.379 N 
ATOM     14  C   UNL     1       0.484  -4.898  -2.532  0.00  0.00    -0.064 C 
ATOM     15  C   UNL     1       0.909  -3.428  -2.497  0.00  0.00    +0.066 C 
ATOM     16  C   UNL     1       0.731  -7.034  -1.469  0.00  0.00    -0.096 C 
ATOM     17  H   UNL     1       2.127  -5.547  -1.511  0.00  0.00    -0.082 HD
ENDBRANCH   9  10
ENDBRANCH   8   9
ENDBRANCH   1   8
BRANCH   4  18
ATOM     18  C   UNL     1      -4.006  -1.278   2.460  0.00  0.00    +0.145 C 
BRANCH  18  19
ATOM     19  C   UNL     1      -5.451  -1.701   2.185  0.00  0.00    +0.107 C 
ATOM     20  C   UNL     1      -5.455  -3.074   1.517  0.00  0.00    +0.041 C 
ATOM     21  C   UNL     1      -6.903  -3.574   1.448  0.00  0.00    +0.008 C 
ATOM     22  C   UNL     1      -7.365  -3.906   2.866  0.00  0.00    +0.035 C 
ATOM     23  C   UNL     1      -7.095  -2.752   3.795  0.00  0.00    -0.041 A 
ATOM     24  C   UNL     1      -6.213  -1.741   3.484  0.00  0.00    -0.011 A 
ATOM     25  C   UNL     1      -6.004  -0.709   4.388  0.00  0.00    +0.007 A 
ATOM     26  C   UNL     1      -6.675  -0.685   5.594  0.00  0.00    +0.000 A 
ATOM     27  C   UNL     1      -7.563  -1.698   5.904  0.00  0.00    +0.000 A 
ATOM     28  C   UNL     1      -7.771  -2.726   5.008  0.00  0.00    +0.004 A 
BRANCH  19  29
ATOM     29  O   UNL     1      -6.061  -0.750   1.310  0.00  0.00    -0.382 OA
ATOM     30  H   UNL     1      -6.088   0.149   1.664  0.00  0.00    +0.211 HD
ENDBRANCH  19  29
ENDBRANCH  18  19
ENDBRANCH   4  18
TORSDOF 6
