REMARK  Name = ZINC65533511
REMARK  5 active torsions:
REMARK  status: ('A' for Active; 'I' for Inactive)
REMARK    1  A    between atoms: C_1  and  N_2
REMARK    2  A    between atoms: C_9  and  C_11
REMARK    3  A    between atoms: N_13  and  C_14
REMARK    4  A    between atoms: C_14  and  C_15
REMARK    5  A    between atoms: C_15  and  O_25
REMARK                            x       y       z     vdW  Elec       q    Type
REMARK                         _______ _______ _______ _____ _____    ______ ____
ROOT
ATOM      1  C   UNL     1       0.177  -3.012   1.343  0.00  0.00    +0.219 C 
ATOM      2  O   UNL     1      -0.440  -3.727   0.582  0.00  0.00    -0.275 OA
ATOM      3  N   UNL     1       0.019  -3.151   2.675  0.00  0.00    -0.312 N 
ATOM      4  H   UNL     1       0.513  -2.580   3.284  0.00  0.00    +0.149 HD
ENDROOT
BRANCH   1  12
ATOM      5  C   UNL     1      -0.018   1.465   0.010  0.00  0.00    +0.104 C 
ATOM      6  N   UNL     1       0.002  -0.004   0.002  0.00  0.00    -0.304 NA
ATOM      7  C   UNL     1       0.786  -0.519  -1.150  0.00  0.00    +0.086 C 
ATOM      8  C   UNL     1       1.167  -1.960  -0.750  0.00  0.00    +0.000 C 
ATOM      9  C   UNL     1       2.647  -2.202  -1.116  0.00  0.00    -0.077 C 
ATOM     10  N   UNL     1       3.219  -2.896   0.066  0.00  0.00    +0.380 N 
ATOM     11  C   UNL     1       2.598  -2.210   1.227  0.00  0.00    -0.065 C 
ATOM     12  C   UNL     1       1.120  -1.969   0.801  0.00  0.00    +0.047 C 
ATOM     13  C   UNL     1       0.714  -0.533   1.193  0.00  0.00    +0.098 C 
ATOM     14  H   UNL     1       2.967  -3.873   0.057  0.00  0.00    -0.086 HD
ATOM     15  H   UNL     1       4.222  -2.788   0.087  0.00  0.00    -0.086 HD
ENDBRANCH   1  12
BRANCH   3  16
ATOM     16  C   UNL     1      -0.897  -4.165   3.202  0.00  0.00    +0.139 C 
BRANCH  16  17
ATOM     17  C   UNL     1      -0.890  -4.114   4.731  0.00  0.00    +0.087 C 
ATOM     18  C   UNL     1       0.545  -4.265   5.240  0.00  0.00    +0.023 C 
ATOM     19  C   UNL     1       1.113  -5.607   4.772  0.00  0.00    +0.010 C 
ATOM     20  C   UNL     1       0.253  -6.745   5.325  0.00  0.00    -0.010 C 
ATOM     21  C   UNL     1       0.261  -6.694   6.854  0.00  0.00    +0.007 C 
ATOM     22  C   UNL     1      -0.308  -5.352   7.321  0.00  0.00    -0.010 C 
ATOM     23  C   UNL     1       0.552  -4.214   6.769  0.00  0.00    +0.010 C 
ATOM     24  C   UNL     1      -1.743  -5.201   6.813  0.00  0.00    +0.010 C 
ATOM     25  C   UNL     1      -1.750  -5.252   5.284  0.00  0.00    +0.023 C 
ATOM     26  C   UNL     1      -1.182  -6.594   4.816  0.00  0.00    +0.010 C 
BRANCH  17  27
ATOM     27  O   UNL     1      -1.421  -2.861   5.168  0.00  0.00    -0.386 OA
ATOM     28  H   UNL     1      -0.924  -2.093   4.854  0.00  0.00    +0.210 HD
ENDBRANCH  17  27
ENDBRANCH  16  17
ENDBRANCH   3  16
TORSDOF 4
