REMARK  Name = ZINC59170482
REMARK  11 active torsions:
REMARK  status: ('A' for Active; 'I' for Inactive)
REMARK    1  A    between atoms: C_1  and  C_2
REMARK    2  A    between atoms: C_2  and  O_3
REMARK    3  A    between atoms: O_3  and  C_4
REMARK    4  A    between atoms: N_12  and  N_13
REMARK    5  A    between atoms: N_13  and  S_14
REMARK    6  A    between atoms: S_14  and  C_17
REMARK    7  A    between atoms: C_20  and  C_23
REMARK    8  A    between atoms: C_24  and  C_26
REMARK    9  A    between atoms: N_28  and  C_29
REMARK   10  A    between atoms: C_32  and  C_36
REMARK   11  A    between atoms: C_33  and  C_35
REMARK                            x       y       z     vdW  Elec       q    Type
REMARK                         _______ _______ _______ _____ _____    ______ ____
ROOT
ATOM      1  C   UNL     1      -2.877  -2.870   1.123  0.00  0.00    +0.163 A 
ATOM      2  C   UNL     1      -1.980  -3.855   0.740  0.00  0.00    +0.049 A 
ATOM      3  C   UNL     1      -2.431  -5.113   0.373  0.00  0.00    +0.004 A 
ATOM      4  C   UNL     1      -3.779  -5.402   0.383  0.00  0.00    +0.012 A 
ATOM      5  C   UNL     1      -4.697  -4.418   0.767  0.00  0.00    +0.022 A 
ATOM      6  C   UNL     1      -4.239  -3.145   1.146  0.00  0.00    +0.179 A 
ATOM      7  O   UNL     1      -5.130  -2.193   1.529  0.00  0.00    -0.434 OA
ATOM      8  C   UNL     1      -6.391  -2.291   1.018  0.00  0.00    +0.225 A 
ATOM      9  N   UNL     1      -7.044  -1.231   0.632  0.00  0.00    -0.260 N 
ATOM     10  C   UNL     1      -6.995  -3.640   0.916  0.00  0.00    +0.099 A 
ATOM     11  C   UNL     1      -6.137  -4.702   0.782  0.00  0.00    +0.030 A 
ATOM     12  H   UNL     1      -7.906  -1.324   0.196  0.00  0.00    +0.189 HD
ENDROOT
BRANCH  10  13
ATOM     13  C   UNL     1      -8.455  -3.831   0.944  0.00  0.00    +0.253 C 
ATOM     14  O   UNL     1      -9.194  -2.865   0.985  0.00  0.00    -0.270 OA
ATOM     15  N   UNL     1      -8.972  -5.075   0.925  0.00  0.00    -0.281 N 
ATOM     16  H   UNL     1      -8.385  -5.845   0.987  0.00  0.00    +0.155 HD
BRANCH  15  17
ATOM     17  C   UNL     1     -10.354  -5.256   0.818  0.00  0.00    +0.034 A 
ATOM     18  C   UNL     1     -11.119  -4.356   0.087  0.00  0.00    +0.023 A 
ATOM     19  C   UNL     1     -12.484  -4.538  -0.018  0.00  0.00    +0.005 A 
ATOM     20  C   UNL     1     -13.090  -5.615   0.605  0.00  0.00    -0.047 A 
ATOM     21  C   UNL     1     -12.331  -6.512   1.333  0.00  0.00    -0.046 A 
ATOM     22  C   UNL     1     -10.965  -6.339   1.437  0.00  0.00    +0.027 A 
ATOM     23  C   UNL     1     -12.995  -7.683   2.011  0.00  0.00    +0.044 C 
ATOM     24  C   UNL     1     -14.580  -5.810   0.489  0.00  0.00    +0.044 C 
ENDBRANCH  15  17
ENDBRANCH  10  13
BRANCH   9  25
ATOM     25  N   UNL     1      -6.501   0.043   0.846  0.00  0.00    -0.157 N 
ATOM     26  H   UNL     1      -5.609   0.134   1.215  0.00  0.00    +0.194 HD
BRANCH  25  27
ATOM     27  S   UNL     1      -7.383   1.393   0.470  0.00  0.00    +0.085 S 
ATOM     28  O   UNL     1      -6.694   2.499   1.035  0.00  0.00    -0.149 OA
ATOM     29  O   UNL     1      -7.683   1.309  -0.916  0.00  0.00    -0.149 OA
BRANCH  27  30
ATOM     30  C   UNL     1      -8.919   1.266   1.326  0.00  0.00    +0.110 A 
ATOM     31  C   UNL     1     -10.024   0.737   0.687  0.00  0.00    +0.029 A 
ATOM     32  C   UNL     1     -11.229   0.638   1.358  0.00  0.00    +0.005 A 
ATOM     33  C   UNL     1     -11.328   1.068   2.668  0.00  0.00    -0.050 A 
ATOM     34  C   UNL     1     -10.222   1.597   3.307  0.00  0.00    +0.005 A 
ATOM     35  C   UNL     1      -9.016   1.692   2.637  0.00  0.00    +0.029 A 
ATOM     36  C   UNL     1     -12.641   0.961   3.399  0.00  0.00    +0.044 C 
ENDBRANCH  27  30
ENDBRANCH  25  27
ENDBRANCH   9  25
BRANCH   1  37
ATOM     37  O   UNL     1      -2.424  -1.639   1.481  0.00  0.00    -0.489 OA
BRANCH  37  39
ATOM     38  C   UNL     1      -0.695   0.005   1.867  0.00  0.00    +0.048 C 
ATOM     39  C   UNL     1      -1.012  -1.428   1.433  0.00  0.00    +0.226 C 
ENDBRANCH  37  39
ENDBRANCH   1  37
TORSDOF 7
