REMARK  Name = ZINC48025627
REMARK  7 active torsions:
REMARK  status: ('A' for Active; 'I' for Inactive)
REMARK    1  A    between atoms: C_1  and  C_2
REMARK    2  A    between atoms: C_2  and  C_4
REMARK    3  A    between atoms: C_2  and  N_18
REMARK    4  A    between atoms: N_6  and  C_7
REMARK    5  A    between atoms: C_12  and  C_13
REMARK    6  A    between atoms: C_21  and  C_24
REMARK    7  A    between atoms: C_24  and  C_25
REMARK                            x       y       z     vdW  Elec       q    Type
REMARK                         _______ _______ _______ _____ _____    ______ ____
ROOT
ATOM      1  C   UNL     1       0.118   1.126   0.835  0.00  0.00    -0.004 C 
ATOM      2  C   UNL     1       0.002  -0.120  -0.045  0.00  0.00    +0.016 C 
ENDROOT
BRANCH   2   3
ATOM      3  N   UNL     1       0.977  -1.125   0.399  0.00  0.00    +0.387 N 
ATOM      4  C   UNL     1       2.326  -0.548   0.357  0.00  0.00    -0.078 C 
ATOM      5  C   UNL     1       3.336  -1.563   0.895  0.00  0.00    -0.015 C 
ATOM      6  C   UNL     1       3.293  -2.826   0.030  0.00  0.00    -0.006 C 
ATOM      7  C   UNL     1       1.864  -3.378   0.021  0.00  0.00    -0.015 C 
ATOM      8  C   UNL     1       0.908  -2.295  -0.485  0.00  0.00    -0.078 C 
ATOM      9  H   UNL     1       0.763  -1.406   1.344  0.00  0.00    -0.081 HD
BRANCH   6  10
ATOM     10  C   UNL     1       4.243  -3.876   0.609  0.00  0.00    +0.099 C 
BRANCH  10  11
ATOM     11  C   UNL     1       4.293  -5.070  -0.309  0.00  0.00    +0.211 C 
ATOM     12  O   UNL     1       3.633  -5.080  -1.327  0.00  0.00    -0.276 OA
ATOM     13  N   UNL     1       5.070  -6.126  -0.000  0.00  0.00    -0.329 N 
ATOM     14  H   UNL     1       5.598  -6.118   0.814  0.00  0.00    +0.145 HD
ATOM     15  H   UNL     1       5.102  -6.895  -0.591  0.00  0.00    +0.145 HD
ENDBRANCH  10  11
ENDBRANCH   6  10
ENDBRANCH   2   3
BRANCH   2  16
ATOM     16  C   UNL     1      -1.390  -0.687   0.068  0.00  0.00    +0.203 C 
ATOM     17  O   UNL     1      -1.633  -1.538   0.898  0.00  0.00    -0.277 OA
ATOM     18  N   UNL     1      -2.365  -0.247  -0.752  0.00  0.00    -0.286 N 
ATOM     19  H   UNL     1      -2.157   0.386  -1.457  0.00  0.00    +0.155 HD
BRANCH  18  20
ATOM     20  C   UNL     1      -3.678  -0.705  -0.587  0.00  0.00    +0.045 A 
ATOM     21  C   UNL     1      -3.913  -1.975  -0.078  0.00  0.00    +0.025 A 
ATOM     22  C   UNL     1      -5.208  -2.424   0.084  0.00  0.00    +0.022 A 
ATOM     23  C   UNL     1      -6.273  -1.609  -0.260  0.00  0.00    +0.042 A 
ATOM     24  C   UNL     1      -6.041  -0.343  -0.767  0.00  0.00    +0.034 A 
ATOM     25  C   UNL     1      -4.747   0.114  -0.926  0.00  0.00    +0.077 A 
ATOM     26 CL   UNL     1      -7.901  -2.176  -0.056  0.00  0.00    -0.084 Cl
BRANCH  25  27
ATOM     27  C   UNL     1      -4.496   1.495  -1.472  0.00  0.00    +0.419 C 
ATOM     28  F   UNL     1      -5.718   2.121  -1.737  0.00  0.00    -0.166 F 
ATOM     29  F   UNL     1      -3.781   2.246  -0.532  0.00  0.00    -0.166 F 
ATOM     30  F   UNL     1      -3.754   1.401  -2.655  0.00  0.00    -0.166 F 
ENDBRANCH  25  27
ENDBRANCH  18  20
ENDBRANCH   2  16
TORSDOF 6
