REMARK  Name = ZINC64503445
REMARK  8 active torsions:
REMARK  status: ('A' for Active; 'I' for Inactive)
REMARK    1  A    between atoms: C_4  and  C_7
REMARK    2  A    between atoms: C_11  and  C_14
REMARK    3  A    between atoms: C_19  and  O_20
REMARK    4  A    between atoms: O_20  and  C_21
REMARK    5  A    between atoms: C_21  and  C_22
REMARK    6  A    between atoms: N_24  and  C_25
REMARK    7  A    between atoms: C_25  and  C_26
REMARK    8  A    between atoms: C_26  and  C_27
REMARK                            x       y       z     vdW  Elec       q    Type
REMARK                         _______ _______ _______ _____ _____    ______ ____
ROOT
ATOM      1  C   UNL     1       6.061  -2.349  -1.840  0.00  0.00    +0.039 A 
ATOM      2  C   UNL     1       7.133  -2.332  -0.970  0.00  0.00    +0.011 A 
ATOM      3  C   UNL     1       8.424  -2.277  -1.462  0.00  0.00    +0.001 A 
ATOM      4  C   UNL     1       8.645  -2.239  -2.827  0.00  0.00    +0.004 A 
ATOM      5  C   UNL     1       7.575  -2.256  -3.701  0.00  0.00    +0.046 A 
ATOM      6  C   UNL     1       6.279  -2.317  -3.210  0.00  0.00    +0.128 A 
ENDROOT
BRANCH   1  10
ATOM      7  C   UNL     1       3.711  -0.707  -0.038  0.00  0.00    +0.233 C 
ATOM      8  N   UNL     1       3.603  -1.979   0.724  0.00  0.00    -0.223 NA
ATOM      9  N   UNL     1       4.676  -2.794   0.127  0.00  0.00    -0.223 NA
ATOM     10  C   UNL     1       4.654  -2.408  -1.303  0.00  0.00    +0.237 C 
ATOM     11  O   UNL     1       4.043  -1.110  -1.379  0.00  0.00    -0.333 OA
ATOM     12  H   UNL     1       2.702  -2.410   0.583  0.00  0.00    +0.144 HD
ATOM     13  H   UNL     1       4.487  -3.779   0.239  0.00  0.00    +0.144 HD
BRANCH   7  17
ATOM     14  C   UNL     1      -0.016   1.380   0.013  0.00  0.00    +0.000 A 
ATOM     15  C   UNL     1       0.438   0.748   1.155  0.00  0.00    +0.000 A 
ATOM     16  C   UNL     1       1.644   0.072   1.139  0.00  0.00    +0.007 A 
ATOM     17  C   UNL     1       2.396   0.029  -0.020  0.00  0.00    -0.003 A 
ATOM     18  C   UNL     1       1.942   0.660  -1.163  0.00  0.00    +0.007 A 
ATOM     19  C   UNL     1       0.737   1.337  -1.146  0.00  0.00    +0.000 A 
ENDBRANCH   7  17
ENDBRANCH   1  10
BRANCH   6  20
ATOM     20  O   UNL     1       5.226  -2.339  -4.068  0.00  0.00    -0.482 OA
BRANCH  20  21
ATOM     21  C   UNL     1       5.526  -2.304  -5.465  0.00  0.00    +0.324 C 
BRANCH  21  22
ATOM     22  C   UNL     1       4.244  -2.335  -6.255  0.00  0.00    +0.251 C 
ATOM     23  O   UNL     1       3.178  -2.384  -5.679  0.00  0.00    -0.272 OA
ATOM     24  N   UNL     1       4.282  -2.310  -7.602  0.00  0.00    -0.312 N 
ATOM     25  H   UNL     1       5.135  -2.271  -8.063  0.00  0.00    +0.149 HD
BRANCH  24  26
ATOM     26  C   UNL     1       3.035  -2.341  -8.371  0.00  0.00    +0.108 C 
BRANCH  26  27
ATOM     27  C   UNL     1       3.357  -2.303  -9.866  0.00  0.00    +0.052 C 
BRANCH  27  28
ATOM     28  C   UNL     1       2.074  -2.335 -10.657  0.00  0.00    -0.040 C 
ATOM     29  C   UNL     1       1.395  -1.273 -11.149  0.00  0.00    -0.001 A 
ATOM     30  C   UNL     1       1.639   0.173 -11.097  0.00  0.00    +0.010 A 
ATOM     31  C   UNL     1       0.760   1.008 -11.697  0.00  0.00    +0.001 A 
ATOM     32  C   UNL     1      -0.374   0.528 -12.365  0.00  0.00    +0.002 A 
ATOM     33  C   UNL     1      -0.665  -0.787 -12.456  0.00  0.00    +0.026 A 
ATOM     34  C   UNL     1       0.191  -1.755 -11.861  0.00  0.00    +0.043 A 
ATOM     35  N   UNL     1       0.127  -3.063 -11.812  0.00  0.00    -0.380 N 
ATOM     36  C   UNL     1       1.288  -3.560 -11.066  0.00  0.00    +0.144 C 
ATOM     37  H   UNL     1      -0.570  -3.611 -12.205  0.00  0.00    +0.160 HD
ENDBRANCH  27  28
ENDBRANCH  26  27
ENDBRANCH  24  26
ENDBRANCH  21  22
ENDBRANCH  20  21
ENDBRANCH   6  20
TORSDOF 8
