REMARK  Name = ZINC66567570
REMARK  11 active torsions:
REMARK  status: ('A' for Active; 'I' for Inactive)
REMARK    1  A    between atoms: C_1  and  C_2
REMARK    2  A    between atoms: C_2  and  C_4
REMARK    3  A    between atoms: C_2  and  N_10
REMARK    4  A    between atoms: C_13  and  C_16
REMARK    5  A    between atoms: C_13  and  N_17
REMARK    6  A    between atoms: N_17  and  C_18
REMARK    7  A    between atoms: C_19  and  O_21
REMARK    8  A    between atoms: O_21  and  C_22
REMARK    9  A    between atoms: C_22  and  C_23
REMARK   10  A    between atoms: C_22  and  C_24
REMARK   11  A    between atoms: C_22  and  C_25
REMARK                            x       y       z     vdW  Elec       q    Type
REMARK                         _______ _______ _______ _____ _____    ______ ____
ROOT
ATOM      1  N   UNL     1       0.754  -1.521  -1.591  0.00  0.00    +0.387 N 
ATOM      2  C   UNL     1       0.151  -1.125  -2.870  0.00  0.00    -0.076 C 
ATOM      3  C   UNL     1       0.132  -2.324  -3.821  0.00  0.00    +0.007 C 
ATOM      4  C   UNL     1      -0.691  -3.453  -3.195  0.00  0.00    +0.034 C 
ATOM      5  C   UNL     1      -0.097  -3.807  -1.829  0.00  0.00    +0.007 C 
ATOM      6  C   UNL     1      -0.069  -2.554  -0.951  0.00  0.00    -0.076 C 
ATOM      7  C   UNL     1      -0.649  -4.682  -4.105  0.00  0.00    +0.032 C 
ATOM      8  H   UNL     1       1.680  -1.886  -1.757  0.00  0.00    -0.081 HD
ENDROOT
BRANCH   4   9
ATOM      9  N   UNL     1      -2.078  -3.013  -3.027  0.00  0.00    -0.265 N 
ATOM     10  C   UNL     1      -2.727  -3.121  -1.718  0.00  0.00    +0.136 C 
ATOM     11  C   UNL     1      -2.758  -2.510  -4.077  0.00  0.00    +0.404 C 
ATOM     12  O   UNL     1      -2.220  -2.421  -5.162  0.00  0.00    -0.226 OA
BRANCH  11  13
ATOM     13  O   UNL     1      -4.033  -2.106  -3.922  0.00  0.00    -0.445 OA
BRANCH  13  14
ATOM     14  C   UNL     1      -4.692  -1.583  -5.077  0.00  0.00    +0.107 C 
ATOM     15  C   UNL     1      -4.729  -2.653  -6.171  0.00  0.00    +0.055 C 
ATOM     16  C   UNL     1      -6.121  -1.180  -4.710  0.00  0.00    +0.055 C 
ATOM     17  C   UNL     1      -3.931  -0.358  -5.588  0.00  0.00    +0.055 C 
ENDBRANCH  13  14
ENDBRANCH  11  13
ENDBRANCH   4   9
BRANCH   1  19
ATOM     18  C   UNL     1       1.598   0.772  -1.425  0.00  0.00    -0.004 C 
ATOM     19  C   UNL     1       0.842  -0.349  -0.710  0.00  0.00    +0.017 C 
BRANCH  19  20
ATOM     20  C   UNL     1       1.575  -0.724   0.553  0.00  0.00    +0.207 C 
ATOM     21  O   UNL     1       2.400  -1.612   0.533  0.00  0.00    -0.277 OA
ATOM     22  N   UNL     1       1.313  -0.073   1.703  0.00  0.00    -0.242 N 
ATOM     23  C   UNL     1       1.968  -0.408   2.832  0.00  0.00    +0.303 C 
ATOM     24  O   UNL     1       2.796  -1.298   2.812  0.00  0.00    -0.253 OA
ATOM     25  N   UNL     1       1.706   0.243   3.982  0.00  0.00    -0.313 N 
ATOM     26  H   UNL     1       0.652   0.637   1.718  0.00  0.00    +0.159 HD
ATOM     27  H   UNL     1       1.046   0.954   3.998  0.00  0.00    +0.146 HD
ATOM     28  H   UNL     1       2.178   0.002   4.795  0.00  0.00    +0.146 HD
ENDBRANCH  19  20
ENDBRANCH   1  19
TORSDOF 5
