REMARK  Name = ZINC09305106
REMARK  5 active torsions:
REMARK  status: ('A' for Active; 'I' for Inactive)
REMARK    1  A    between atoms: C_4  and  C_7
REMARK    2  A    between atoms: C_7  and  C_8
REMARK    3  A    between atoms: C_8  and  N_54
REMARK    4  A    between atoms: N_16  and  C_17
REMARK    5  A    between atoms: C_18  and  C_25
REMARK                            x       y       z     vdW  Elec       q    Type
REMARK                         _______ _______ _______ _____ _____    ______ ____
ROOT
ATOM      1  C   UNL     1      -0.003  -0.000   0.004  0.00  0.00    -0.059 C 
ATOM      2  C   UNL     1      -0.020   1.532   0.014  0.00  0.00    +0.091 C 
ATOM      3  N   UNL     1       1.369   2.015   0.000  0.00  0.00    -0.289 N 
ATOM      4  C   UNL     1       2.305   1.470   0.996  0.00  0.00    +0.091 C 
ATOM      5  C   UNL     1       2.230  -0.060   0.948  0.00  0.00    -0.059 C 
ATOM      6  C   UNL     1       1.774   2.932  -0.900  0.00  0.00    +0.307 C 
ATOM      7  O   UNL     1       1.014   3.302  -1.775  0.00  0.00    -0.252 OA
ATOM      8  N   UNL     1       3.021   3.440  -0.831  0.00  0.00    -0.263 N 
ATOM      9  H   UNL     1       3.650   3.093  -0.180  0.00  0.00    +0.157 HD
ATOM     10  N   UNL     1       0.823  -0.473   1.137  0.00  0.00    +0.382 N 
ATOM     11  H   UNL     1       0.467  -0.055   2.005  0.00  0.00    -0.082 HD
ENDROOT
BRANCH   8  12
ATOM     12  C   UNL     1       3.403   4.458  -1.691  0.00  0.00    +0.086 A 
ATOM     13  C   UNL     1       4.624   5.106  -1.768  0.00  0.00    +0.068 A 
ATOM     14  C   UNL     1       4.772   6.154  -2.777  0.00  0.00    -0.023 A 
ATOM     15  C   UNL     1       3.679   6.384  -3.527  0.00  0.00    -0.004 A 
ATOM     16  S   UNL     1       2.467   5.234  -2.923  0.00  0.00    -0.077 S 
ATOM     17  C   UNL     1       3.907   7.475  -4.538  0.00  0.00    +0.043 C 
ATOM     18  C   UNL     1       5.443   7.616  -4.618  0.00  0.00    +0.010 C 
ATOM     19  C   UNL     1       5.878   7.109  -3.229  0.00  0.00    +0.037 C 
BRANCH  13  20
ATOM     20  C   UNL     1       5.730   4.751  -0.874  0.00  0.00    +0.244 C 
ATOM     21  O   UNL     1       6.525   3.889  -1.201  0.00  0.00    -0.270 OA
ATOM     22  N   UNL     1       5.867   5.379   0.310  0.00  0.00    -0.325 N 
ATOM     23  H   UNL     1       5.234   6.066   0.571  0.00  0.00    +0.145 HD
ATOM     24  H   UNL     1       6.599   5.144   0.902  0.00  0.00    +0.145 HD
ENDBRANCH  13  20
ENDBRANCH   8  12
BRANCH  10  25
ATOM     25  C   UNL     1       0.738  -1.944   1.242  0.00  0.00    -0.074 C 
BRANCH  25  26
ATOM     26  C   UNL     1       1.414  -2.384   2.543  0.00  0.00    +0.016 C 
BRANCH  26  30
ATOM     27  C   UNL     1       1.139  -6.629   2.927  0.00  0.00    +0.000 A 
ATOM     28  C   UNL     1       2.223  -6.062   2.283  0.00  0.00    +0.000 A 
ATOM     29  C   UNL     1       2.312  -4.689   2.159  0.00  0.00    +0.003 A 
ATOM     30  C   UNL     1       1.317  -3.881   2.678  0.00  0.00    -0.049 A 
ATOM     31  C   UNL     1       0.236  -4.448   3.326  0.00  0.00    +0.003 A 
ATOM     32  C   UNL     1       0.144  -5.822   3.446  0.00  0.00    +0.000 A 
ENDBRANCH  26  30
ENDBRANCH  25  26
ENDBRANCH  10  25
TORSDOF 5
