REMARK  Name = ZINC27908731
REMARK  16 active torsions:
REMARK  status: ('A' for Active; 'I' for Inactive)
REMARK    1  A    between atoms: C_1  and  C_2
REMARK    2  A    between atoms: C_2  and  O_3
REMARK    3  A    between atoms: O_3  and  C_4
REMARK    4  A    between atoms: C_7  and  C_10
REMARK    5  A    between atoms: N_14  and  C_15
REMARK    6  A    between atoms: N_16  and  C_17
REMARK    7  A    between atoms: C_17  and  C_18
REMARK    8  A    between atoms: C_20  and  C_29
REMARK    9  A    between atoms: C_21  and  O_28
REMARK   10  A    between atoms: C_22  and  C_24
REMARK   11  A    between atoms: C_24  and  C_25
REMARK   12  A    between atoms: C_24  and  C_26
REMARK   13  A    between atoms: C_24  and  C_27
REMARK   14  A    between atoms: C_29  and  C_30
REMARK   15  A    between atoms: C_29  and  C_31
REMARK   16  A    between atoms: C_29  and  C_32
REMARK                            x       y       z     vdW  Elec       q    Type
REMARK                         _______ _______ _______ _____ _____    ______ ____
ROOT
ATOM      1  C   UNL     1       1.253  -5.984  -2.694  0.00  0.00    +0.067 A 
ATOM      2  C   UNL     1       1.161  -6.163  -1.351  0.00  0.00    +0.112 A 
ATOM      3  N   UNL     1       1.182  -4.958  -0.765  0.00  0.00    -0.334 N 
ATOM      4  C   UNL     1       1.283  -4.024  -1.683  0.00  0.00    +0.174 A 
ATOM      5  N   UNL     1       1.325  -4.618  -2.907  0.00  0.00    -0.317 N 
ATOM      6  C   UNL     1       1.430  -3.941  -4.202  0.00  0.00    +0.152 C 
ATOM      7  N   UNL     1       1.332  -2.662  -1.445  0.00  0.00    -0.312 N 
ATOM      8  H   UNL     1       1.417  -1.960  -2.288  0.00  0.00    +0.149 HD
ATOM      9  H   UNL     1       1.117  -4.877   0.330  0.00  0.00    +0.168 HD
ENDROOT
BRANCH   1  13
ATOM     10  C   UNL     1       1.295  -9.022  -5.664  0.00  0.00    +0.121 A 
ATOM     11  C   UNL     1       1.776  -7.755  -5.964  0.00  0.00    +0.046 A 
ATOM     12  C   UNL     1       1.765  -6.766  -5.003  0.00  0.00    +0.013 A 
ATOM     13  C   UNL     1       1.267  -7.041  -3.727  0.00  0.00    +0.000 A 
ATOM     14  C   UNL     1       0.789  -8.318  -3.429  0.00  0.00    +0.013 A 
ATOM     15  C   UNL     1       0.800  -9.300  -4.397  0.00  0.00    +0.046 A 
BRANCH  10  16
ATOM     16  O   UNL     1       1.308  -9.994  -6.614  0.00  0.00    -0.492 OA
BRANCH  16  18
ATOM     17  C   UNL     1       0.894 -12.231  -7.430  0.00  0.00    +0.048 C 
ATOM     18  C   UNL     1       0.798 -11.275  -6.239  0.00  0.00    +0.225 C 
ENDBRANCH  16  18
ENDBRANCH  10  16
ENDBRANCH   1  13
BRANCH   7  19
ATOM     19  C   UNL     1       1.270  -2.156  -0.072  0.00  0.00    +0.139 C 
BRANCH  19  20
ATOM     20  C   UNL     1       1.342  -0.650  -0.089  0.00  0.00    -0.030 A 
ATOM     21  C   UNL     1       0.180   0.095  -0.170  0.00  0.00    +0.013 A 
ATOM     22  C   UNL     1       0.243   1.475  -0.185  0.00  0.00    +0.000 A 
ATOM     23  C   UNL     1       1.473   2.113  -0.118  0.00  0.00    +0.124 A 
ATOM     24  C   UNL     1       2.637   1.363  -0.036  0.00  0.00    +0.000 A 
ATOM     25  C   UNL     1       2.569  -0.017  -0.022  0.00  0.00    +0.013 A 
BRANCH  24  26
ATOM     26  C   UNL     1       3.975   2.053   0.037  0.00  0.00    -0.009 C 
ATOM     27  C   UNL     1       5.086   1.004   0.119  0.00  0.00    +0.015 C 
ATOM     28  C   UNL     1       4.175   2.911  -1.214  0.00  0.00    +0.015 C 
ATOM     29  C   UNL     1       4.022   2.944   1.280  0.00  0.00    +0.015 C 
ENDBRANCH  24  26
BRANCH  22  30
ATOM     30  C   UNL     1      -1.024   2.286  -0.280  0.00  0.00    -0.009 C 
ATOM     31  C   UNL     1      -2.228   1.345  -0.347  0.00  0.00    +0.015 C 
ATOM     32  C   UNL     1      -1.147   3.186   0.952  0.00  0.00    +0.015 C 
ATOM     33  C   UNL     1      -0.982   3.151  -1.541  0.00  0.00    +0.015 C 
ENDBRANCH  22  30
BRANCH  23  34
ATOM     34  O   UNL     1       1.537   3.470  -0.132  0.00  0.00    -0.506 OA
ATOM     35  H   UNL     1       2.513   3.975  -0.079  0.00  0.00    +0.292 HD
ENDBRANCH  23  34
ENDBRANCH  19  20
ENDBRANCH   7  19
TORSDOF 8
