REMARK  Name = ZINC33910789
REMARK  7 active torsions:
REMARK  status: ('A' for Active; 'I' for Inactive)
REMARK    1  A    between atoms: C_1  and  C_2
REMARK    2  A    between atoms: C_2  and  C_3
REMARK    3  A    between atoms: C_3  and  C_4
REMARK    4  A    between atoms: C_4  and  C_6
REMARK    5  A    between atoms: C_4  and  N_24
REMARK    6  A    between atoms: C_8  and  C_11
REMARK    7  A    between atoms: N_13  and  C_14
REMARK                            x       y       z     vdW  Elec       q    Type
REMARK                         _______ _______ _______ _____ _____    ______ ____
ROOT
ATOM      1  C   UNL     1       4.718  -3.991   3.558  0.00  0.00    +0.263 C 
ATOM      2  O   UNL     1       5.194  -4.329   4.626  0.00  0.00    -0.268 OA
ATOM      3  N   UNL     1       5.432  -4.141   2.425  0.00  0.00    -0.305 N 
ATOM      4  H   UNL     1       5.053  -3.873   1.574  0.00  0.00    +0.150 HD
ENDROOT
BRANCH   3   5
ATOM      5  C   UNL     1       6.781  -4.710   2.479  0.00  0.00    +0.036 C 
ATOM      6  C   UNL     1       6.716  -6.122   3.064  0.00  0.00    +0.029 C 
ATOM      7  C   UNL     1       8.125  -6.717   3.120  0.00  0.00    -0.008 C 
ATOM      8  C   UNL     1       8.710  -6.777   1.708  0.00  0.00    +0.007 C 
ATOM      9  C   UNL     1       8.775  -5.364   1.122  0.00  0.00    -0.008 C 
ATOM     10  C   UNL     1       7.366  -4.770   1.066  0.00  0.00    +0.029 C 
ATOM     11  C   UNL     1       9.664  -4.487   2.006  0.00  0.00    +0.007 C 
ATOM     12  C   UNL     1       9.079  -4.427   3.418  0.00  0.00    -0.008 C 
ATOM     13  C   UNL     1       9.014  -5.839   4.004  0.00  0.00    +0.007 C 
ATOM     14  C   UNL     1       7.670  -3.833   3.362  0.00  0.00    +0.029 C 
ENDBRANCH   3   5
BRANCH   1  17
ATOM     15  C   UNL     1       1.596  -2.538   2.386  0.00  0.00    +0.065 A 
ATOM     16  N   UNL     1       2.802  -3.036   2.353  0.00  0.00    -0.241 NA
ATOM     17  C   UNL     1       3.362  -3.419   3.504  0.00  0.00    +0.133 A 
ATOM     18  C   UNL     1       2.602  -3.249   4.630  0.00  0.00    +0.079 A 
ATOM     19  S   UNL     1       1.192  -2.575   4.015  0.00  0.00    -0.081 S 
BRANCH  15  20
ATOM     20  C   UNL     1       0.763  -2.041   1.233  0.00  0.00    -0.018 C 
BRANCH  20  21
ATOM     21  N   UNL     1      -0.609  -2.550   1.364  0.00  0.00    +0.384 N 
ATOM     22  H   UNL     1      -1.167  -2.217   0.592  0.00  0.00    -0.089 HD
ATOM     23  H   UNL     1      -0.595  -3.559   1.359  0.00  0.00    -0.089 HD
ATOM     24  H   UNL     1      -1.007  -2.224   2.232  0.00  0.00    -0.089 HD
ENDBRANCH  20  21
BRANCH  20  25
ATOM     25  C   UNL     1       0.742  -0.511   1.242  0.00  0.00    -0.010 C 
BRANCH  25  27
ATOM     26  C   UNL     1      -0.019   1.526   0.010  0.00  0.00    +0.004 C 
ATOM     27  C   UNL     1       0.002  -0.004   0.002  0.00  0.00    -0.005 C 
ENDBRANCH  25  27
ENDBRANCH  20  25
ENDBRANCH  15  20
ENDBRANCH   1  17
TORSDOF 6
