REMARK  Name = ZINC49570770
REMARK  7 active torsions:
REMARK  status: ('A' for Active; 'I' for Inactive)
REMARK    1  A    between atoms: C_1  and  C_2
REMARK    2  A    between atoms: C_2  and  C_4
REMARK    3  A    between atoms: C_2  and  N_11
REMARK    4  A    between atoms: N_11  and  S_12
REMARK    5  A    between atoms: S_12  and  C_15
REMARK    6  A    between atoms: C_18  and  N_21
REMARK    7  A    between atoms: N_21  and  N_22
REMARK                            x       y       z     vdW  Elec       q    Type
REMARK                         _______ _______ _______ _____ _____    ______ ____
ROOT
ATOM      1  S   UNL     1      -2.119  -0.907  -1.411  0.00  0.00    +0.059 S 
ATOM      2  O   UNL     1      -3.414  -1.386  -1.071  0.00  0.00    -0.153 OA
ATOM      3  O   UNL     1      -1.920   0.189  -2.293  0.00  0.00    -0.153 OA
ENDROOT
BRANCH   1   4
ATOM      4  C   UNL     1      -1.242  -2.272  -2.098  0.00  0.00    +0.105 A 
ATOM      5  C   UNL     1      -0.176  -2.049  -2.950  0.00  0.00    +0.030 A 
ATOM      6  C   UNL     1       0.514  -3.117  -3.490  0.00  0.00    +0.026 A 
ATOM      7  C   UNL     1       0.136  -4.416  -3.176  0.00  0.00    +0.041 A 
ATOM      8  C   UNL     1      -0.935  -4.637  -2.320  0.00  0.00    +0.026 A 
ATOM      9  C   UNL     1      -1.617  -3.564  -1.779  0.00  0.00    +0.030 A 
BRANCH   7  10
ATOM     10  N   UNL     1       0.831  -5.498  -3.721  0.00  0.00    -0.283 N 
ATOM     11  H   UNL     1       1.579  -5.343  -4.319  0.00  0.00    +0.166 HD
BRANCH  10  12
ATOM     12  N   UNL     1       0.458  -6.775  -3.411  0.00  0.00    -0.257 NA
ATOM     13  H   UNL     1       1.050  -7.447  -3.876  0.00  0.00    +0.140 HD
ATOM     14  H   UNL     1       0.462  -6.921  -2.412  0.00  0.00    +0.140 HD
ENDBRANCH  10  12
ENDBRANCH   7  10
ENDBRANCH   1   4
BRANCH   1  15
ATOM     15  N   UNL     1      -1.372  -0.511   0.012  0.00  0.00    -0.183 NA
ATOM     16  H   UNL     1      -1.845  -0.615   0.853  0.00  0.00    +0.149 HD
BRANCH  15  18
ATOM     17  C   UNL     1      -0.019   1.526   0.010  0.00  0.00    +0.031 C 
ATOM     18  C   UNL     1       0.002  -0.004   0.002  0.00  0.00    +0.103 C 
BRANCH  18  19
ATOM     19  C   UNL     1       0.731  -0.503   1.223  0.00  0.00    -0.028 A 
ATOM     20  C   UNL     1       0.081  -0.558   2.442  0.00  0.00    +0.005 A 
ATOM     21  C   UNL     1       0.749  -1.016   3.562  0.00  0.00    +0.001 A 
ATOM     22  C   UNL     1       2.067  -1.419   3.464  0.00  0.00    +0.015 A 
ATOM     23  C   UNL     1       2.718  -1.365   2.245  0.00  0.00    +0.018 A 
ATOM     24  C   UNL     1       2.048  -0.911   1.123  0.00  0.00    +0.020 A 
ATOM     25 BR   UNL     1       4.522  -1.915   2.110  0.00  0.00    -0.050 Br
ENDBRANCH  18  19
ENDBRANCH  15  18
ENDBRANCH   1  15
TORSDOF 6
