REMARK  Name = ZINC44516247
REMARK  7 active torsions:
REMARK  status: ('A' for Active; 'I' for Inactive)
REMARK    1  A    between atoms: C_1  and  C_2
REMARK    2  A    between atoms: C_2  and  N_3
REMARK    3  A    between atoms: C_6  and  C_9
REMARK    4  A    between atoms: C_9  and  N_10
REMARK    5  A    between atoms: N_10  and  S_11
REMARK    6  A    between atoms: S_11  and  C_14
REMARK    7  A    between atoms: C_19  and  N_20
REMARK                            x       y       z     vdW  Elec       q    Type
REMARK                         _______ _______ _______ _____ _____    ______ ____
ROOT
ATOM      1  S   UNL     1       3.527  -4.674  -5.526  0.00  0.00    +0.060 S 
ATOM      2  O   UNL     1       3.413  -6.086  -5.418  0.00  0.00    -0.153 OA
ATOM      3  O   UNL     1       2.660  -3.900  -6.344  0.00  0.00    -0.153 OA
ENDROOT
BRANCH   1   4
ATOM      4  C   UNL     1       5.168  -4.342  -6.075  0.00  0.00    +0.126 A 
ATOM      5  C   UNL     1       5.380  -3.497  -7.147  0.00  0.00    +0.031 A 
ATOM      6  C   UNL     1       6.667  -3.235  -7.579  0.00  0.00    +0.017 A 
ATOM      7  C   UNL     1       7.747  -3.819  -6.940  0.00  0.00    +0.020 A 
ATOM      8  C   UNL     1       7.541  -4.666  -5.867  0.00  0.00    +0.040 A 
ATOM      9  C   UNL     1       6.250  -4.925  -5.428  0.00  0.00    +0.052 A 
ATOM     10 BR   UNL     1       9.505  -3.458  -7.535  0.00  0.00    -0.050 Br
BRANCH   9  11
ATOM     11  N   UNL     1       6.038  -5.776  -4.340  0.00  0.00    -0.356 N 
ATOM     12  H   UNL     1       5.145  -5.890  -3.980  0.00  0.00    +0.142 HD
ATOM     13  H   UNL     1       6.785  -6.254  -3.946  0.00  0.00    +0.142 HD
ENDBRANCH   9  11
ENDBRANCH   1   4
BRANCH   1  14
ATOM     14  N   UNL     1       3.393  -4.069  -3.990  0.00  0.00    -0.190 NA
ATOM     15  H   UNL     1       3.243  -4.670  -3.244  0.00  0.00    +0.148 HD
BRANCH  14  16
ATOM     16  C   UNL     1       3.502  -2.627  -3.759  0.00  0.00    +0.109 C 
BRANCH  16  20
ATOM     17  N   UNL     1       1.150  -0.745  -0.725  0.00  0.00    +0.380 N 
ATOM     18  C   UNL     1       2.590  -0.462  -0.710  0.00  0.00    -0.079 C 
ATOM     19  C   UNL     1       3.196  -0.806  -2.072  0.00  0.00    -0.014 C 
ATOM     20  C   UNL     1       2.969  -2.292  -2.364  0.00  0.00    +0.001 C 
ATOM     21  C   UNL     1       1.468  -2.592  -2.304  0.00  0.00    -0.014 C 
ATOM     22  C   UNL     1       0.927  -2.181  -0.933  0.00  0.00    -0.079 C 
ATOM     23  H   UNL     1       0.715  -0.226  -1.473  0.00  0.00    -0.082 HD
BRANCH  17  25
ATOM     24  C   UNL     1       0.681   1.177   0.719  0.00  0.00    -0.017 C 
ATOM     25  C   UNL     1       0.559  -0.340   0.558  0.00  0.00    -0.082 C 
ENDBRANCH  17  25
ENDBRANCH  16  20
ENDBRANCH  14  16
ENDBRANCH   1  14
TORSDOF 6
