REMARK  Name = ZINC59950676
REMARK  2 active torsions:
REMARK  status: ('A' for Active; 'I' for Inactive)
REMARK    1  A    between atoms: C_4  and  C_7
REMARK    2  A    between atoms: C_4  and  C_9
REMARK                            x       y       z     vdW  Elec       q    Type
REMARK                         _______ _______ _______ _____ _____    ______ ____
ROOT
ATOM      1  C   UNL     1       2.859  -0.454  -2.507  0.00  0.00    +0.236 C 
ATOM      2  O   UNL     1       3.228   0.341  -3.346  0.00  0.00    -0.274 OA
ATOM      3  N   UNL     1       3.087  -1.771  -2.680  0.00  0.00    -0.298 N 
ATOM      4  C   UNL     1       2.533  -2.722  -1.699  0.00  0.00    +0.110 C 
ATOM      5  C   UNL     1       1.958  -3.963  -2.398  0.00  0.00    +0.047 C 
ATOM      6  C   UNL     1       1.233  -3.543  -3.661  0.00  0.00    +0.161 C 
ATOM      7  O   UNL     1       2.149  -3.584  -4.748  0.00  0.00    -0.378 OA
ATOM      8  C   UNL     1       2.926  -2.477  -5.022  0.00  0.00    +0.178 C 
ATOM      9  C   UNL     1       3.864  -2.200  -3.829  0.00  0.00    +0.136 C 
ENDROOT
BRANCH   1  13
ATOM     10  C   UNL     1       0.099   1.695   0.003  0.00  0.00    +0.000 C 
ATOM     11  C   UNL     1       1.587   2.040   0.105  0.00  0.00    +0.002 C 
ATOM     12  C   UNL     1       2.311   1.548  -1.150  0.00  0.00    +0.031 C 
ATOM     13  C   UNL     1       2.146   0.031  -1.272  0.00  0.00    +0.133 C 
ATOM     14  C   UNL     1       0.658  -0.313  -1.373  0.00  0.00    +0.031 C 
ATOM     15  C   UNL     1      -0.066   0.179  -0.118  0.00  0.00    +0.002 C 
BRANCH  13  16
ATOM     16  C   UNL     1       2.721  -0.622  -0.085  0.00  0.00    +0.079 C 
ATOM     17  N   UNL     1       3.165  -1.126   0.831  0.00  0.00    -0.195 NA
ENDBRANCH  13  16
ENDBRANCH   1  13
TORSDOF 2
