REMARK  Name = ZINC39308713
REMARK  7 active torsions:
REMARK  status: ('A' for Active; 'I' for Inactive)
REMARK    1  A    between atoms: C_1  and  C_2
REMARK    2  A    between atoms: C_6  and  O_26
REMARK    3  A    between atoms: C_7  and  O_25
REMARK    4  A    between atoms: N_12  and  C_13
REMARK    5  A    between atoms: C_13  and  C_14
REMARK    6  A    between atoms: N_16  and  C_17
REMARK    7  A    between atoms: C_21  and  C_23
REMARK                            x       y       z     vdW  Elec       q    Type
REMARK                         _______ _______ _______ _____ _____    ______ ____
ROOT
ATOM      1  C   UNL     1      -0.153   1.161   0.010  0.00  0.00    -0.008 C 
ATOM      2  C   UNL     1       0.064  -0.350  -0.103  0.00  0.00    -0.040 C 
ATOM      3  C   UNL     1      -1.273  -1.038  -0.185  0.00  0.00    -0.054 A 
ATOM      4  C   UNL     1      -2.267  -0.462  -0.964  0.00  0.00    +0.051 A 
ATOM      5  C   UNL     1      -3.509  -1.062  -1.069  0.00  0.00    +0.158 A 
ATOM      6  C   UNL     1      -3.761  -2.251  -0.390  0.00  0.00    +0.158 A 
ATOM      7  C   UNL     1      -2.768  -2.821   0.386  0.00  0.00    +0.053 A 
ATOM      8  C   UNL     1      -1.525  -2.215   0.489  0.00  0.00    -0.044 A 
ATOM      9  C   UNL     1      -0.474  -2.866   1.351  0.00  0.00    +0.017 C 
ATOM     10  C   UNL     1       0.901  -2.287   1.019  0.00  0.00    -0.073 C 
ATOM     11  N   UNL     1       0.815  -0.819   1.064  0.00  0.00    +0.390 N 
ATOM     12  H   UNL     1       0.340  -0.535   1.908  0.00  0.00    -0.080 HD
ENDROOT
BRANCH   6  13
ATOM     13  O   UNL     1      -4.979  -2.849  -0.489  0.00  0.00    -0.503 OA
ATOM     14  H   UNL     1      -5.048  -3.482  -1.217  0.00  0.00    +0.292 HD
ENDBRANCH   6  13
BRANCH   5  15
ATOM     15  O   UNL     1      -4.479  -0.494  -1.834  0.00  0.00    -0.503 OA
ATOM     16  H   UNL     1      -4.478  -0.789  -2.755  0.00  0.00    +0.292 HD
ENDBRANCH   5  15
BRANCH  11  17
ATOM     17  C   UNL     1       2.168  -0.247   1.042  0.00  0.00    +0.020 C 
BRANCH  17  18
ATOM     18  C   UNL     1       2.897  -0.631   2.304  0.00  0.00    +0.201 C 
ATOM     19  O   UNL     1       2.344  -1.315   3.139  0.00  0.00    -0.278 OA
ATOM     20  N   UNL     1       4.163  -0.215   2.503  0.00  0.00    -0.287 N 
ATOM     21  H   UNL     1       4.632   0.266   1.803  0.00  0.00    +0.155 HD
BRANCH  20  22
ATOM     22  C   UNL     1       4.802  -0.478   3.720  0.00  0.00    +0.035 A 
ATOM     23  C   UNL     1       6.172  -0.709   3.751  0.00  0.00    +0.023 A 
ATOM     24  C   UNL     1       6.808  -0.968   4.950  0.00  0.00    +0.003 A 
ATOM     25  C   UNL     1       6.087  -1.000   6.126  0.00  0.00    +0.019 A 
ATOM     26  C   UNL     1       4.710  -0.769   6.107  0.00  0.00    +0.054 A 
ATOM     27  C   UNL     1       4.069  -0.502   4.896  0.00  0.00    +0.042 A 
BRANCH  26  28
ATOM     28  C   UNL     1       3.959  -0.801   7.326  0.00  0.00    +0.099 C 
ATOM     29  N   UNL     1       3.363  -0.826   8.293  0.00  0.00    -0.191 NA
ENDBRANCH  26  28
ENDBRANCH  20  22
ENDBRANCH  17  18
ENDBRANCH  11  17
TORSDOF 6
