REMARK  Name = ZINC43261986
REMARK  13 active torsions:
REMARK  status: ('A' for Active; 'I' for Inactive)
REMARK    1  A    between atoms: C_1  and  C_2
REMARK    2  A    between atoms: C_2  and  C_3
REMARK    3  A    between atoms: C_3  and  C_4
REMARK    4  A    between atoms: C_4  and  N_5
REMARK    5  A    between atoms: N_5  and  C_6
REMARK    6  A    between atoms: N_5  and  C_9
REMARK    7  A    between atoms: C_6  and  C_7
REMARK    8  A    between atoms: C_7  and  O_8
REMARK    9  A    between atoms: C_9  and  C_11
REMARK   10  A    between atoms: C_9  and  C_17
REMARK   11  A    between atoms: C_17  and  C_19
REMARK   12  A    between atoms: C_17  and  N_21
REMARK   13  A    between atoms: C_19  and  C_20
REMARK                            x       y       z     vdW  Elec       q    Type
REMARK                         _______ _______ _______ _____ _____    ______ ____
ROOT
ATOM      1  C   UNL     1      -2.439  -4.091  -0.020  0.00  0.00    -0.014 C 
ENDROOT
BRANCH   1   2
ATOM      2  C   UNL     1      -1.573  -4.451  -1.201  0.00  0.00    -0.021 A 
ATOM      3  C   UNL     1      -0.565  -5.353  -1.276  0.00  0.00    +0.011 A 
ATOM      4  C   UNL     1       0.099  -5.519  -2.477  0.00  0.00    +0.023 A 
ATOM      5  C   UNL     1      -0.280  -4.773  -3.545  0.00  0.00    +0.055 A 
ATOM      6  S   UNL     1      -1.617  -3.805  -2.864  0.00  0.00    -0.088 S 
ATOM      7 BR   UNL     1       0.421  -4.767  -5.301  0.00  0.00    -0.043 Br
ENDBRANCH   1   2
BRANCH   1   8
ATOM      8  N   UNL     1      -2.667  -2.640  -0.005  0.00  0.00    +0.387 N 
ATOM      9  H   UNL     1      -3.129  -2.363  -0.858  0.00  0.00    -0.081 HD
BRANCH   8  10
ATOM     10  C   UNL     1      -1.378  -1.943   0.102  0.00  0.00    -0.078 C 
BRANCH  10  11
ATOM     11  C   UNL     1      -0.696  -2.332   1.415  0.00  0.00    -0.019 C 
BRANCH  11  13
ATOM     12  C   UNL     1       1.348  -2.028   2.821  0.00  0.00    +0.004 C 
ATOM     13  C   UNL     1       0.665  -1.639   1.508  0.00  0.00    -0.005 C 
ENDBRANCH  11  13
ENDBRANCH  10  11
ENDBRANCH   8  10
BRANCH   8  14
ATOM     14  C   UNL     1      -3.510  -2.290   1.146  0.00  0.00    -0.050 C 
BRANCH  14  15
ATOM     15  C   UNL     1      -3.850  -0.799   1.093  0.00  0.00    +0.137 C 
BRANCH  15  16
ATOM     16  O   UNL     1      -4.638  -0.530  -0.068  0.00  0.00    -0.397 OA
ATOM     17  H   UNL     1      -4.890   0.398  -0.166  0.00  0.00    +0.209 HD
ENDBRANCH  15  16
ENDBRANCH  14  15
ENDBRANCH   8  14
ENDBRANCH   1   8
BRANCH   1  18
ATOM     18  C   UNL     1      -3.781  -4.817  -0.132  0.00  0.00    +0.042 C 
BRANCH  18  19
ATOM     19  N   UNL     1      -3.547  -6.261  -0.268  0.00  0.00    -0.328 NA
ATOM     20  H   UNL     1      -4.418  -6.769  -0.279  0.00  0.00    +0.118 HD
ATOM     21  H   UNL     1      -3.001  -6.463  -1.092  0.00  0.00    +0.118 HD
ENDBRANCH  18  19
BRANCH  18  22
ATOM     22  C   UNL     1      -4.537  -4.305  -1.360  0.00  0.00    +0.014 C 
ATOM     23  C   UNL     1      -5.929  -4.939  -1.402  0.00  0.00    +0.005 C 
ENDBRANCH  18  22
ENDBRANCH   1  18
TORSDOF 11
