REMARK  Name = ZINC03387439
REMARK  12 active torsions:
REMARK  status: ('A' for Active; 'I' for Inactive)
REMARK    1  A    between atoms: C_1  and  C_2
REMARK    2  A    between atoms: C_2  and  C_3
REMARK    3  A    between atoms: C_4  and  C_35
REMARK    4  A    between atoms: N_10  and  C_26
REMARK    5  A    between atoms: C_11  and  S_13
REMARK    6  A    between atoms: S_13  and  C_14
REMARK    7  A    between atoms: C_14  and  C_15
REMARK    8  A    between atoms: N_17  and  C_18
REMARK    9  A    between atoms: C_23  and  C_24
REMARK   10  A    between atoms: C_29  and  O_33
REMARK   11  A    between atoms: C_31  and  C_32
REMARK   12  A    between atoms: O_33  and  C_34
REMARK                            x       y       z     vdW  Elec       q    Type
REMARK                         _______ _______ _______ _____ _____    ______ ____
ROOT
ATOM      1  C   UNL     1       2.721  -0.865   5.525  0.00  0.00    -0.023 A 
ATOM      2  C   UNL     1       3.723  -1.560   4.967  0.00  0.00    -0.007 A 
ATOM      3  S   UNL     1       3.445  -1.356   3.218  0.00  0.00    -0.073 S 
ATOM      4  C   UNL     1       1.990  -0.343   3.287  0.00  0.00    +0.117 A 
ATOM      5  C   UNL     1       1.761  -0.191   4.668  0.00  0.00    +0.076 A 
ATOM      6  C   UNL     1       0.624   0.598   5.027  0.00  0.00    +0.268 A 
ATOM      7  O   UNL     1       0.348   0.784   6.200  0.00  0.00    -0.267 OA
ATOM      8  N   UNL     1      -0.134   1.137   4.055  0.00  0.00    -0.255 N 
ATOM      9  C   UNL     1       0.158   0.935   2.735  0.00  0.00    +0.178 A 
ATOM     10  N   UNL     1       1.199   0.212   2.376  0.00  0.00    -0.215 NA
ATOM     11  C   UNL     1       4.822  -2.329   5.654  0.00  0.00    +0.052 C 
ENDROOT
BRANCH   8  12
ATOM     12  C   UNL     1      -1.246   1.917   4.402  0.00  0.00    +0.055 A 
ATOM     13  C   UNL     1      -2.488   1.319   4.573  0.00  0.00    +0.030 A 
ATOM     14  C   UNL     1      -3.583   2.088   4.914  0.00  0.00    +0.047 A 
ATOM     15  C   UNL     1      -3.443   3.457   5.087  0.00  0.00    +0.120 A 
ATOM     16  C   UNL     1      -2.203   4.055   4.917  0.00  0.00    +0.051 A 
ATOM     17  C   UNL     1      -1.106   3.287   4.581  0.00  0.00    -0.023 A 
ATOM     18  C   UNL     1       0.242   3.936   4.402  0.00  0.00    +0.046 C 
BRANCH  15  19
ATOM     19  O   UNL     1      -4.521   4.213   5.424  0.00  0.00    -0.495 OA
ATOM     20  C   UNL     1      -5.767   3.532   5.583  0.00  0.00    +0.277 C 
ENDBRANCH  15  19
ENDBRANCH   8  12
BRANCH   1  22
ATOM     21  C   UNL     1       3.374   0.427   7.539  0.00  0.00    +0.009 C 
ATOM     22  C   UNL     1       2.592  -0.784   7.024  0.00  0.00    +0.033 C 
ENDBRANCH   1  22
BRANCH   9  23
ATOM     23  S   UNL     1      -0.869   1.655   1.497  0.00  0.00    -0.078 S 
BRANCH  23  24
ATOM     24  C   UNL     1      -0.021   1.073   0.008  0.00  0.00    +0.173 C 
BRANCH  24  25
ATOM     25  C   UNL     1      -0.743   1.582  -1.213  0.00  0.00    +0.227 C 
ATOM     26  O   UNL     1      -1.734   2.271  -1.088  0.00  0.00    -0.275 OA
ATOM     27  N   UNL     1      -0.288   1.272  -2.443  0.00  0.00    -0.284 N 
ATOM     28  H   UNL     1       0.547   0.790  -2.544  0.00  0.00    +0.155 HD
BRANCH  27  29
ATOM     29  C   UNL     1      -1.022   1.646  -3.575  0.00  0.00    +0.039 A 
ATOM     30  C   UNL     1      -2.391   1.852  -3.479  0.00  0.00    +0.062 A 
ATOM     31  C   UNL     1      -3.113   2.222  -4.600  0.00  0.00    +0.125 A 
ATOM     32  C   UNL     1      -2.469   2.386  -5.815  0.00  0.00    +0.039 A 
ATOM     33  C   UNL     1      -1.106   2.181  -5.912  0.00  0.00    +0.008 A 
ATOM     34  C   UNL     1      -0.379   1.818  -4.794  0.00  0.00    -0.029 A 
ATOM     35  C   UNL     1       1.108   1.601  -4.899  0.00  0.00    +0.045 C 
ATOM     36  F   UNL     1      -4.446   2.423  -4.509  0.00  0.00    -0.205 F 
ENDBRANCH  27  29
ENDBRANCH  24  25
ENDBRANCH  23  24
ENDBRANCH   9  23
TORSDOF 7
