REMARK  Name = ZINC59990117
REMARK  12 active torsions:
REMARK  status: ('A' for Active; 'I' for Inactive)
REMARK    1  A    between atoms: C_1  and  C_2
REMARK    2  A    between atoms: C_5  and  C_29
REMARK    3  A    between atoms: N_8  and  C_10
REMARK    4  A    between atoms: C_10  and  C_11
REMARK    5  A    between atoms: C_10  and  C_12
REMARK    6  A    between atoms: C_10  and  C_13
REMARK    7  A    between atoms: C_13  and  N_14
REMARK    8  A    between atoms: C_15  and  C_17
REMARK    9  A    between atoms: C_19  and  S_25
REMARK   10  A    between atoms: C_22  and  O_23
REMARK   11  A    between atoms: O_23  and  C_24
REMARK   12  A    between atoms: S_25  and  N_28
REMARK                            x       y       z     vdW  Elec       q    Type
REMARK                         _______ _______ _______ _____ _____    ______ ____
ROOT
ATOM      1  N   UNL     1       3.474  -2.390   0.904  0.00  0.00    -0.313 N 
ATOM      2  C   UNL     1       4.768  -2.196   0.578  0.00  0.00    +0.248 C 
ATOM      3  O   UNL     1       5.535  -1.721   1.393  0.00  0.00    -0.270 OA
ATOM      4  H   UNL     1       2.862  -2.769   0.254  0.00  0.00    +0.149 HD
ENDROOT
BRANCH   2   5
ATOM      5  C   UNL     1       5.252  -2.560  -0.767  0.00  0.00    +0.080 A 
ATOM      6  C   UNL     1       4.373  -3.101  -1.708  0.00  0.00    +0.045 A 
ATOM      7  C   UNL     1       4.832  -3.438  -2.963  0.00  0.00    +0.106 A 
ATOM      8  C   UNL     1       6.162  -3.244  -3.296  0.00  0.00    +0.032 A 
ATOM      9  C   UNL     1       7.042  -2.711  -2.376  0.00  0.00    +0.048 A 
ATOM     10  C   UNL     1       6.596  -2.360  -1.110  0.00  0.00    +0.132 A 
BRANCH   7  11
ATOM     11  S   UNL     1       3.721  -4.121  -4.148  0.00  0.00    +0.056 S 
ATOM     12  O   UNL     1       4.513  -4.860  -5.068  0.00  0.00    -0.153 OA
ATOM     13  O   UNL     1       2.656  -4.710  -3.415  0.00  0.00    -0.153 OA
BRANCH  11  14
ATOM     14  N   UNL     1       3.070  -2.855  -4.995  0.00  0.00    -0.204 NA
ATOM     15  H   UNL     1       2.801  -2.977  -5.919  0.00  0.00    +0.144 HD
ATOM     16  H   UNL     1       2.957  -1.992  -4.566  0.00  0.00    +0.144 HD
ENDBRANCH  11  14
ENDBRANCH   7  11
BRANCH  10  17
ATOM     17  O   UNL     1       7.459  -1.831  -0.206  0.00  0.00    -0.494 OA
ATOM     18  C   UNL     1       8.813  -1.656  -0.627  0.00  0.00    +0.277 C 
ENDBRANCH  10  17
ENDBRANCH   2   5
BRANCH   1  19
ATOM     19  C   UNL     1       2.993  -2.028   2.239  0.00  0.00    +0.092 C 
BRANCH  19  20
ATOM     20  C   UNL     1       1.478  -2.227   2.306  0.00  0.00    -0.055 C 
ATOM     21  C   UNL     1       0.963  -1.768   3.672  0.00  0.00    -0.008 C 
ATOM     22  C   UNL     1       1.148  -3.708   2.108  0.00  0.00    -0.008 C 
BRANCH  20  28
ATOM     23  C   UNL     1       0.932   2.275   0.460  0.00  0.00    +0.005 C 
ATOM     24  C   UNL     1       0.574   0.798   0.277  0.00  0.00    -0.031 C 
ATOM     25  C   UNL     1      -0.949   0.636   0.287  0.00  0.00    +0.003 C 
ATOM     26  C   UNL     1      -1.294  -0.852   0.182  0.00  0.00    -0.031 C 
ATOM     27  C   UNL     1      -0.623  -1.609   1.330  0.00  0.00    -0.075 C 
ATOM     28  N   UNL     1       0.833  -1.436   1.250  0.00  0.00    +0.384 N 
ATOM     29  C   UNL     1       1.177  -0.019   1.421  0.00  0.00    -0.075 C 
ATOM     30  C   UNL     1      -2.811  -1.032   0.269  0.00  0.00    +0.005 C 
ATOM     31  H   UNL     1       1.159  -1.753   0.349  0.00  0.00    -0.081 HD
ENDBRANCH  20  28
ENDBRANCH  19  20
ENDBRANCH   1  19
TORSDOF 7
