REMARK  Name = ZINC05945271
REMARK  15 active torsions:
REMARK  status: ('A' for Active; 'I' for Inactive)
REMARK    1  A    between atoms: C_1  and  C_2
REMARK    2  A    between atoms: C_2  and  C_33
REMARK    3  A    between atoms: C_4  and  N_10
REMARK    4  A    between atoms: C_6  and  C_8
REMARK    5  A    between atoms: C_6  and  C_9
REMARK    6  A    between atoms: N_10  and  C_11
REMARK    7  A    between atoms: N_10  and  C_21
REMARK    8  A    between atoms: C_11  and  C_12
REMARK    9  A    between atoms: C_15  and  N_18
REMARK   10  A    between atoms: N_18  and  C_19
REMARK   11  A    between atoms: N_18  and  C_20
REMARK   12  A    between atoms: C_21  and  N_23
REMARK   13  A    between atoms: N_23  and  C_24
REMARK   14  A    between atoms: C_27  and  O_31
REMARK   15  A    between atoms: O_31  and  C_32
REMARK                            x       y       z     vdW  Elec       q    Type
REMARK                         _______ _______ _______ _____ _____    ______ ____
ROOT
ATOM      1  N   UNL     1      -2.852  -2.434   0.206  0.00  0.00    -0.305 N 
ENDROOT
BRANCH   1   5
ATOM      2  C   UNL     1       1.831  -3.908   0.263  0.00  0.00    -0.010 C 
ATOM      3  C   UNL     1       0.936  -2.647   0.246  0.00  0.00    -0.072 C 
ATOM      4  C   UNL     1      -0.510  -3.112   0.375  0.00  0.00    +0.009 C 
ATOM      5  C   UNL     1      -1.469  -1.952   0.107  0.00  0.00    +0.073 C 
ATOM      6  C   UNL     1      -1.214  -1.440  -1.310  0.00  0.00    +0.009 C 
ATOM      7  C   UNL     1       0.227  -0.961  -1.451  0.00  0.00    -0.072 C 
ATOM      8  N   UNL     1       1.204  -1.932  -0.990  0.00  0.00    +0.386 N 
ATOM      9  C   UNL     1       0.399   0.384  -0.736  0.00  0.00    -0.010 C 
ATOM     10  C   UNL     1       0.486  -0.712  -2.955  0.00  0.00    -0.010 C 
ATOM     11  C   UNL     1       1.321  -1.807   1.469  0.00  0.00    -0.010 C 
ATOM     12  H   UNL     1       2.108  -1.460  -0.898  0.00  0.00    -0.084 HD
ATOM     13  H   UNL     1       1.345  -2.623  -1.734  0.00  0.00    -0.084 HD
ENDBRANCH   1   5
BRANCH   1  14
ATOM     14  C   UNL     1      -3.650  -1.994   1.199  0.00  0.00    +0.138 C 
ATOM     15  S   UNL     1      -5.231  -2.628   1.372  0.00  0.00    -0.018 S 
BRANCH  14  16
ATOM     16  N   UNL     1      -3.203  -1.055   2.056  0.00  0.00    -0.297 N 
ATOM     17  H   UNL     1      -2.889  -1.312   2.937  0.00  0.00    +0.154 HD
BRANCH  16  18
ATOM     18  C   UNL     1      -3.193   0.293   1.675  0.00  0.00    +0.034 A 
ATOM     19  C   UNL     1      -3.749   0.676   0.462  0.00  0.00    +0.027 A 
ATOM     20  C   UNL     1      -3.738   2.005   0.086  0.00  0.00    +0.049 A 
ATOM     21  C   UNL     1      -3.172   2.958   0.920  0.00  0.00    +0.138 A 
ATOM     22  C   UNL     1      -2.616   2.576   2.134  0.00  0.00    +0.084 A 
ATOM     23  C   UNL     1      -2.632   1.247   2.513  0.00  0.00    +0.047 A 
ATOM     24 CL   UNL     1      -1.908   3.769   3.177  0.00  0.00    -0.080 Cl
BRANCH  21  25
ATOM     25  O   UNL     1      -3.161   4.266   0.549  0.00  0.00    -0.494 OA
ATOM     26  C   UNL     1      -3.749   4.587  -0.713  0.00  0.00    +0.277 C 
ENDBRANCH  21  25
ENDBRANCH  16  18
ENDBRANCH  14  16
ENDBRANCH   1  14
BRANCH   1  27
ATOM     27  C   UNL     1      -3.365  -3.394  -0.774  0.00  0.00    +0.142 C 
BRANCH  27  28
ATOM     28  C   UNL     1      -3.164  -4.796  -0.258  0.00  0.00    -0.030 A 
ATOM     29  C   UNL     1      -2.063  -5.528  -0.662  0.00  0.00    +0.007 A 
ATOM     30  C   UNL     1      -1.875  -6.813  -0.191  0.00  0.00    +0.023 A 
ATOM     31  C   UNL     1      -2.794  -7.369   0.690  0.00  0.00    +0.029 A 
ATOM     32  C   UNL     1      -3.900  -6.630   1.093  0.00  0.00    +0.023 A 
ATOM     33  C   UNL     1      -4.078  -5.344   0.623  0.00  0.00    +0.007 A 
BRANCH  31  34
ATOM     34  N   UNL     1      -2.608  -8.668   1.168  0.00  0.00    -0.336 N 
ATOM     35  C   UNL     1      -1.442  -9.446   0.741  0.00  0.00    +0.129 C 
ATOM     36  C   UNL     1      -3.579  -9.253   2.096  0.00  0.00    +0.129 C 
ENDBRANCH  31  34
ENDBRANCH  27  28
ENDBRANCH   1  27
TORSDOF 8
