REMARK  Name = ZINC13163097
REMARK  6 active torsions:
REMARK  status: ('A' for Active; 'I' for Inactive)
REMARK    1  A    between atoms: C_1  and  C_2
REMARK    2  A    between atoms: C_5  and  C_8
REMARK    3  A    between atoms: N_9  and  C_10
REMARK    4  A    between atoms: N_14  and  C_15
REMARK    5  A    between atoms: C_15  and  N_17
REMARK    6  A    between atoms: N_17  and  C_18
REMARK                            x       y       z     vdW  Elec       q    Type
REMARK                         _______ _______ _______ _____ _____    ______ ____
ROOT
ATOM      1  C   UNL     1      -0.557   1.220   1.431  0.00  0.00    +0.109 C 
ATOM      2  N   UNL     1      -0.743  -0.045   1.722  0.00  0.00    -0.347 N 
ATOM      3  N   UNL     1      -1.418   1.864   0.561  0.00  0.00    -0.283 N 
ATOM      4  H   UNL     1      -1.262   2.925   0.317  0.00  0.00    +0.155 HD
ATOM      5  H   UNL     1      -1.654  -0.559   1.383  0.00  0.00    +0.167 HD
ENDROOT
BRANCH   1  10
ATOM      6  C   UNL     1       3.853   4.089   3.760  0.00  0.00    +0.044 C 
ATOM      7  C   UNL     1       2.698   3.338   3.150  0.00  0.00    -0.050 A 
ATOM      8  C   UNL     1       2.318   3.600   1.846  0.00  0.00    +0.004 A 
ATOM      9  C   UNL     1       1.262   2.916   1.281  0.00  0.00    +0.011 A 
ATOM     10  C   UNL     1       0.576   1.956   2.029  0.00  0.00    +0.013 A 
ATOM     11  C   UNL     1       0.961   1.701   3.347  0.00  0.00    +0.011 A 
ATOM     12  C   UNL     1       2.023   2.389   3.897  0.00  0.00    +0.004 A 
ENDBRANCH   1  10
BRANCH   2  13
ATOM     13  C   UNL     1       0.192  -0.722   2.441  0.00  0.00    +0.116 C 
ATOM     14  C   UNL     1      -0.128  -1.873   3.035  0.00  0.00    +0.122 C 
ATOM     15 CL   UNL     1      -1.738  -2.507   2.889  0.00  0.00    -0.069 Cl
ATOM     16 CL   UNL     1       1.065  -2.737   3.954  0.00  0.00    -0.069 Cl
ENDBRANCH   2  13
BRANCH   3  17
ATOM     17  C   UNL     1      -2.448   1.191   0.011  0.00  0.00    +0.140 C 
ATOM     18  S   UNL     1      -2.691  -0.461   0.390  0.00  0.00    -0.018 S 
BRANCH  17  19
ATOM     19  N   UNL     1      -3.287   1.818  -0.837  0.00  0.00    -0.297 N 
ATOM     20  H   UNL     1      -3.171   2.895  -1.030  0.00  0.00    +0.154 HD
BRANCH  19  21
ATOM     21  C   UNL     1      -4.305   1.099  -1.472  0.00  0.00    +0.033 A 
ATOM     22  C   UNL     1      -4.572   1.312  -2.819  0.00  0.00    +0.023 A 
ATOM     23  C   UNL     1      -5.574   0.597  -3.444  0.00  0.00    +0.002 A 
ATOM     24  C   UNL     1      -6.319  -0.322  -2.729  0.00  0.00    +0.000 A 
ATOM     25  C   UNL     1      -6.061  -0.532  -1.387  0.00  0.00    +0.002 A 
ATOM     26  C   UNL     1      -5.056   0.176  -0.757  0.00  0.00    +0.023 A 
ENDBRANCH  19  21
ENDBRANCH  17  19
ENDBRANCH   3  17
TORSDOF 5
