REMARK  Name = ZINC22802276
REMARK  11 active torsions:
REMARK  status: ('A' for Active; 'I' for Inactive)
REMARK    1  A    between atoms: C_1  and  N_2
REMARK    2  A    between atoms: N_5  and  S_8
REMARK    3  A    between atoms: S_8  and  C_11
REMARK    4  A    between atoms: C_14  and  N_20
REMARK    5  A    between atoms: C_15  and  N_17
REMARK    6  A    between atoms: N_20  and  C_21
REMARK    7  A    between atoms: C_21  and  C_22
REMARK    8  A    between atoms: C_22  and  C_23
REMARK    9  A    between atoms: C_23  and  C_24
REMARK   10  A    between atoms: C_25  and  C_31
REMARK   11  A    between atoms: C_26  and  N_30
REMARK                            x       y       z     vdW  Elec       q    Type
REMARK                         _______ _______ _______ _____ _____    ______ ____
ROOT
ATOM      1  C   UNL     1       3.815  -3.329  -0.239  0.00  0.00    +0.108 A 
ATOM      2  C   UNL     1       4.268  -2.778  -1.424  0.00  0.00    +0.030 A 
ATOM      3  C   UNL     1       5.401  -1.989  -1.431  0.00  0.00    +0.027 A 
ATOM      4  C   UNL     1       6.086  -1.748  -0.247  0.00  0.00    +0.058 A 
ATOM      5  C   UNL     1       5.628  -2.302   0.941  0.00  0.00    +0.149 A 
ATOM      6  C   UNL     1       4.491  -3.087   0.943  0.00  0.00    +0.063 A 
ENDROOT
BRANCH   1   7
ATOM      7  S   UNL     1       2.368  -4.335  -0.234  0.00  0.00    +0.061 S 
ATOM      8  O   UNL     1       2.459  -5.171   0.911  0.00  0.00    -0.153 OA
ATOM      9  O   UNL     1       2.231  -4.856  -1.548  0.00  0.00    -0.153 OA
BRANCH   7  14
ATOM     10  C   UNL     1      -0.618   0.455   0.658  0.00  0.00    +0.105 C 
ATOM     11  N   UNL     1      -0.345  -0.973   0.449  0.00  0.00    -0.303 NA
ATOM     12  C   UNL     1       0.268  -1.206  -0.865  0.00  0.00    +0.101 C 
ATOM     13  C   UNL     1       0.369  -2.714  -1.118  0.00  0.00    +0.125 C 
ATOM     14  N   UNL     1       1.075  -3.331   0.015  0.00  0.00    -0.174 NA
ATOM     15  C   UNL     1       0.601  -3.033   1.375  0.00  0.00    +0.125 C 
ATOM     16  C   UNL     1       0.490  -1.513   1.530  0.00  0.00    +0.101 C 
ENDBRANCH   7  14
ENDBRANCH   1   7
BRANCH   5  17
ATOM     17  N   UNL     1       6.354  -2.049   2.206  0.00  0.00    +0.058 N 
ATOM     18  O   UNL     1       7.562  -2.000   2.209  0.00  0.00    -0.126 OA
ATOM     19  O   UNL     1       5.740  -1.891   3.235  0.00  0.00    -0.126 OA
ENDBRANCH   5  17
BRANCH   4  20
ATOM     20  N   UNL     1       7.232  -0.951  -0.251  0.00  0.00    -0.342 N 
ATOM     21  H   UNL     1       7.661  -0.713   0.586  0.00  0.00    +0.146 HD
BRANCH  20  22
ATOM     22  C   UNL     1       7.788  -0.473  -1.520  0.00  0.00    +0.102 C 
BRANCH  22  23
ATOM     23  C   UNL     1       9.033   0.373  -1.245  0.00  0.00    +0.025 C 
BRANCH  23  24
ATOM     24  C   UNL     1       9.613   0.872  -2.570  0.00  0.00    +0.060 C 
BRANCH  24  25
ATOM     25  C   UNL     1      10.839   1.705  -2.300  0.00  0.00    +0.082 A 
ATOM     26  C   UNL     1      10.861   3.101  -2.078  0.00  0.00    +0.113 A 
ATOM     27  C   UNL     1      12.190   3.460  -1.870  0.00  0.00    +0.129 A 
ATOM     28  N   UNL     1      12.925   2.333  -1.964  0.00  0.00    -0.263 N 
ATOM     29  H   UNL     1      13.888   2.274  -1.863  0.00  0.00    +0.190 HD
ATOM     30  N   UNL     1      12.063   1.262  -2.224  0.00  0.00    -0.176 NA
BRANCH  27  31
ATOM     31  N   UNL     1      12.666   4.732  -1.616  0.00  0.00    -0.342 N 
ATOM     32  H   UNL     1      12.051   5.480  -1.569  0.00  0.00    +0.144 HD
ATOM     33  H   UNL     1      13.617   4.877  -1.485  0.00  0.00    +0.144 HD
ENDBRANCH  27  31
BRANCH  26  34
ATOM     34  C   UNL     1       9.730   3.980  -2.069  0.00  0.00    +0.104 C 
ATOM     35  N   UNL     1       8.833   4.677  -2.062  0.00  0.00    -0.191 NA
ENDBRANCH  26  34
ENDBRANCH  24  25
ENDBRANCH  23  24
ENDBRANCH  22  23
ENDBRANCH  20  22
ENDBRANCH   4  20
TORSDOF 10
