REMARK  Name = ZINC12867284
REMARK  16 active torsions:
REMARK  status: ('A' for Active; 'I' for Inactive)
REMARK    1  A    between atoms: C_1  and  C_2
REMARK    2  A    between atoms: C_2  and  C_3
REMARK    3  A    between atoms: C_2  and  C_4
REMARK    4  A    between atoms: C_4  and  C_6
REMARK    5  A    between atoms: C_4  and  N_18
REMARK    6  A    between atoms: N_8  and  C_9
REMARK    7  A    between atoms: C_9  and  C_10
REMARK    8  A    between atoms: C_15  and  O_16
REMARK    9  A    between atoms: O_16  and  C_17
REMARK   10  A    between atoms: C_19  and  C_21
REMARK   11  A    between atoms: C_27  and  C_29
REMARK   12  A    between atoms: C_29  and  C_31
REMARK   13  A    between atoms: C_29  and  N_35
REMARK   14  A    between atoms: C_31  and  C_32
REMARK   15  A    between atoms: C_32  and  S_33
REMARK   16  A    between atoms: S_33  and  C_34
REMARK                            x       y       z     vdW  Elec       q    Type
REMARK                         _______ _______ _______ _____ _____    ______ ____
ROOT
ATOM      1  N   UNL     1      -2.353  -0.281  -1.134  0.00  0.00    -0.304 N 
ATOM      2  C   UNL     1      -2.970   0.916  -1.149  0.00  0.00    +0.217 C 
ATOM      3  O   UNL     1      -2.681   1.758  -0.325  0.00  0.00    -0.275 OA
ATOM      4  H   UNL     1      -2.584  -0.955  -1.793  0.00  0.00    +0.149 HD
ENDROOT
BRANCH   2   5
ATOM      5  C   UNL     1      -4.020   1.210  -2.189  0.00  0.00    +0.078 C 
ATOM      6  C   UNL     1      -3.402   1.094  -3.584  0.00  0.00    +0.032 C 
ATOM      7  C   UNL     1      -4.480   1.359  -4.640  0.00  0.00    +0.108 C 
ATOM      8  N   UNL     1      -5.104   2.661  -4.362  0.00  0.00    -0.303 N 
ATOM      9  C   UNL     1      -5.650   2.911  -3.022  0.00  0.00    +0.108 C 
ATOM     10  C   UNL     1      -4.558   2.628  -1.984  0.00  0.00    +0.032 C 
ATOM     11  C   UNL     1      -5.173   3.607  -5.319  0.00  0.00    +0.201 C 
ATOM     12  O   UNL     1      -4.718   3.389  -6.422  0.00  0.00    -0.277 OA
BRANCH  11  13
ATOM     13  C   UNL     1      -5.816   4.937  -5.019  0.00  0.00    +0.014 C 
BRANCH  13  14
ATOM     14  N   UNL     1      -5.362   5.932  -6.000  0.00  0.00    +0.386 N 
ATOM     15  H   UNL     1      -5.624   5.634  -6.927  0.00  0.00    -0.089 HD
ATOM     16  H   UNL     1      -5.793   6.822  -5.799  0.00  0.00    -0.089 HD
ATOM     17  H   UNL     1      -4.359   6.024  -5.946  0.00  0.00    -0.089 HD
ENDBRANCH  13  14
BRANCH  13  18
ATOM     18  C   UNL     1      -7.337   4.797  -5.100  0.00  0.00    +0.003 C 
BRANCH  18  19
ATOM     19  C   UNL     1      -7.993   6.113  -4.675  0.00  0.00    +0.068 C 
BRANCH  19  20
ATOM     20  S   UNL     1      -9.797   5.948  -4.771  0.00  0.00    -0.164 S 
ATOM     21  C   UNL     1     -10.415   7.569  -4.241  0.00  0.00    +0.084 C 
ENDBRANCH  19  20
ENDBRANCH  18  19
ENDBRANCH  13  18
ENDBRANCH  11  13
ENDBRANCH   2   5
BRANCH   1  22
ATOM     22  C   UNL     1      -1.332  -0.567  -0.123  0.00  0.00    +0.161 C 
BRANCH  22  23
ATOM     23  C   UNL     1      -1.242  -2.056   0.094  0.00  0.00    +0.234 C 
ATOM     24  O   UNL     1      -1.650  -2.818  -0.757  0.00  0.00    -0.274 OA
ATOM     25  N   UNL     1      -0.710  -2.540   1.234  0.00  0.00    -0.310 N 
ATOM     26  H   UNL     1      -0.318  -1.934   1.881  0.00  0.00    +0.149 HD
BRANCH  25  27
ATOM     27  C   UNL     1      -0.722  -3.982   1.493  0.00  0.00    +0.143 C 
BRANCH  27  28
ATOM     28  C   UNL     1      -0.071  -4.258   2.824  0.00  0.00    +0.011 A 
ATOM     29  C   UNL     1       1.241  -4.688   2.876  0.00  0.00    +0.009 A 
ATOM     30  C   UNL     1       1.839  -4.942   4.096  0.00  0.00    +0.001 A 
ATOM     31  C   UNL     1       1.126  -4.766   5.268  0.00  0.00    +0.004 A 
ATOM     32  C   UNL     1      -0.186  -4.336   5.221  0.00  0.00    +0.046 A 
ATOM     33  C   UNL     1      -0.786  -4.075   3.998  0.00  0.00    +0.125 A 
BRANCH  33  34
ATOM     34  O   UNL     1      -2.075  -3.647   3.950  0.00  0.00    -0.495 OA
ATOM     35  C   UNL     1      -2.751  -3.481   5.199  0.00  0.00    +0.277 C 
ENDBRANCH  33  34
ENDBRANCH  27  28
ENDBRANCH  25  27
ENDBRANCH  22  23
BRANCH  22  37
ATOM     36  C   UNL     1       0.336  -0.618  -1.983  0.00  0.00    +0.009 C 
ATOM     37  C   UNL     1       0.022  -0.039  -0.602  0.00  0.00    +0.012 C 
ATOM     38  C   UNL     1      -0.027   1.488  -0.688  0.00  0.00    +0.009 C 
ENDBRANCH  22  37
ENDBRANCH   1  22
TORSDOF 12
