REMARK  Name = ZINC40777747
REMARK  8 active torsions:
REMARK  status: ('A' for Active; 'I' for Inactive)
REMARK    1  A    between atoms: C_1  and  O_2
REMARK    2  A    between atoms: O_2  and  C_3
REMARK    3  A    between atoms: C_8  and  N_9
REMARK    4  A    between atoms: C_11  and  N_30
REMARK    5  A    between atoms: C_12  and  N_16
REMARK    6  A    between atoms: N_16  and  N_17
REMARK    7  A    between atoms: N_17  and  C_18
REMARK    8  A    between atoms: N_17  and  C_24
REMARK                            x       y       z     vdW  Elec       q    Type
REMARK                         _______ _______ _______ _____ _____    ______ ____
ROOT
ATOM      1  N   UNL     1       0.278  -3.163  -1.111  0.00  0.00    -0.296 N 
ATOM      2  C   UNL     1       0.132  -4.542  -1.023  0.00  0.00    +0.126 A 
ATOM      3  C   UNL     1      -0.440  -5.123   0.110  0.00  0.00    +0.105 A 
ATOM      4  C   UNL     1      -0.564  -6.513   0.147  0.00  0.00    +0.161 A 
ATOM      5  N   UNL     1      -0.136  -7.226  -0.892  0.00  0.00    -0.219 NA
ATOM      6  C   UNL     1       0.398  -6.638  -1.943  0.00  0.00    +0.200 A 
ATOM      7  N   UNL     1       0.529  -5.329  -2.020  0.00  0.00    -0.333 N 
ATOM      8  H   UNL     1       0.067  -2.603  -0.348  0.00  0.00    +0.154 HD
ATOM      9  H   UNL     1       0.924  -4.934  -2.813  0.00  0.00    +0.168 HD
ENDROOT
BRANCH   1  15
ATOM     10  C   UNL     1      -0.102  -2.538  -3.418  0.00  0.00    +0.141 A 
ATOM     11  C   UNL     1       0.349  -1.957  -4.592  0.00  0.00    +0.047 A 
ATOM     12  C   UNL     1       1.625  -1.427  -4.656  0.00  0.00    +0.004 A 
ATOM     13  C   UNL     1       2.453  -1.474  -3.550  0.00  0.00    +0.002 A 
ATOM     14  C   UNL     1       2.011  -2.052  -2.375  0.00  0.00    +0.027 A 
ATOM     15  C   UNL     1       0.730  -2.581  -2.302  0.00  0.00    +0.075 A 
BRANCH  10  17
ATOM     16  C   UNL     1      -2.153  -2.981  -4.538  0.00  0.00    +0.277 C 
ATOM     17  O   UNL     1      -1.356  -3.061  -3.354  0.00  0.00    -0.493 OA
ENDBRANCH  10  17
ENDBRANCH   1  15
BRANCH   3  18
ATOM     18  N   UNL     1      -0.878  -4.332   1.184  0.00  0.00    -0.353 N 
ATOM     19  H   UNL     1      -0.785  -3.367   1.145  0.00  0.00    +0.143 HD
ATOM     20  H   UNL     1      -1.274  -4.749   1.965  0.00  0.00    +0.143 HD
ENDBRANCH   3  18
BRANCH   4  21
ATOM     21  N   UNL     1      -1.126  -7.143   1.251  0.00  0.00    -0.242 N 
ATOM     22  H   UNL     1      -1.435  -6.616   2.005  0.00  0.00    +0.172 HD
BRANCH  21  23
ATOM     23  N   UNL     1      -1.245  -8.539   1.277  0.00  0.00    -0.221 N 
BRANCH  23  24
ATOM     24  C   UNL     1      -0.116  -9.332   1.496  0.00  0.00    +0.053 A 
ATOM     25  C   UNL     1       0.750  -9.036   2.541  0.00  0.00    +0.025 A 
ATOM     26  C   UNL     1       1.865  -9.823   2.756  0.00  0.00    +0.002 A 
ATOM     27  C   UNL     1       2.119 -10.904   1.931  0.00  0.00    +0.000 A 
ATOM     28  C   UNL     1       1.259 -11.201   0.890  0.00  0.00    +0.002 A 
ATOM     29  C   UNL     1       0.139 -10.422   0.674  0.00  0.00    +0.025 A 
ENDBRANCH  23  24
BRANCH  23  30
ATOM     30  C   UNL     1      -2.492  -9.137   1.082  0.00  0.00    +0.053 A 
ATOM     31  C   UNL     1      -2.762 -10.381   1.638  0.00  0.00    +0.025 A 
ATOM     32  C   UNL     1      -3.996 -10.970   1.444  0.00  0.00    +0.002 A 
ATOM     33  C   UNL     1      -4.963 -10.322   0.697  0.00  0.00    +0.000 A 
ATOM     34  C   UNL     1      -4.697  -9.084   0.141  0.00  0.00    +0.002 A 
ATOM     35  C   UNL     1      -3.468  -8.486   0.337  0.00  0.00    +0.025 A 
ENDBRANCH  23  30
ENDBRANCH  21  23
ENDBRANCH   4  21
TORSDOF 7
