REMARK  Name = ZINC06078534
REMARK  10 active torsions:
REMARK  status: ('A' for Active; 'I' for Inactive)
REMARK    1  A    between atoms: C_1  and  C_2
REMARK    2  A    between atoms: C_2  and  N_3
REMARK    3  A    between atoms: N_3  and  C_4
REMARK    4  A    between atoms: N_3  and  C_6
REMARK    5  A    between atoms: C_4  and  C_5
REMARK    6  A    between atoms: C_18  and  N_37
REMARK    7  A    between atoms: C_19  and  C_35
REMARK    8  A    between atoms: C_20  and  C_22
REMARK    9  A    between atoms: C_25  and  C_34
REMARK   10  A    between atoms: C_28  and  C_33
REMARK                            x       y       z     vdW  Elec       q    Type
REMARK                         _______ _______ _______ _____ _____    ______ ____
ROOT
ATOM      1  C   UNL     1       7.468   4.343  -4.827  0.00  0.00    +0.033 A 
ATOM      2  C   UNL     1       7.938   3.781  -3.640  0.00  0.00    +0.024 A 
ATOM      3  C   UNL     1       7.282   4.001  -2.464  0.00  0.00    +0.017 A 
ATOM      4  C   UNL     1       6.131   4.794  -2.449  0.00  0.00    +0.060 A 
ATOM      5  C   UNL     1       5.650   5.364  -3.641  0.00  0.00    +0.144 A 
ATOM      6  C   UNL     1       6.326   5.132  -4.828  0.00  0.00    +0.070 A 
ATOM      7  O   UNL     1       4.537   6.129  -3.618  0.00  0.00    -0.422 OA
ATOM      8  C   UNL     1       3.866   6.363  -2.478  0.00  0.00    +0.345 A 
ATOM      9  O   UNL     1       2.866   7.060  -2.512  0.00  0.00    -0.245 OA
ATOM     10  C   UNL     1       4.283   5.828  -1.250  0.00  0.00    +0.092 A 
ATOM     11  C   UNL     1       5.402   5.048  -1.198  0.00  0.00    +0.152 A 
ATOM     12  O   UNL     1       5.838   4.517  -0.040  0.00  0.00    -0.440 OA
ATOM     13  C   UNL     1       5.425   5.031   1.132  0.00  0.00    +0.199 C 
ATOM     14  C   UNL     1       4.316   5.803   1.217  0.00  0.00    +0.098 C 
ATOM     15  C   UNL     1       3.494   6.119  -0.001  0.00  0.00    +0.108 C 
ENDROOT
BRANCH  15  16
ATOM     16  C   UNL     1       2.244   5.278   0.007  0.00  0.00    +0.003 A 
ATOM     17  C   UNL     1       2.337   3.915  -0.000  0.00  0.00    +0.017 A 
ATOM     18  C   UNL     1       1.145   3.168   0.008  0.00  0.00    +0.004 A 
ATOM     19  C   UNL     1       1.162   1.764   0.000  0.00  0.00    -0.041 A 
ATOM     20  C   UNL     1      -0.013   1.076   0.008  0.00  0.00    +0.004 A 
ATOM     21  C   UNL     1      -1.234   1.747   0.017  0.00  0.00    +0.006 A 
ATOM     22  C   UNL     1      -1.288   3.107   0.031  0.00  0.00    -0.024 A 
ATOM     23  C   UNL     1      -0.096   3.852   0.023  0.00  0.00    +0.076 A 
ATOM     24  N   UNL     1      -0.118   5.189   0.029  0.00  0.00    -0.235 NA
ATOM     25  C   UNL     1       0.991   5.889   0.022  0.00  0.00    +0.134 A 
ATOM     26 CL   UNL     1       0.896   7.623   0.031  0.00  0.00    -0.062 Cl
ATOM     27  C   UNL     1      -2.620   3.811   0.047  0.00  0.00    +0.046 C 
ATOM     28  C   UNL     1       2.474   1.022  -0.016  0.00  0.00    +0.044 C 
ENDBRANCH  15  16
BRANCH  13  29
ATOM     29  N   UNL     1       6.146   4.766   2.270  0.00  0.00    -0.328 N 
ATOM     30  H   UNL     1       5.859   5.131   3.122  0.00  0.00    +0.145 HD
ATOM     31  H   UNL     1       6.942   4.214   2.223  0.00  0.00    +0.145 HD
ENDBRANCH  13  29
BRANCH  14  32
ATOM     32  C   UNL     1       3.919   6.327   2.490  0.00  0.00    +0.101 C 
ATOM     33  N   UNL     1       3.604   6.743   3.499  0.00  0.00    -0.191 NA
ENDBRANCH  14  32
BRANCH   1  34
ATOM     34  N   UNL     1       8.147   4.110  -6.019  0.00  0.00    -0.330 N 
BRANCH  34  36
ATOM     35  C   UNL     1       8.963   1.817  -6.259  0.00  0.00    +0.024 C 
ATOM     36  C   UNL     1       9.353   3.277  -6.025  0.00  0.00    +0.102 C 
ENDBRANCH  34  36
BRANCH  34  37
ATOM     37  C   UNL     1       7.657   4.697  -7.269  0.00  0.00    +0.102 C 
ATOM     38  C   UNL     1       8.296   6.073  -7.471  0.00  0.00    +0.024 C 
ENDBRANCH  34  37
ENDBRANCH   1  34
TORSDOF 6
