REMARK  Name = ZINC26012559
REMARK  10 active torsions:
REMARK  status: ('A' for Active; 'I' for Inactive)
REMARK    1  A    between atoms: C_1  and  C_2
REMARK    2  A    between atoms: N_8  and  C_9
REMARK    3  A    between atoms: C_9  and  C_10
REMARK    4  A    between atoms: N_12  and  C_13
REMARK    5  A    between atoms: C_13  and  C_14
REMARK    6  A    between atoms: C_19  and  C_20
REMARK    7  A    between atoms: C_25  and  C_28
REMARK    8  A    between atoms: C_28  and  C_29
REMARK    9  A    between atoms: C_29  and  C_30
REMARK   10  A    between atoms: C_29  and  C_31
REMARK                            x       y       z     vdW  Elec       q    Type
REMARK                         _______ _______ _______ _____ _____    ______ ____
ROOT
ATOM      1  C   UNL     1      -0.018   1.503   0.010  0.00  0.00    +0.063 C 
ATOM      2  C   UNL     1       0.002  -0.004   0.002  0.00  0.00    +0.020 A 
ATOM      3  C   UNL     1       0.005  -0.666  -1.178  0.00  0.00    +0.026 A 
ATOM      4  C   UNL     1       0.034  -2.067  -1.194  0.00  0.00    -0.019 A 
ATOM      5  C   UNL     1       0.064  -2.749  -0.011  0.00  0.00    +0.102 A 
ATOM      6  C   UNL     1       0.043  -2.028   1.202  0.00  0.00    +0.273 A 
ATOM      7  O   UNL     1       0.048  -2.623   2.268  0.00  0.00    -0.266 OA
ATOM      8  N   UNL     1       0.022  -0.681   1.181  0.00  0.00    -0.302 N 
ATOM      9  N   UNL     1       0.136  -4.146   0.001  0.00  0.00    -0.281 N 
ATOM     10  C   UNL     1       0.445  -4.827  -1.117  0.00  0.00    +0.221 C 
ATOM     11  O   UNL     1       0.403  -6.040  -1.114  0.00  0.00    -0.275 OA
ATOM     12  C   UNL     1       0.841  -4.096  -2.373  0.00  0.00    +0.080 C 
ATOM     13  C   UNL     1       0.021  -2.812  -2.502  0.00  0.00    +0.050 C 
ATOM     14  H   UNL     1      -0.039  -4.628   0.824  0.00  0.00    +0.155 HD
ENDROOT
BRANCH   8  15
ATOM     15  C   UNL     1       0.017   0.062   2.443  0.00  0.00    +0.220 C 
BRANCH  15  16
ATOM     16  C   UNL     1      -1.405   0.291   2.885  0.00  0.00    +0.233 C 
ATOM     17  O   UNL     1      -2.324  -0.126   2.212  0.00  0.00    -0.274 OA
ATOM     18  N   UNL     1      -1.657   0.959   4.028  0.00  0.00    -0.310 N 
ATOM     19  H   UNL     1      -0.922   1.293   4.566  0.00  0.00    +0.149 HD
BRANCH  18  20
ATOM     20  C   UNL     1      -3.039   1.182   4.458  0.00  0.00    +0.141 C 
BRANCH  20  21
ATOM     21  C   UNL     1      -3.045   1.947   5.756  0.00  0.00    -0.011 A 
ATOM     22  C   UNL     1      -3.227   1.282   6.962  0.00  0.00    +0.010 A 
ATOM     23  C   UNL     1      -3.226   2.021   8.130  0.00  0.00    +0.041 A 
ATOM     24  C   UNL     1      -3.043   3.398   8.059  0.00  0.00    +0.094 A 
ATOM     25  N   UNL     1      -2.872   3.996   6.890  0.00  0.00    -0.347 N 
ATOM     26  C   UNL     1      -2.863   3.315   5.760  0.00  0.00    +0.019 A 
ATOM     27  C   UNL     1      -2.659   4.041   4.455  0.00  0.00    +0.063 C 
ATOM     28  N   UNL     1      -3.040   4.154   9.226  0.00  0.00    -0.345 N 
ATOM     29  H   UNL     1      -3.164   3.721  10.085  0.00  0.00    +0.144 HD
ATOM     30  H   UNL     1      -2.912   5.115   9.181  0.00  0.00    +0.144 HD
ATOM     31  H   UNL     1      -2.747   4.957   6.864  0.00  0.00    +0.167 HD
ENDBRANCH  20  21
ENDBRANCH  18  20
ENDBRANCH  15  16
ENDBRANCH   8  15
BRANCH  12  32
ATOM     32  C   UNL     1       2.329  -3.744  -2.308  0.00  0.00    +0.016 C 
BRANCH  32  33
ATOM     33  C   UNL     1       3.158  -5.030  -2.310  0.00  0.00    -0.016 C 
ATOM     34  C   UNL     1       2.970  -5.756  -3.643  0.00  0.00    +0.007 C 
ATOM     35  C   UNL     1       4.636  -4.684  -2.120  0.00  0.00    +0.007 C 
ENDBRANCH  32  33
ENDBRANCH  12  32
TORSDOF 6
