REMARK  Name = ZINC59113958
REMARK  9 active torsions:
REMARK  status: ('A' for Active; 'I' for Inactive)
REMARK    1  A    between atoms: C_4  and  N_11
REMARK    2  A    between atoms: C_6  and  C_7
REMARK    3  A    between atoms: N_11  and  C_12
REMARK    4  A    between atoms: C_12  and  N_14
REMARK    5  A    between atoms: N_14  and  N_15
REMARK    6  A    between atoms: N_15  and  C_16
REMARK    7  A    between atoms: C_16  and  N_18
REMARK    8  A    between atoms: N_18  and  C_19
REMARK    9  A    between atoms: C_21  and  C_26
REMARK                            x       y       z     vdW  Elec       q    Type
REMARK                         _______ _______ _______ _____ _____    ______ ____
ROOT
ATOM      1  N   UNL     1       4.806  -2.680   0.126  0.00  0.00    -0.246 N 
ATOM      2  H   UNL     1       4.847  -3.645   0.043  0.00  0.00    +0.172 HD
ENDROOT
BRANCH   1   3
ATOM      3  C   UNL     1       3.620  -2.046   0.036  0.00  0.00    +0.151 C 
ATOM      4  S   UNL     1       2.186  -2.945  -0.225  0.00  0.00    -0.017 S 
BRANCH   3   5
ATOM      5  N   UNL     1       3.562  -0.704   0.152  0.00  0.00    -0.295 N 
ATOM      6  H   UNL     1       4.379  -0.191   0.252  0.00  0.00    +0.154 HD
BRANCH   5  10
ATOM      7  C   UNL     1      -0.125   1.236   0.083  0.00  0.00    +0.014 A 
ATOM      8  C   UNL     1       0.968   1.811  -0.538  0.00  0.00    +0.022 A 
ATOM      9  C   UNL     1       2.192   1.170  -0.518  0.00  0.00    +0.062 A 
ATOM     10  C   UNL     1       2.324  -0.053   0.130  0.00  0.00    +0.052 A 
ATOM     11  C   UNL     1       1.224  -0.626   0.753  0.00  0.00    +0.037 A 
ATOM     12  C   UNL     1       0.003   0.019   0.728  0.00  0.00    +0.057 A 
ATOM     13 CL   UNL     1       3.564   1.892  -1.299  0.00  0.00    -0.082 Cl
BRANCH  12  14
ATOM     14  C   UNL     1      -1.191  -0.604   1.404  0.00  0.00    +0.417 C 
ATOM     15  F   UNL     1      -2.304   0.229   1.245  0.00  0.00    -0.166 F 
ATOM     16  F   UNL     1      -1.456  -1.851   0.828  0.00  0.00    -0.166 F 
ATOM     17  F   UNL     1      -0.923  -0.767   2.767  0.00  0.00    -0.166 F 
ENDBRANCH  12  14
ENDBRANCH   5  10
ENDBRANCH   3   5
ENDBRANCH   1   3
BRANCH   1  18
ATOM     18  N   UNL     1       5.979  -1.944   0.340  0.00  0.00    -0.246 N 
ATOM     19  H   UNL     1       5.937  -0.979   0.424  0.00  0.00    +0.172 HD
BRANCH  18  20
ATOM     20  C   UNL     1       7.165  -2.578   0.430  0.00  0.00    +0.151 C 
ATOM     21  S   UNL     1       8.598  -1.679   0.692  0.00  0.00    -0.017 S 
BRANCH  20  22
ATOM     22  N   UNL     1       7.222  -3.919   0.314  0.00  0.00    -0.295 N 
ATOM     23  H   UNL     1       6.422  -4.422   0.096  0.00  0.00    +0.154 HD
BRANCH  22  24
ATOM     24  C   UNL     1       8.437  -4.587   0.508  0.00  0.00    +0.052 A 
ATOM     25  C   UNL     1       9.598  -4.103  -0.078  0.00  0.00    +0.037 A 
ATOM     26  C   UNL     1      10.796  -4.764   0.116  0.00  0.00    +0.057 A 
ATOM     27  C   UNL     1      10.839  -5.907   0.893  0.00  0.00    +0.014 A 
ATOM     28  C   UNL     1       9.684  -6.392   1.479  0.00  0.00    +0.022 A 
ATOM     29  C   UNL     1       8.484  -5.733   1.294  0.00  0.00    +0.062 A 
ATOM     30 CL   UNL     1       7.036  -6.339   2.035  0.00  0.00    -0.082 Cl
BRANCH  26  31
ATOM     31  C   UNL     1      12.057  -4.239  -0.521  0.00  0.00    +0.417 C 
ATOM     32  F   UNL     1      12.680  -3.340   0.351  0.00  0.00    -0.166 F 
ATOM     33  F   UNL     1      12.922  -5.305  -0.789  0.00  0.00    -0.166 F 
ATOM     34  F   UNL     1      11.738  -3.585  -1.716  0.00  0.00    -0.166 F 
ENDBRANCH  26  31
ENDBRANCH  22  24
ENDBRANCH  20  22
ENDBRANCH  18  20
ENDBRANCH   1  18
TORSDOF 9
