REMARK  Name = ZINC08789533
REMARK  6 active torsions:
REMARK  status: ('A' for Active; 'I' for Inactive)
REMARK    1  A    between atoms: C_1  and  O_2
REMARK    2  A    between atoms: O_2  and  C_3
REMARK    3  A    between atoms: C_6  and  C_9
REMARK    4  A    between atoms: C_9  and  N_10
REMARK    5  A    between atoms: C_15  and  C_32
REMARK    6  A    between atoms: C_32  and  C_33
REMARK                            x       y       z     vdW  Elec       q    Type
REMARK                         _______ _______ _______ _____ _____    ______ ____
ROOT
ATOM      1  N   UNL     1       4.077   2.444  -1.407  0.00  0.00    -0.237 N 
ATOM      2  C   UNL     1       3.700   3.537  -2.079  0.00  0.00    +0.224 C 
ATOM      3  O   UNL     1       3.001   4.424  -1.640  0.00  0.00    -0.275 OA
ATOM      4  C   UNL     1       4.284   3.495  -3.474  0.00  0.00    +0.073 C 
ATOM      5  C   UNL     1       3.143   3.298  -4.495  0.00  0.00    -0.049 C 
ATOM      6  C   UNL     1       4.380   1.297  -4.537  0.00  0.00    +0.050 C 
ATOM      7  C   UNL     1       5.085   2.163  -3.486  0.00  0.00    +0.088 C 
ATOM      8  C   UNL     1       4.858   1.607  -2.099  0.00  0.00    +0.225 C 
ATOM      9  O   UNL     1       5.311   0.563  -1.681  0.00  0.00    -0.275 OA
ATOM     10  C   UNL     1       5.359   0.453  -5.302  0.00  0.00    -0.026 A 
ATOM     11  C   UNL     1       6.454   0.745  -6.084  0.00  0.00    +0.004 A 
ATOM     12  C   UNL     1       7.178  -0.277  -6.673  0.00  0.00    +0.002 A 
ATOM     13  C   UNL     1       6.799  -1.592  -6.473  0.00  0.00    +0.022 A 
ATOM     14  C   UNL     1       5.702  -1.890  -5.689  0.00  0.00    +0.062 A 
ATOM     15  C   UNL     1       4.968  -0.866  -5.093  0.00  0.00    +0.054 A 
ATOM     16  N   UNL     1       3.840  -0.911  -4.269  0.00  0.00    -0.285 N 
ATOM     17  C   UNL     1       3.433   0.318  -3.898  0.00  0.00    +0.211 C 
ATOM     18  O   UNL     1       2.487   0.584  -3.187  0.00  0.00    -0.277 OA
ATOM     19 CL   UNL     1       5.236  -3.545  -5.446  0.00  0.00    -0.082 Cl
ATOM     20  H   UNL     1       3.402  -1.732  -3.997  0.00  0.00    +0.155 HD
ATOM     21  N   UNL     1       3.671   2.237  -5.387  0.00  0.00    +0.394 N 
ATOM     22  H   UNL     1       4.311   2.643  -6.080  0.00  0.00    -0.083 HD
ATOM     23  H   UNL     1       2.898   1.765  -5.871  0.00  0.00    -0.083 HD
ENDROOT
BRANCH   1  24
ATOM     24  C   UNL     1       3.671   2.186  -0.023  0.00  0.00    +0.151 C 
BRANCH  24  28
ATOM     25  C   UNL     1       0.002  -0.004   0.002  0.00  0.00    +0.120 A 
ATOM     26  C   UNL     1      -0.017   1.383   0.010  0.00  0.00    +0.046 A 
ATOM     27  C   UNL     1       1.171   2.089   0.002  0.00  0.00    +0.009 A 
ATOM     28  C   UNL     1       2.377   1.414  -0.013  0.00  0.00    -0.029 A 
ATOM     29  C   UNL     1       2.399   0.031  -0.021  0.00  0.00    +0.009 A 
ATOM     30  C   UNL     1       1.214  -0.679  -0.013  0.00  0.00    +0.046 A 
BRANCH  25  32
ATOM     31  C   UNL     1      -1.069  -2.126   0.001  0.00  0.00    +0.277 C 
ATOM     32  O   UNL     1      -1.165  -0.701   0.010  0.00  0.00    -0.495 OA
ENDBRANCH  25  32
ENDBRANCH  24  28
ENDBRANCH   1  24
BRANCH   5  33
ATOM     33  C   UNL     1       2.886   4.596  -5.262  0.00  0.00    +0.080 C 
BRANCH  33  34
ATOM     34  C   UNL     1       1.691   4.418  -6.164  0.00  0.00    +0.209 C 
ATOM     35  O   UNL     1       1.104   3.358  -6.189  0.00  0.00    -0.276 OA
ATOM     36  N   UNL     1       1.276   5.438  -6.941  0.00  0.00    -0.329 N 
ATOM     37  H   UNL     1       1.746   6.286  -6.921  0.00  0.00    +0.145 HD
ATOM     38  H   UNL     1       0.507   5.323  -7.521  0.00  0.00    +0.145 HD
ENDBRANCH  33  34
ENDBRANCH   5  33
TORSDOF 5
