REMARK  Name = ZINC62824765
REMARK  7 active torsions:
REMARK  status: ('A' for Active; 'I' for Inactive)
REMARK    1  A    between atoms: C_1  and  N_2
REMARK    2  A    between atoms: N_2  and  C_3
REMARK    3  A    between atoms: C_3  and  C_4
REMARK    4  A    between atoms: C_4  and  C_5
REMARK    5  A    between atoms: C_5  and  N_6
REMARK    6  A    between atoms: N_9  and  C_10
REMARK    7  A    between atoms: C_15  and  C_16
REMARK                            x       y       z     vdW  Elec       q    Type
REMARK                         _______ _______ _______ _____ _____    ______ ____
ROOT
ATOM      1  N   UNL     1       1.461  -4.004   2.423  0.00  0.00    -0.299 N 
ATOM      2  C   UNL     1       2.079  -4.671   3.418  0.00  0.00    +0.304 C 
ATOM      3  O   UNL     1       2.617  -4.058   4.319  0.00  0.00    -0.253 OA
ATOM      4  N   UNL     1       2.101  -6.019   3.413  0.00  0.00    -0.269 N 
ATOM      5  H   UNL     1       1.032  -4.494   1.704  0.00  0.00    +0.150 HD
ATOM      6  H   UNL     1       1.617  -6.510   2.730  0.00  0.00    +0.156 HD
ENDROOT
BRANCH   4   7
ATOM      7  C   UNL     1       2.817  -6.707   4.388  0.00  0.00    +0.049 A 
ATOM      8  C   UNL     1       2.888  -6.210   5.683  0.00  0.00    +0.025 A 
ATOM      9  C   UNL     1       3.598  -6.893   6.648  0.00  0.00    +0.016 A 
ATOM     10  C   UNL     1       4.247  -8.079   6.336  0.00  0.00    +0.014 A 
ATOM     11  C   UNL     1       4.189  -8.588   5.057  0.00  0.00    +0.031 A 
ATOM     12  C   UNL     1       3.468  -7.910   4.069  0.00  0.00    +0.085 A 
ATOM     13  I   UNL     1       5.321  -9.100   7.817  0.00  0.00    -0.044 I 
BRANCH  12  14
ATOM     14  C   UNL     1       3.397  -8.450   2.702  0.00  0.00    +0.388 C 
ATOM     15  O   UNL     1       3.881  -9.545   2.451  0.00  0.00    -0.241 OA
ATOM     16  O   UNL     1       2.853  -7.804   1.817  0.00  0.00    -0.241 OA
ENDBRANCH  12  14
ENDBRANCH   4   7
BRANCH   1  17
ATOM     17  C   UNL     1       1.437  -2.539   2.429  0.00  0.00    +0.104 C 
BRANCH  17  18
ATOM     18  C   UNL     1       0.678  -2.037   1.198  0.00  0.00    -0.000 C 
BRANCH  18  19
ATOM     19  C   UNL     1       0.654  -0.507   1.204  0.00  0.00    -0.081 C 
BRANCH  19  21
ATOM     20  C   UNL     1      -0.099   1.444   0.028  0.00  0.00    -0.101 C 
ATOM     21  N   UNL     1      -0.075  -0.025   0.023  0.00  0.00    +0.377 N 
ATOM     22  H   UNL     1      -1.020  -0.377   0.044  0.00  0.00    -0.086 HD
ATOM     23  H   UNL     1       0.386  -0.351  -0.813  0.00  0.00    -0.086 HD
ENDBRANCH  19  21
ENDBRANCH  18  19
ENDBRANCH  17  18
ENDBRANCH   1  17
TORSDOF 6
