REMARK  Name = ZINC11173218
REMARK  5 active torsions:
REMARK  status: ('A' for Active; 'I' for Inactive)
REMARK    1  A    between atoms: C_1  and  S_2
REMARK    2  A    between atoms: S_2  and  C_5
REMARK    3  A    between atoms: C_8  and  N_14
REMARK    4  A    between atoms: C_9  and  N_11
REMARK    5  A    between atoms: C_17  and  C_20
REMARK                            x       y       z     vdW  Elec       q    Type
REMARK                         _______ _______ _______ _____ _____    ______ ____
ROOT
ATOM      1  C   UNL     1       0.002  -0.004   0.002  0.00  0.00    +0.090 A 
ATOM      2  C   UNL     1       1.207  -0.682  -0.013  0.00  0.00    +0.029 A 
ATOM      3  C   UNL     1       2.396   0.020  -0.020  0.00  0.00    +0.027 A 
ATOM      4  C   UNL     1       2.381   1.409  -0.013  0.00  0.00    +0.060 A 
ATOM      5  C   UNL     1       1.169   2.087   0.002  0.00  0.00    +0.149 A 
ATOM      6  C   UNL     1      -0.017   1.378   0.010  0.00  0.00    +0.061 A 
ENDROOT
BRANCH   4   7
ATOM      7  N   UNL     1       3.582   2.122  -0.019  0.00  0.00    -0.331 N 
ATOM      8  C   UNL     1       4.353   1.866   1.205  0.00  0.00    +0.086 C 
ATOM      9  C   UNL     1       5.620   2.725   1.196  0.00  0.00    -0.062 C 
ATOM     10  C   UNL     1       5.644   2.663  -1.224  0.00  0.00    +0.033 C 
ATOM     11  C   UNL     1       4.376   1.805  -1.214  0.00  0.00    +0.098 C 
ATOM     12  N   UNL     1       6.424   2.404   0.001  0.00  0.00    +0.389 N 
ATOM     13  H   UNL     1       6.692   1.413   0.029  0.00  0.00    -0.085 HD
ATOM     14  H   UNL     1       7.269   2.987  -0.006  0.00  0.00    -0.085 HD
BRANCH  10  15
ATOM     15  C   UNL     1       6.480   2.311  -2.428  0.00  0.00    +0.198 C 
ATOM     16  O   UNL     1       7.432   1.570  -2.308  0.00  0.00    -0.278 OA
ATOM     17  N   UNL     1       6.169   2.820  -3.636  0.00  0.00    -0.331 N 
ATOM     18  H   UNL     1       5.407   3.413  -3.731  0.00  0.00    +0.145 HD
ATOM     19  H   UNL     1       6.707   2.594  -4.411  0.00  0.00    +0.145 HD
ENDBRANCH  10  15
ENDBRANCH   4   7
BRANCH   1  21
ATOM     20  C   UNL     1      -1.931  -1.132  -1.738  0.00  0.00    +0.200 C 
ATOM     21  S   UNL     1      -1.513  -0.904   0.012  0.00  0.00    -0.006 S 
ATOM     22  O   UNL     1      -1.188  -2.154   0.605  0.00  0.00    -0.170 OA
ATOM     23  O   UNL     1      -2.449  -0.031   0.629  0.00  0.00    -0.170 OA
ENDBRANCH   1  21
BRANCH   5  24
ATOM     24  N   UNL     1       1.148   3.567   0.010  0.00  0.00    +0.058 N 
ATOM     25  O   UNL     1       0.085   4.161   0.023  0.00  0.00    -0.126 OA
ATOM     26  O   UNL     1       2.194   4.191   0.003  0.00  0.00    -0.126 OA
ENDBRANCH   5  24
TORSDOF 4
