REMARK  Name = ZINC52094674
REMARK  6 active torsions:
REMARK  status: ('A' for Active; 'I' for Inactive)
REMARK    1  A    between atoms: C_1  and  C_2
REMARK    2  A    between atoms: C_2  and  C_3
REMARK    3  A    between atoms: C_3  and  N_4
REMARK    4  A    between atoms: N_4  and  C_5
REMARK    5  A    between atoms: C_5  and  C_7
REMARK    6  A    between atoms: C_5  and  C_12
REMARK                            x       y       z     vdW  Elec       q    Type
REMARK                         _______ _______ _______ _____ _____    ______ ____
ROOT
ATOM      1  C   UNL     1       1.555  -3.941  -2.422  0.00  0.00    -0.041 A 
ATOM      2  C   UNL     1       0.658  -4.683  -1.679  0.00  0.00    +0.031 A 
ATOM      3  C   UNL     1       0.777  -6.064  -1.632  0.00  0.00    +0.067 A 
ATOM      4  C   UNL     1       1.802  -6.698  -2.336  0.00  0.00    +0.068 A 
ATOM      5  C   UNL     1       2.698  -5.945  -3.080  0.00  0.00    +0.043 A 
ATOM      6  C   UNL     1       2.568  -4.570  -3.126  0.00  0.00    +0.022 A 
ATOM      7 BR   UNL     1       3.784  -3.543  -4.147  0.00  0.00    -0.050 Br
ATOM      8  N   UNL     1       1.667  -8.064  -2.101  0.00  0.00    -0.306 N 
ATOM      9  H   UNL     1       2.238  -8.761  -2.459  0.00  0.00    +0.170 HD
ATOM     10  C   UNL     1       0.609  -8.252  -1.290  0.00  0.00    +0.325 A 
ATOM     11  O   UNL     1       0.216  -9.332  -0.889  0.00  0.00    -0.247 OA
ATOM     12  N   UNL     1       0.051  -7.064  -0.990  0.00  0.00    -0.306 N 
ATOM     13  H   UNL     1      -0.725  -6.928  -0.423  0.00  0.00    +0.170 HD
ENDROOT
BRANCH   1  14
ATOM     14  C   UNL     1       1.426  -2.440  -2.474  0.00  0.00    -0.006 C 
BRANCH  14  15
ATOM     15  C   UNL     1       0.630  -2.045  -3.691  0.00  0.00    -0.019 A 
ATOM     16  C   UNL     1       1.149  -1.579  -4.921  0.00  0.00    +0.043 A 
ATOM     17  C   UNL     1       0.095  -1.347  -5.725  0.00  0.00    +0.195 A 
ATOM     18  O   UNL     1      -1.027  -1.646  -5.050  0.00  0.00    -0.471 OA
ATOM     19  C   UNL     1      -0.708  -2.075  -3.818  0.00  0.00    +0.197 A 
ENDBRANCH  14  15
BRANCH  14  20
ATOM     20  N   UNL     1       0.738  -1.966  -1.265  0.00  0.00    +0.386 N 
ATOM     21  H   UNL     1       1.226  -2.301  -0.447  0.00  0.00    -0.085 HD
ATOM     22  H   UNL     1      -0.208  -2.316  -1.258  0.00  0.00    -0.085 HD
BRANCH  20  23
ATOM     23  C   UNL     1       0.718  -0.497  -1.257  0.00  0.00    -0.082 C 
BRANCH  23  25
ATOM     24  C   UNL     1      -0.019   1.526   0.010  0.00  0.00    +0.002 C 
ATOM     25  C   UNL     1       0.002  -0.004   0.002  0.00  0.00    -0.022 C 
ENDBRANCH  23  25
ENDBRANCH  20  23
ENDBRANCH  14  20
ENDBRANCH   1  14
TORSDOF 5
