REMARK  Name = ZINC05358019
REMARK  17 active torsions:
REMARK  status: ('A' for Active; 'I' for Inactive)
REMARK    1  A    between atoms: C_1  and  O_2
REMARK    2  A    between atoms: O_2  and  C_3
REMARK    3  A    between atoms: C_5  and  C_10
REMARK    4  A    between atoms: C_6  and  O_9
REMARK    5  A    between atoms: N_11  and  C_12
REMARK    6  A    between atoms: C_12  and  C_13
REMARK    7  A    between atoms: C_13  and  O_14
REMARK    8  A    between atoms: O_14  and  C_15
REMARK    9  A    between atoms: C_15  and  C_16
REMARK   10  A    between atoms: C_16  and  O_17
REMARK   11  A    between atoms: O_17  and  C_18
REMARK   12  A    between atoms: C_18  and  C_19
REMARK   13  A    between atoms: C_19  and  N_20
REMARK   14  A    between atoms: C_21  and  C_22
REMARK   15  A    between atoms: C_23  and  O_30
REMARK   16  A    between atoms: C_26  and  O_28
REMARK   17  A    between atoms: O_28  and  C_29
REMARK                            x       y       z     vdW  Elec       q    Type
REMARK                         _______ _______ _______ _____ _____    ______ ____
ROOT
ATOM      1  C   UNL     1       7.372  -5.518  -4.944  0.00  0.00    +0.188 C 
ENDROOT
BRANCH   1   2
ATOM      2  O   UNL     1       6.163  -5.737  -4.212  0.00  0.00    -0.376 OA
BRANCH   2   3
ATOM      3  C   UNL     1       5.592  -4.547  -3.665  0.00  0.00    +0.180 C 
BRANCH   3   4
ATOM      4  C   UNL     1       4.310  -4.899  -2.908  0.00  0.00    +0.140 C 
BRANCH   4   6
ATOM      5  C   UNL     1       4.405  -5.309  -0.554  0.00  0.00    +0.090 C 
ATOM      6  N   UNL     1       4.640  -5.737  -1.752  0.00  0.00    -0.387 N 
ATOM      7  H   UNL     1       5.034  -6.613  -1.886  0.00  0.00    +0.159 HD
BRANCH   5  10
ATOM      8  C   UNL     1       4.180  -1.581  -0.952  0.00  0.00    +0.121 A 
ATOM      9  C   UNL     1       4.540  -2.900  -1.162  0.00  0.00    +0.058 A 
ATOM     10  C   UNL     1       4.026  -3.901  -0.335  0.00  0.00    +0.035 A 
ATOM     11  C   UNL     1       3.148  -3.561   0.703  0.00  0.00    +0.126 A 
ATOM     12  C   UNL     1       2.796  -2.236   0.901  0.00  0.00    +0.049 A 
ATOM     13  C   UNL     1       3.314  -1.250   0.083  0.00  0.00    +0.049 A 
BRANCH   8  15
ATOM     14  C   UNL     1       4.271   0.736  -1.479  0.00  0.00    +0.277 C 
ATOM     15  O   UNL     1       4.680  -0.605  -1.756  0.00  0.00    -0.495 OA
ENDBRANCH   8  15
BRANCH  11  16
ATOM     16  O   UNL     1       2.643  -4.528   1.511  0.00  0.00    -0.506 OA
ATOM     17  H   UNL     1       3.140  -4.655   2.330  0.00  0.00    +0.292 HD
ENDBRANCH  11  16
ENDBRANCH   5  10
ENDBRANCH   4   6
ENDBRANCH   3   4
ENDBRANCH   2   3
ENDBRANCH   1   2
BRANCH   1  18
ATOM     18  C   UNL     1       7.891  -6.853  -5.481  0.00  0.00    +0.188 C 
BRANCH  18  19
ATOM     19  O   UNL     1       6.963  -7.378  -6.432  0.00  0.00    -0.376 OA
BRANCH  19  20
ATOM     20  C   UNL     1       7.356  -8.630  -6.997  0.00  0.00    +0.180 C 
BRANCH  20  21
ATOM     21  C   UNL     1       6.294  -9.094  -7.997  0.00  0.00    +0.140 C 
BRANCH  21  22
ATOM     22  N   UNL     1       6.242  -8.159  -9.123  0.00  0.00    -0.387 N 
ATOM     23  C   UNL     1       6.359  -8.599 -10.335  0.00  0.00    +0.090 C 
ATOM     24  H   UNL     1       6.120  -7.211  -8.961  0.00  0.00    +0.159 HD
BRANCH  23  25
ATOM     25  C   UNL     1       6.126 -10.025 -10.627  0.00  0.00    +0.035 A 
ATOM     26  C   UNL     1       6.870 -10.670 -11.625  0.00  0.00    +0.126 A 
ATOM     27  C   UNL     1       6.646 -12.011 -11.893  0.00  0.00    +0.049 A 
ATOM     28  C   UNL     1       5.692 -12.711 -11.181  0.00  0.00    +0.049 A 
ATOM     29  C   UNL     1       4.951 -12.078 -10.190  0.00  0.00    +0.121 A 
ATOM     30  C   UNL     1       5.168 -10.742  -9.907  0.00  0.00    +0.058 A 
BRANCH  29  31
ATOM     31  O   UNL     1       4.014 -12.775  -9.494  0.00  0.00    -0.495 OA
ATOM     32  C   UNL     1       3.845 -14.153  -9.835  0.00  0.00    +0.277 C 
ENDBRANCH  29  31
BRANCH  26  33
ATOM     33  O   UNL     1       7.807  -9.982 -12.327  0.00  0.00    -0.506 OA
ATOM     34  H   UNL     1       8.704 -10.068 -11.975  0.00  0.00    +0.292 HD
ENDBRANCH  26  33
ENDBRANCH  23  25
ENDBRANCH  21  22
ENDBRANCH  20  21
ENDBRANCH  19  20
ENDBRANCH  18  19
ENDBRANCH   1  18
TORSDOF 15
