REMARK  Name = ZINC48085147
REMARK  5 active torsions:
REMARK  status: ('A' for Active; 'I' for Inactive)
REMARK    1  A    between atoms: C_3  and  N_24
REMARK    2  A    between atoms: C_6  and  N_7
REMARK    3  A    between atoms: N_10  and  C_11
REMARK    4  A    between atoms: C_11  and  C_12
REMARK    5  A    between atoms: N_14  and  C_15
REMARK                            x       y       z     vdW  Elec       q    Type
REMARK                         _______ _______ _______ _____ _____    ______ ____
ROOT
ATOM      1  N   UNL     1      -1.195  -0.728  -0.029  0.00  0.00    -0.268 N 
ATOM      2  C   UNL     1      -1.171  -2.071  -0.136  0.00  0.00    +0.304 C 
ATOM      3  O   UNL     1      -0.107  -2.660  -0.160  0.00  0.00    -0.252 OA
ATOM      4  N   UNL     1      -2.325  -2.762  -0.216  0.00  0.00    -0.291 N 
ATOM      5  H   UNL     1      -2.041  -0.264   0.071  0.00  0.00    +0.156 HD
ATOM      6  H   UNL     1      -3.174  -2.292  -0.197  0.00  0.00    +0.151 HD
ENDROOT
BRANCH   1  12
ATOM      7  C   UNL     1       1.123  -0.516  -0.714  0.00  0.00    +0.028 A 
ATOM      8  C   UNL     1       2.284   0.236  -0.724  0.00  0.00    +0.043 A 
ATOM      9  C   UNL     1       2.295   1.473  -0.089  0.00  0.00    +0.099 A 
ATOM     10  N   UNL     1       1.212   1.932   0.518  0.00  0.00    -0.348 N 
ATOM     11  C   UNL     1       0.089   1.241   0.547  0.00  0.00    +0.107 A 
ATOM     12  C   UNL     1       0.004  -0.000  -0.064  0.00  0.00    +0.051 A 
ATOM     13  H   UNL     1       1.246   2.798   0.953  0.00  0.00    +0.167 HD
BRANCH   9  14
ATOM     14  N   UNL     1       3.459   2.239  -0.094  0.00  0.00    -0.317 N 
ATOM     15  C   UNL     1       4.729   1.862  -0.730  0.00  0.00    +0.106 C 
ATOM     16  C   UNL     1       5.735   3.000  -0.454  0.00  0.00    +0.020 C 
ATOM     17  C   UNL     1       5.141   3.691   0.802  0.00  0.00    +0.020 C 
ATOM     18  C   UNL     1       3.618   3.563   0.534  0.00  0.00    +0.106 C 
ENDBRANCH   9  14
ENDBRANCH   1  12
BRANCH   4  19
ATOM     19  C   UNL     1      -2.300  -4.222  -0.333  0.00  0.00    +0.202 C 
BRANCH  19  20
ATOM     20  C   UNL     1      -3.711  -4.745  -0.405  0.00  0.00    +0.234 C 
ATOM     21  O   UNL     1      -4.646  -3.974  -0.364  0.00  0.00    -0.274 OA
ATOM     22  N   UNL     1      -3.933  -6.070  -0.516  0.00  0.00    -0.282 N 
ATOM     23  H   UNL     1      -3.191  -6.692  -0.466  0.00  0.00    +0.155 HD
BRANCH  22  24
ATOM     24  C   UNL     1      -5.237  -6.548  -0.703  0.00  0.00    +0.072 A 
ATOM     25  C   UNL     1      -6.202  -5.730  -1.276  0.00  0.00    +0.029 A 
ATOM     26  C   UNL     1      -7.487  -6.202  -1.460  0.00  0.00    +0.043 A 
ATOM     27  C   UNL     1      -7.816  -7.490  -1.075  0.00  0.00    +0.161 A 
ATOM     28  C   UNL     1      -6.856  -8.311  -0.502  0.00  0.00    +0.195 A 
ATOM     29  C   UNL     1      -5.565  -7.843  -0.321  0.00  0.00    +0.182 A 
ATOM     30  F   UNL     1      -4.627  -8.644   0.230  0.00  0.00    -0.200 F 
ATOM     31  F   UNL     1      -7.179  -9.568  -0.126  0.00  0.00    -0.199 F 
ATOM     32  F   UNL     1      -9.074  -7.948  -1.256  0.00  0.00    -0.202 F 
ENDBRANCH  22  24
ENDBRANCH  19  20
ENDBRANCH   4  19
TORSDOF 5
