REMARK  Name = ZINC16610413
REMARK  13 active torsions:
REMARK  status: ('A' for Active; 'I' for Inactive)
REMARK    1  A    between atoms: C_1  and  C_2
REMARK    2  A    between atoms: C_2  and  N_3
REMARK    3  A    between atoms: C_4  and  C_35
REMARK    4  A    between atoms: C_5  and  C_30
REMARK    5  A    between atoms: C_6  and  C_11
REMARK    6  A    between atoms: C_14  and  N_17
REMARK    7  A    between atoms: N_20  and  C_21
REMARK    8  A    between atoms: C_24  and  C_27
REMARK    9  A    between atoms: C_27  and  C_28
REMARK   10  A    between atoms: C_27  and  C_29
REMARK   11  A    between atoms: C_30  and  O_32
REMARK   12  A    between atoms: O_32  and  C_33
REMARK   13  A    between atoms: C_33  and  C_34
REMARK                            x       y       z     vdW  Elec       q    Type
REMARK                         _______ _______ _______ _____ _____    ______ ____
ROOT
ATOM      1  C   UNL     1      -0.501   2.688  -0.180  0.00  0.00    -0.022 A 
ATOM      2  C   UNL     1       0.064   2.874   1.069  0.00  0.00    +0.007 A 
ATOM      3  C   UNL     1      -0.737   3.179   2.152  0.00  0.00    +0.024 A 
ATOM      4  C   UNL     1      -2.111   3.290   1.988  0.00  0.00    +0.035 A 
ATOM      5  C   UNL     1      -2.676   3.098   0.734  0.00  0.00    +0.024 A 
ATOM      6  C   UNL     1      -1.869   2.798  -0.346  0.00  0.00    +0.007 A 
ENDROOT
BRANCH   1  10
ATOM      7  N   UNL     1       2.994   1.474  -1.256  0.00  0.00    -0.286 N 
ATOM      8  C   UNL     1       2.009   0.530  -1.254  0.00  0.00    +0.021 C 
ATOM      9  C   UNL     1       0.705   0.882  -1.301  0.00  0.00    +0.078 C 
ATOM     10  C   UNL     1       0.376   2.360  -1.360  0.00  0.00    +0.141 C 
ATOM     11  N   UNL     1       1.512   3.297  -1.351  0.00  0.00    -0.315 N 
ATOM     12  C   UNL     1       2.760   2.791  -1.302  0.00  0.00    +0.138 C 
ATOM     13  S   UNL     1       4.091   3.869  -1.296  0.00  0.00    -0.018 S 
ATOM     14  C   UNL     1       2.381  -0.930  -1.200  0.00  0.00    +0.061 C 
ATOM     15  H   UNL     1       1.365   4.255  -1.384  0.00  0.00    +0.149 HD
BRANCH   7  17
ATOM     16  C   UNL     1       4.862   0.672  -2.616  0.00  0.00    +0.025 C 
ATOM     17  C   UNL     1       4.386   1.020  -1.204  0.00  0.00    +0.109 C 
ENDBRANCH   7  17
BRANCH   9  18
ATOM     18  C   UNL     1      -0.317  -0.095  -1.301  0.00  0.00    +0.339 C 
ATOM     19  O   UNL     1      -0.029  -1.277  -1.345  0.00  0.00    -0.245 OA
BRANCH  18  20
ATOM     20  O   UNL     1      -1.611   0.282  -1.257  0.00  0.00    -0.462 OA
BRANCH  20  21
ATOM     21  C   UNL     1      -2.591  -0.758  -1.265  0.00  0.00    +0.229 C 
ATOM     22  C   UNL     1      -3.990  -0.141  -1.211  0.00  0.00    +0.048 C 
ENDBRANCH  20  21
ENDBRANCH  18  20
ENDBRANCH   9  18
ENDBRANCH   1  10
BRANCH   4  23
ATOM     23  N   UNL     1      -2.926   3.594   3.085  0.00  0.00    -0.269 N 
ATOM     24  C   UNL     1      -4.015   4.371   2.920  0.00  0.00    +0.308 C 
ATOM     25  O   UNL     1      -4.338   4.736   1.806  0.00  0.00    -0.252 OA
ATOM     26  N   UNL     1      -4.746   4.742   3.990  0.00  0.00    -0.269 N 
ATOM     27  H   UNL     1      -2.707   3.246   3.963  0.00  0.00    +0.156 HD
ATOM     28  H   UNL     1      -4.453   4.504   4.883  0.00  0.00    +0.156 HD
BRANCH  26  29
ATOM     29  C   UNL     1      -5.928   5.470   3.811  0.00  0.00    +0.035 A 
ATOM     30  C   UNL     1      -6.011   6.425   2.807  0.00  0.00    +0.023 A 
ATOM     31  C   UNL     1      -7.180   7.139   2.630  0.00  0.00    +0.006 A 
ATOM     32  C   UNL     1      -8.263   6.911   3.459  0.00  0.00    -0.045 A 
ATOM     33  C   UNL     1      -8.181   5.964   4.463  0.00  0.00    +0.006 A 
ATOM     34  C   UNL     1      -7.017   5.243   4.642  0.00  0.00    +0.023 A 
BRANCH  32  35
ATOM     35  C   UNL     1      -9.536   7.696   3.267  0.00  0.00    +0.013 C 
ATOM     36  C   UNL     1      -9.245   9.188   3.439  0.00  0.00    +0.012 C 
ATOM     37  C   UNL     1     -10.084   7.441   1.862  0.00  0.00    +0.012 C 
ENDBRANCH  32  35
ENDBRANCH  26  29
ENDBRANCH   4  23
TORSDOF 8
