REMARK  Name = ZINC40177489
REMARK  7 active torsions:
REMARK  status: ('A' for Active; 'I' for Inactive)
REMARK    1  A    between atoms: C_7  and  N_9
REMARK    2  A    between atoms: N_9  and  C_10
REMARK    3  A    between atoms: C_12  and  O_25
REMARK    4  A    between atoms: C_14  and  O_24
REMARK    5  A    between atoms: C_16  and  C_22
REMARK    6  A    between atoms: C_19  and  O_21
REMARK    7  A    between atoms: C_22  and  O_23
REMARK                            x       y       z     vdW  Elec       q    Type
REMARK                         _______ _______ _______ _____ _____    ______ ____
ROOT
ATOM      1  C   UNL     1      -1.343  -1.982  -0.182  0.00  0.00    +0.017 C 
ATOM      2  C   UNL     1      -2.710  -2.527  -0.608  0.00  0.00    +0.136 C 
ATOM      3  C   UNL     1      -2.725  -4.046  -0.414  0.00  0.00    +0.172 C 
ATOM      4  C   UNL     1      -2.399  -4.370   1.047  0.00  0.00    +0.177 C 
ATOM      5  O   UNL     1      -1.129  -3.808   1.386  0.00  0.00    -0.345 OA
ATOM      6  C   UNL     1      -1.069  -2.385   1.269  0.00  0.00    +0.236 C 
ENDROOT
BRANCH   1   7
ATOM      7  N   UNL     1      -1.343  -0.517  -0.293  0.00  0.00    +0.389 N 
ATOM      8  H   UNL     1      -2.002  -0.129   0.364  0.00  0.00    -0.085 HD
ATOM      9  H   UNL     1      -1.606  -0.250  -1.230  0.00  0.00    -0.085 HD
BRANCH   7  16
ATOM     10  C   UNL     1      -0.019   1.534   0.011  0.00  0.00    +0.008 C 
ATOM     11  C   UNL     1       1.429   2.081  -0.000  0.00  0.00    +0.164 C 
ATOM     12  S   UNL     1       2.358   0.748  -0.862  0.00  0.00    -0.033 S 
ATOM     13  O   UNL     1       3.316   0.199   0.034  0.00  0.00    -0.174 OA
ATOM     14  O   UNL     1       2.781   1.225  -2.131  0.00  0.00    -0.174 OA
ATOM     15  C   UNL     1       0.996  -0.469  -1.101  0.00  0.00    +0.150 C 
ATOM     16  C   UNL     1       0.002  -0.004   0.002  0.00  0.00    -0.048 C 
ENDBRANCH   7  16
ENDBRANCH   1   7
BRANCH   6  17
ATOM     17  O   UNL     1      -2.054  -1.796   2.121  0.00  0.00    -0.368 OA
ATOM     18  H   UNL     1      -1.942  -2.010   3.058  0.00  0.00    +0.212 HD
ENDBRANCH   6  17
BRANCH   3  19
ATOM     19  O   UNL     1      -4.019  -4.557  -0.740  0.00  0.00    -0.387 OA
ATOM     20  H   UNL     1      -4.100  -5.515  -0.640  0.00  0.00    +0.210 HD
ENDBRANCH   3  19
BRANCH   2  21
ATOM     21  O   UNL     1      -2.942  -2.216  -1.983  0.00  0.00    -0.391 OA
ATOM     22  H   UNL     1      -3.791  -2.532  -2.320  0.00  0.00    +0.210 HD
ENDBRANCH   2  21
BRANCH   4  23
ATOM     23  C   UNL     1      -2.353  -5.887   1.235  0.00  0.00    +0.190 C 
BRANCH  23  24
ATOM     24  O   UNL     1      -2.164  -6.190   2.619  0.00  0.00    -0.392 OA
ATOM     25  H   UNL     1      -2.125  -7.136   2.813  0.00  0.00    +0.210 HD
ENDBRANCH  23  24
ENDBRANCH   4  23
TORSDOF 7
