REMARK  Name = ZINC11105175
REMARK  8 active torsions:
REMARK  status: ('A' for Active; 'I' for Inactive)
REMARK    1  A    between atoms: C_1  and  C_2
REMARK    2  A    between atoms: C_2  and  C_4
REMARK    3  A    between atoms: C_2  and  N_53
REMARK    4  A    between atoms: N_6  and  C_7
REMARK    5  A    between atoms: C_8  and  C_15
REMARK    6  A    between atoms: C_20  and  N_23
REMARK    7  A    between atoms: N_23  and  S_24
REMARK    8  A    between atoms: S_24  and  C_27
REMARK                            x       y       z     vdW  Elec       q    Type
REMARK                         _______ _______ _______ _____ _____    ______ ____
ROOT
ATOM      1  C   UNL     1      -5.925   2.245   2.174  0.00  0.00    +0.204 C 
ATOM      2  O   UNL     1      -5.199   1.799   3.037  0.00  0.00    -0.277 OA
ATOM      3  N   UNL     1      -7.148   2.713   2.498  0.00  0.00    -0.281 N 
ATOM      4  H   UNL     1      -7.728   3.070   1.808  0.00  0.00    +0.155 HD
ENDROOT
BRANCH   3   5
ATOM      5  C   UNL     1      -7.575   2.683   3.816  0.00  0.00    +0.084 A 
ATOM      6  C   UNL     1      -8.780   3.117   4.340  0.00  0.00    +0.068 A 
ATOM      7  C   UNL     1      -8.986   2.967   5.780  0.00  0.00    -0.023 A 
ATOM      8  C   UNL     1      -7.955   2.421   6.451  0.00  0.00    -0.004 A 
ATOM      9  S   UNL     1      -6.728   2.100   5.208  0.00  0.00    -0.077 S 
ATOM     10  C   UNL     1      -8.240   2.303   7.924  0.00  0.00    +0.043 C 
ATOM     11  C   UNL     1      -9.773   2.454   8.037  0.00  0.00    +0.010 C 
ATOM     12  C   UNL     1     -10.101   3.282   6.779  0.00  0.00    +0.037 C 
BRANCH   6  13
ATOM     13  C   UNL     1      -9.815   3.702   3.482  0.00  0.00    +0.244 C 
ATOM     14  O   UNL     1     -10.657   2.987   2.970  0.00  0.00    -0.270 OA
ATOM     15  N   UNL     1      -9.834   5.031   3.259  0.00  0.00    -0.325 N 
ATOM     16  H   UNL     1      -9.162   5.600   3.667  0.00  0.00    +0.145 HD
ATOM     17  H   UNL     1     -10.518   5.418   2.691  0.00  0.00    +0.145 HD
ENDBRANCH   6  13
ENDBRANCH   3   5
BRANCH   1  19
ATOM     18  C   UNL     1      -5.448   3.725   0.242  0.00  0.00    -0.004 C 
ATOM     19  C   UNL     1      -5.461   2.278   0.741  0.00  0.00    +0.016 C 
BRANCH  19  25
ATOM     20  C   UNL     1      -3.666   1.623  -0.746  0.00  0.00    -0.076 C 
ATOM     21  C   UNL     1      -2.317   0.904  -0.810  0.00  0.00    +0.002 C 
ATOM     22  C   UNL     1      -1.290   1.681   0.017  0.00  0.00    +0.073 C 
ATOM     23  C   UNL     1      -1.795   1.806   1.457  0.00  0.00    +0.002 C 
ATOM     24  C   UNL     1      -3.159   2.500   1.456  0.00  0.00    -0.076 C 
ATOM     25  N   UNL     1      -4.108   1.689   0.663  0.00  0.00    +0.387 N 
ATOM     26  H   UNL     1      -4.136   0.738   1.049  0.00  0.00    -0.081 HD
BRANCH  22  27
ATOM     27  N   UNL     1      -0.011   0.966   0.007  0.00  0.00    -0.192 NA
ATOM     28  H   UNL     1       0.002  -0.004   0.002  0.00  0.00    +0.148 HD
BRANCH  27  29
ATOM     29  S   UNL     1       1.412   1.813  -0.002  0.00  0.00    +0.027 S 
ATOM     30  O   UNL     1       2.426   0.819  -0.041  0.00  0.00    -0.158 OA
ATOM     31  O   UNL     1       1.271   2.747  -1.063  0.00  0.00    -0.158 OA
ATOM     32  C   UNL     1       1.448   2.680   1.591  0.00  0.00    +0.214 C 
ENDBRANCH  27  29
ENDBRANCH  22  27
ENDBRANCH  19  25
ENDBRANCH   1  19
TORSDOF 6
