REMARK  Name = ZINC39324541
REMARK  15 active torsions:
REMARK  status: ('A' for Active; 'I' for Inactive)
REMARK    1  A    between atoms: C_1  and  C_2
REMARK    2  A    between atoms: C_2  and  C_3
REMARK    3  A    between atoms: C_2  and  N_4
REMARK    4  A    between atoms: C_7  and  C_8
REMARK    5  A    between atoms: C_11  and  O_16
REMARK    6  A    between atoms: C_12  and  O_14
REMARK    7  A    between atoms: O_14  and  C_15
REMARK    8  A    between atoms: O_16  and  C_17
REMARK    9  A    between atoms: C_21  and  C_29
REMARK   10  A    between atoms: C_23  and  C_27
REMARK   11  A    between atoms: C_24  and  N_26
REMARK   12  A    between atoms: C_32  and  O_37
REMARK   13  A    between atoms: C_33  and  O_35
REMARK   14  A    between atoms: O_35  and  C_36
REMARK   15  A    between atoms: O_37  and  C_38
REMARK                            x       y       z     vdW  Elec       q    Type
REMARK                         _______ _______ _______ _____ _____    ______ ____
ROOT
ATOM      1  N   UNL     1      -1.557  -0.279  -0.425  0.00  0.00    -0.292 NA
ATOM      2  C   UNL     1      -2.120   0.107   0.882  0.00  0.00    +0.124 C 
ATOM      3  C   UNL     1      -3.539  -0.419   0.924  0.00  0.00    +0.010 C 
ATOM      4  C   UNL     1      -4.540   0.314   1.444  0.00  0.00    +0.016 C 
ATOM      5  C   UNL     1      -3.784  -1.768   0.373  0.00  0.00    +0.136 C 
ATOM      6  C   UNL     1      -2.823  -2.383  -0.318  0.00  0.00    -0.001 C 
ATOM      7  C   UNL     1      -1.481  -1.736  -0.545  0.00  0.00    +0.120 C 
ATOM      8  C   UNL     1      -3.060  -3.758  -0.896  0.00  0.00    +0.095 C 
ATOM      9  C   UNL     1      -4.230  -4.415  -0.221  0.00  0.00    +0.098 C 
ATOM     10  C   UNL     1      -5.127  -3.679   0.482  0.00  0.00    +0.199 C 
ATOM     11  O   UNL     1      -4.991  -2.346   0.590  0.00  0.00    -0.441 OA
ENDROOT
BRANCH   4  12
ATOM     12  C   UNL     1      -4.243   1.580   2.135  0.00  0.00    -0.021 A 
ATOM     13  C   UNL     1      -5.153   2.639   2.080  0.00  0.00    +0.012 A 
ATOM     14  C   UNL     1      -4.873   3.823   2.729  0.00  0.00    +0.050 A 
ATOM     15  C   UNL     1      -3.689   3.967   3.437  0.00  0.00    +0.162 A 
ATOM     16  C   UNL     1      -2.776   2.915   3.497  0.00  0.00    +0.162 A 
ATOM     17  C   UNL     1      -3.052   1.723   2.854  0.00  0.00    +0.057 A 
BRANCH  16  18
ATOM     18  O   UNL     1      -1.616   3.060   4.192  0.00  0.00    -0.491 OA
ATOM     19  C   UNL     1      -0.727   1.942   4.210  0.00  0.00    +0.277 C 
ENDBRANCH  16  18
BRANCH  15  20
ATOM     20  O   UNL     1      -3.418   5.136   4.075  0.00  0.00    -0.491 OA
ATOM     21  C   UNL     1      -4.396   6.173   3.973  0.00  0.00    +0.277 C 
ENDBRANCH  15  20
ENDBRANCH   4  12
BRANCH   8  22
ATOM     22  C   UNL     1      -3.345  -3.637  -2.371  0.00  0.00    -0.031 A 
ATOM     23  C   UNL     1      -4.425  -2.892  -2.806  0.00  0.00    +0.008 A 
ATOM     24  C   UNL     1      -4.690  -2.777  -4.158  0.00  0.00    +0.050 A 
ATOM     25  C   UNL     1      -3.872  -3.409  -5.080  0.00  0.00    +0.162 A 
ATOM     26  C   UNL     1      -2.785  -4.159  -4.642  0.00  0.00    +0.162 A 
ATOM     27  C   UNL     1      -2.522  -4.266  -3.286  0.00  0.00    +0.054 A 
BRANCH  26  28
ATOM     28  O   UNL     1      -1.979  -4.781  -5.544  0.00  0.00    -0.491 OA
ATOM     29  C   UNL     1      -0.881  -5.533  -5.022  0.00  0.00    +0.277 C 
ENDBRANCH  26  28
BRANCH  25  30
ATOM     30  O   UNL     1      -4.132  -3.298  -6.410  0.00  0.00    -0.491 OA
ATOM     31  C   UNL     1      -5.265  -2.513  -6.787  0.00  0.00    +0.277 C 
ENDBRANCH  25  30
ENDBRANCH   8  22
BRANCH   1  33
ATOM     32  C   UNL     1      -0.381   1.859  -0.625  0.00  0.00    +0.024 C 
ATOM     33  C   UNL     1      -0.240   0.336  -0.634  0.00  0.00    +0.051 C 
ATOM     34  C   UNL     1       0.708  -0.095   0.488  0.00  0.00    +0.024 C 
ENDBRANCH   1  33
BRANCH  10  35
ATOM     35  N   UNL     1      -6.188  -4.303   1.090  0.00  0.00    -0.328 N 
ATOM     36  H   UNL     1      -6.293  -5.264   1.015  0.00  0.00    +0.145 HD
ATOM     37  H   UNL     1      -6.833  -3.782   1.593  0.00  0.00    +0.145 HD
ENDBRANCH  10  35
BRANCH   9  38
ATOM     38  C   UNL     1      -4.401  -5.834  -0.320  0.00  0.00    +0.101 C 
ATOM     39  N   UNL     1      -4.536  -6.959  -0.399  0.00  0.00    -0.191 NA
ENDBRANCH   9  38
TORSDOF 9
