REMARK  Name = ZINC22419191
REMARK  10 active torsions:
REMARK  status: ('A' for Active; 'I' for Inactive)
REMARK    1  A    between atoms: C_1  and  N_2
REMARK    2  A    between atoms: N_2  and  C_3
REMARK    3  A    between atoms: N_2  and  C_4
REMARK    4  A    between atoms: C_7  and  C_10
REMARK    5  A    between atoms: C_10  and  C_12
REMARK    6  A    between atoms: C_10  and  N_25
REMARK    7  A    between atoms: C_12  and  N_13
REMARK    8  A    between atoms: N_16  and  C_17
REMARK    9  A    between atoms: C_22  and  O_23
REMARK   10  A    between atoms: O_23  and  C_24
REMARK                            x       y       z     vdW  Elec       q    Type
REMARK                         _______ _______ _______ _____ _____    ______ ____
ROOT
ATOM      1  C   UNL     1      -1.015   2.562  -0.641  0.00  0.00    -0.020 C 
ENDROOT
BRANCH   1   2
ATOM      2  N   UNL     1      -0.418   1.782   0.451  0.00  0.00    +0.388 N 
ATOM      3  C   UNL     1       0.693   2.516   1.078  0.00  0.00    -0.073 C 
ATOM      4  C   UNL     1       1.029   1.845   2.410  0.00  0.00    +0.017 C 
ATOM      5  C   UNL     1       1.206   0.362   2.208  0.00  0.00    -0.048 A 
ATOM      6  C   UNL     1       1.849  -0.368   3.196  0.00  0.00    +0.004 A 
ATOM      7  C   UNL     1       2.025  -1.730   3.055  0.00  0.00    +0.000 A 
ATOM      8  C   UNL     1       1.557  -2.370   1.922  0.00  0.00    +0.000 A 
ATOM      9  C   UNL     1       0.918  -1.644   0.937  0.00  0.00    +0.002 A 
ATOM     10  C   UNL     1       0.742  -0.275   1.077  0.00  0.00    -0.061 A 
ATOM     11  C   UNL     1       0.043   0.475  -0.027  0.00  0.00    -0.042 C 
ATOM     12  H   UNL     1      -1.199   1.616   1.208  0.00  0.00    -0.080 HD
ENDBRANCH   1   2
BRANCH   1  16
ATOM     13  C   UNL     1      -5.192   1.696  -0.892  0.00  0.00    +0.029 A 
ATOM     14  C   UNL     1      -4.721   2.955  -1.239  0.00  0.00    +0.023 A 
ATOM     15  C   UNL     1      -3.370   3.232  -1.157  0.00  0.00    +0.004 A 
ATOM     16  C   UNL     1      -2.488   2.256  -0.730  0.00  0.00    -0.059 A 
ATOM     17  C   UNL     1      -2.953   1.000  -0.389  0.00  0.00    +0.004 A 
ATOM     18  C   UNL     1      -4.303   0.718  -0.464  0.00  0.00    +0.023 A 
BRANCH  13  20
ATOM     19  C   UNL     1      -7.477   2.400  -1.544  0.00  0.00    +0.129 C 
ATOM     20  N   UNL     1      -6.558   1.412  -0.975  0.00  0.00    -0.336 N 
ATOM     21  C   UNL     1      -7.070   0.128  -0.492  0.00  0.00    +0.129 C 
ENDBRANCH  13  20
ENDBRANCH   1  16
BRANCH   1  22
ATOM     22  C   UNL     1      -0.337   2.192  -1.962  0.00  0.00    +0.095 C 
BRANCH  22  23
ATOM     23  N   UNL     1       1.088   2.524  -1.889  0.00  0.00    -0.300 N 
ATOM     24  C   UNL     1       1.914   2.173  -2.894  0.00  0.00    +0.304 C 
ATOM     25  O   UNL     1       1.477   1.580  -3.861  0.00  0.00    -0.253 OA
ATOM     26  N   UNL     1       3.225   2.478  -2.827  0.00  0.00    -0.266 N 
ATOM     27  H   UNL     1       1.484   3.061  -1.014  0.00  0.00    +0.150 HD
ATOM     28  H   UNL     1       3.636   2.942  -1.918  0.00  0.00    +0.156 HD
BRANCH  26  29
ATOM     29  C   UNL     1       4.065   2.206  -3.916  0.00  0.00    +0.077 A 
ATOM     30  C   UNL     1       3.749   1.184  -4.799  0.00  0.00    +0.027 A 
ATOM     31  C   UNL     1       4.576   0.920  -5.875  0.00  0.00    +0.002 A 
ATOM     32  C   UNL     1       5.724   1.666  -6.068  0.00  0.00    +0.004 A 
ATOM     33  C   UNL     1       6.048   2.683  -5.189  0.00  0.00    +0.047 A 
ATOM     34  C   UNL     1       5.221   2.957  -4.111  0.00  0.00    +0.141 A 
BRANCH  34  35
ATOM     35  O   UNL     1       5.539   3.957  -3.246  0.00  0.00    -0.493 OA
ATOM     36  C   UNL     1       6.740   4.685  -3.508  0.00  0.00    +0.277 C 
ENDBRANCH  34  35
ENDBRANCH  26  29
ENDBRANCH  22  23
ENDBRANCH   1  22
TORSDOF 7
