REMARK  Name = ZINC39631163
REMARK  12 active torsions:
REMARK  status: ('A' for Active; 'I' for Inactive)
REMARK    1  A    between atoms: C_1  and  C_2
REMARK    2  A    between atoms: C_7  and  C_8
REMARK    3  A    between atoms: C_12  and  C_21
REMARK    4  A    between atoms: N_23  and  C_24
REMARK    5  A    between atoms: C_24  and  C_26
REMARK    6  A    between atoms: C_24  and  C_27
REMARK    7  A    between atoms: C_27  and  C_28
REMARK    8  A    between atoms: C_28  and  C_29
REMARK    9  A    between atoms: C_29  and  C_30
REMARK   10  A    between atoms: C_30  and  C_31
REMARK   11  A    between atoms: C_30  and  C_32
REMARK   12  A    between atoms: C_30  and  O_33
REMARK                            x       y       z     vdW  Elec       q    Type
REMARK                         _______ _______ _______ _____ _____    ______ ____
ROOT
ATOM      1  C   UNL     1       0.412   0.101   1.871  0.00  0.00    +0.247 C 
ATOM      2  O   UNL     1       0.626  -0.448   0.807  0.00  0.00    -0.270 OA
ATOM      3  N   UNL     1       0.096  -0.633   2.956  0.00  0.00    -0.296 N 
ATOM      4  C   UNL     1       0.080  -2.109   3.081  0.00  0.00    +0.121 C 
ATOM      5  C   UNL     1       0.649  -2.388   4.490  0.00  0.00    +0.100 C 
ATOM      6  C   UNL     1       0.386  -1.096   5.282  0.00  0.00    -0.004 C 
ATOM      7  C   UNL     1      -0.307  -0.145   4.297  0.00  0.00    +0.115 C 
ATOM      8  C   UNL     1       1.704  -0.489   5.754  0.00  0.00    -0.010 C 
ATOM      9  C   UNL     1       1.414   0.763   6.587  0.00  0.00    -0.082 C 
ATOM     10  N   UNL     1       0.577   0.404   7.739  0.00  0.00    +0.379 N 
ATOM     11  C   UNL     1      -0.724  -0.093   7.277  0.00  0.00    -0.082 C 
ATOM     12  C   UNL     1      -0.525  -1.381   6.472  0.00  0.00    -0.010 C 
ATOM     13  H   UNL     1       1.038  -0.315   8.277  0.00  0.00    -0.086 HD
ATOM     14  H   UNL     1       0.438   1.218   8.319  0.00  0.00    -0.086 HD
ENDROOT
BRANCH   1  21
ATOM     15  C   UNL     1       2.452   1.520   0.388  0.00  0.00    +0.044 C 
ATOM     16  C   UNL     1       1.479   2.268   1.263  0.00  0.00    -0.038 A 
ATOM     17  C   UNL     1       1.551   3.643   1.358  0.00  0.00    +0.004 A 
ATOM     18  C   UNL     1       0.658   4.331   2.160  0.00  0.00    +0.000 A 
ATOM     19  C   UNL     1      -0.312   3.647   2.872  0.00  0.00    +0.001 A 
ATOM     20  C   UNL     1      -0.395   2.273   2.785  0.00  0.00    +0.013 A 
ATOM     21  C   UNL     1       0.499   1.573   1.973  0.00  0.00    +0.040 A 
ENDBRANCH   1  21
BRANCH   5  22
ATOM     22  C   UNL     1       2.127  -2.668   4.413  0.00  0.00    +0.218 C 
ATOM     23  O   UNL     1       2.783  -2.215   3.499  0.00  0.00    -0.275 OA
ATOM     24  N   UNL     1       2.721  -3.421   5.360  0.00  0.00    -0.312 N 
ATOM     25  H   UNL     1       2.186  -3.844   6.050  0.00  0.00    +0.149 HD
BRANCH  24  26
ATOM     26  C   UNL     1       4.175  -3.601   5.348  0.00  0.00    +0.070 C 
ATOM     27  C   UNL     1       4.835  -2.472   6.143  0.00  0.00    +0.028 C 
BRANCH  26  28
ATOM     28  C   UNL     1       4.528  -4.947   5.985  0.00  0.00    +0.022 C 
BRANCH  28  29
ATOM     29  C   UNL     1       3.991  -6.081   5.110  0.00  0.00    +0.005 C 
BRANCH  29  30
ATOM     30  C   UNL     1       4.237  -7.421   5.805  0.00  0.00    +0.034 C 
BRANCH  30  31
ATOM     31  C   UNL     1       3.796  -8.562   4.885  0.00  0.00    +0.061 C 
ATOM     32  C   UNL     1       4.625  -8.529   3.599  0.00  0.00    +0.041 C 
ATOM     33  C   UNL     1       4.008  -9.900   5.594  0.00  0.00    +0.041 C 
BRANCH  31  34
ATOM     34  O   UNL     1       2.412  -8.407   4.564  0.00  0.00    -0.389 OA
ATOM     35  H   UNL     1       1.834  -8.343   5.336  0.00  0.00    +0.210 HD
ENDBRANCH  31  34
ENDBRANCH  30  31
ENDBRANCH  29  30
ENDBRANCH  28  29
ENDBRANCH  26  28
ENDBRANCH  24  26
ENDBRANCH   5  22
TORSDOF 8
