REMARK  Name = ZINC12421984
REMARK  11 active torsions:
REMARK  status: ('A' for Active; 'I' for Inactive)
REMARK    1  A    between atoms: N_6  and  C_11
REMARK    2  A    between atoms: C_11  and  C_12
REMARK    3  A    between atoms: C_12  and  C_14
REMARK    4  A    between atoms: C_12  and  O_21
REMARK    5  A    between atoms: C_14  and  N_52
REMARK    6  A    between atoms: C_15  and  C_16
REMARK    7  A    between atoms: C_15  and  N_52
REMARK    8  A    between atoms: C_16  and  O_17
REMARK    9  A    between atoms: C_18  and  C_19
REMARK   10  A    between atoms: C_18  and  N_52
REMARK   11  A    between atoms: C_19  and  O_20
REMARK                            x       y       z     vdW  Elec       q    Type
REMARK                         _______ _______ _______ _____ _____    ______ ____
ROOT
ATOM      1  C   UNL     1      -0.914   5.559   1.028  0.00  0.00    +0.151 C 
ENDROOT
BRANCH   1   7
ATOM      2  C   UNL     1      -1.503   4.108  -3.956  0.00  0.00    +0.002 A 
ATOM      3  C   UNL     1      -1.063   3.046  -3.204  0.00  0.00    +0.010 A 
ATOM      4  C   UNL     1      -0.858   3.279  -1.841  0.00  0.00    +0.005 A 
ATOM      5  C   UNL     1      -0.410   2.430  -0.756  0.00  0.00    -0.019 A 
ATOM      6  C   UNL     1      -0.399   3.188   0.362  0.00  0.00    +0.023 A 
ATOM      7  N   UNL     1      -0.806   4.462   0.064  0.00  0.00    -0.340 N 
ATOM      8  C   UNL     1      -1.095   4.555  -1.268  0.00  0.00    +0.068 A 
ATOM      9  C   UNL     1      -1.541   5.614  -2.056  0.00  0.00    +0.065 A 
ATOM     10  C   UNL     1      -1.736   5.356  -3.403  0.00  0.00    +0.022 A 
ATOM     11 CL   UNL     1      -1.838   7.186  -1.381  0.00  0.00    -0.081 Cl
ATOM     12  C   UNL     1       0.008   2.671   1.722  0.00  0.00    +0.054 C 
ATOM     13  C   UNL     1      -0.024   1.139   1.692  0.00  0.00    +0.006 C 
ATOM     14  C   UNL     1       0.757   0.637   0.475  0.00  0.00    +0.005 C 
ATOM     15  C   UNL     1      -0.020   0.975  -0.803  0.00  0.00    +0.037 C 
ENDBRANCH   1   7
BRANCH   1  16
ATOM     16  C   UNL     1       0.415   6.315   1.093  0.00  0.00    +0.118 C 
BRANCH  16  17
ATOM     17  O   UNL     1       1.427   5.452   1.615  0.00  0.00    -0.392 OA
ATOM     18  H   UNL     1       1.243   5.122   2.505  0.00  0.00    +0.210 HD
ENDBRANCH  16  17
BRANCH  16  19
ATOM     19  C   UNL     1       0.264   7.534   2.005  0.00  0.00    -0.045 C 
BRANCH  19  20
ATOM     20  N   UNL     1       1.524   8.307   1.979  0.00  0.00    +0.384 N 
ATOM     21  H   UNL     1       2.307   7.674   2.179  0.00  0.00    -0.082 HD
BRANCH  20  22
ATOM     22  C   UNL     1       1.721   8.908   0.643  0.00  0.00    -0.050 C 
BRANCH  22  23
ATOM     23  C   UNL     1       3.174   9.368   0.521  0.00  0.00    +0.137 C 
BRANCH  23  24
ATOM     24  O   UNL     1       4.041   8.235   0.596  0.00  0.00    -0.397 OA
ATOM     25  H   UNL     1       4.981   8.453   0.525  0.00  0.00    +0.209 HD
ENDBRANCH  23  24
ENDBRANCH  22  23
ENDBRANCH  20  22
BRANCH  20  26
ATOM     26  C   UNL     1       1.488   9.366   3.009  0.00  0.00    -0.050 C 
BRANCH  26  27
ATOM     27  C   UNL     1       1.763   8.733   4.374  0.00  0.00    +0.137 C 
BRANCH  27  28
ATOM     28  O   UNL     1       3.092   8.207   4.395  0.00  0.00    -0.397 OA
ATOM     29  H   UNL     1       3.310   7.722   5.203  0.00  0.00    +0.209 HD
ENDBRANCH  27  28
ENDBRANCH  26  27
ENDBRANCH  20  26
ENDBRANCH  19  20
ENDBRANCH  16  19
ENDBRANCH   1  16
TORSDOF 11
