REMARK  Name = ZINC63192150
REMARK  4 active torsions:
REMARK  status: ('A' for Active; 'I' for Inactive)
REMARK    1  A    between atoms: C_1  and  C_2
REMARK    2  A    between atoms: C_2  and  C_4
REMARK    3  A    between atoms: C_2  and  N_23
REMARK    4  A    between atoms: N_10  and  C_11
REMARK                            x       y       z     vdW  Elec       q    Type
REMARK                         _______ _______ _______ _____ _____    ______ ____
ROOT
ATOM      1  C   UNL     1       0.491  -0.626   1.148  0.00  0.00    +0.043 C 
ATOM      2  C   UNL     1       0.510  -2.153   1.038  0.00  0.00    +0.017 C 
ATOM      3  C   UNL     1       1.336  -2.732   2.190  0.00  0.00    +0.003 C 
ATOM      4  C   UNL     1       0.737  -2.269   3.521  0.00  0.00    +0.015 C 
ATOM      5  C   UNL     1       0.711  -0.740   3.559  0.00  0.00    +0.085 C 
ATOM      6  N   UNL     1      -0.092  -0.235   2.438  0.00  0.00    -0.286 NA
ENDROOT
BRANCH   6   7
ATOM      7  C   UNL     1      -0.254   1.223   2.521  0.00  0.00    +0.176 C 
ATOM      8  C   UNL     1       1.087   1.895   2.712  0.00  0.00    +0.001 A 
ATOM      9  C   UNL     1       2.230   1.939   1.945  0.00  0.00    +0.007 A 
ATOM     10  C   UNL     1       3.331   2.651   2.386  0.00  0.00    +0.002 A 
ATOM     11  C   UNL     1       3.279   3.317   3.598  0.00  0.00    +0.017 A 
ATOM     12  C   UNL     1       2.135   3.274   4.369  0.00  0.00    +0.039 A 
ATOM     13  C   UNL     1       1.022   2.559   3.930  0.00  0.00    +0.053 A 
ATOM     14  N   UNL     1      -0.230   2.367   4.518  0.00  0.00    -0.283 N 
ATOM     15  C   UNL     1      -1.037   1.600   3.761  0.00  0.00    +0.239 C 
ATOM     16  O   UNL     1      -2.175   1.271   4.021  0.00  0.00    -0.273 OA
ATOM     17 BR   UNL     1       2.078   4.188   6.023  0.00  0.00    -0.048 Br
ATOM     18  H   UNL     1      -0.488   2.743   5.373  0.00  0.00    +0.155 HD
ENDBRANCH   6   7
BRANCH   1  20
ATOM     19  C   UNL     1       0.250  -0.461  -1.333  0.00  0.00    -0.013 C 
ATOM     20  C   UNL     1      -0.350  -0.044   0.011  0.00  0.00    -0.061 C 
BRANCH  20  21
ATOM     21  N   UNL     1      -1.726  -0.549   0.110  0.00  0.00    +0.381 N 
ATOM     22  H   UNL     1      -1.720  -1.556   0.043  0.00  0.00    -0.090 HD
ATOM     23  H   UNL     1      -2.122  -0.274   0.997  0.00  0.00    -0.090 HD
ATOM     24  H   UNL     1      -2.280  -0.165  -0.640  0.00  0.00    -0.090 HD
ENDBRANCH  20  21
ENDBRANCH   1  20
TORSDOF 3
