REMARK  Name = ZINC43675679
REMARK  11 active torsions:
REMARK  status: ('A' for Active; 'I' for Inactive)
REMARK    1  A    between atoms: C_1  and  C_2
REMARK    2  A    between atoms: N_7  and  C_9
REMARK    3  A    between atoms: C_9  and  C_11
REMARK    4  A    between atoms: C_9  and  C_12
REMARK    5  A    between atoms: C_12  and  N_13
REMARK    6  A    between atoms: N_16  and  C_17
REMARK    7  A    between atoms: C_20  and  S_23
REMARK    8  A    between atoms: S_23  and  N_26
REMARK    9  A    between atoms: N_26  and  C_27
REMARK   10  A    between atoms: C_27  and  C_28
REMARK   11  A    between atoms: C_27  and  C_29
REMARK                            x       y       z     vdW  Elec       q    Type
REMARK                         _______ _______ _______ _____ _____    ______ ____
ROOT
ATOM      1  N   UNL     1       2.001  -4.565   1.356  0.00  0.00    -0.301 N 
ATOM      2  C   UNL     1       1.960  -5.895   1.144  0.00  0.00    +0.304 C 
ATOM      3  O   UNL     1       1.371  -6.618   1.923  0.00  0.00    -0.253 OA
ATOM      4  N   UNL     1       2.574  -6.424   0.067  0.00  0.00    -0.269 N 
ATOM      5  H   UNL     1       2.471  -3.988   0.734  0.00  0.00    +0.150 HD
ATOM      6  H   UNL     1       2.984  -5.843  -0.593  0.00  0.00    +0.156 HD
ENDROOT
BRANCH   4   7
ATOM      7  C   UNL     1       2.621  -7.813  -0.100  0.00  0.00    +0.035 A 
ATOM      8  C   UNL     1       3.742  -8.410  -0.661  0.00  0.00    +0.025 A 
ATOM      9  C   UNL     1       3.785  -9.780  -0.824  0.00  0.00    +0.030 A 
ATOM     10  C   UNL     1       2.712 -10.559  -0.429  0.00  0.00    +0.105 A 
ATOM     11  C   UNL     1       1.594  -9.968   0.130  0.00  0.00    +0.030 A 
ATOM     12  C   UNL     1       1.547  -8.598   0.300  0.00  0.00    +0.025 A 
BRANCH  10  13
ATOM     13  S   UNL     1       2.771 -12.307  -0.638  0.00  0.00    +0.059 S 
ATOM     14  O   UNL     1       1.423 -12.755  -0.692  0.00  0.00    -0.153 OA
ATOM     15  O   UNL     1       3.700 -12.560  -1.683  0.00  0.00    -0.153 OA
BRANCH  13  16
ATOM     16  N   UNL     1       3.426 -12.944   0.743  0.00  0.00    -0.187 NA
ATOM     17  H   UNL     1       4.283 -13.398   0.709  0.00  0.00    +0.148 HD
BRANCH  16  18
ATOM     18  C   UNL     1       2.712 -12.823   2.016  0.00  0.00    +0.070 C 
ATOM     19  C   UNL     1       1.887 -14.088   2.261  0.00  0.00    +0.025 C 
ATOM     20  C   UNL     1       3.721 -12.645   3.152  0.00  0.00    +0.025 C 
ENDBRANCH  16  18
ENDBRANCH  13  16
ENDBRANCH  10  13
ENDBRANCH   4   7
BRANCH   1  21
ATOM     21  C   UNL     1       1.333  -3.989   2.526  0.00  0.00    +0.090 C 
BRANCH  21  22
ATOM     22  C   UNL     1       1.420  -2.463   2.464  0.00  0.00    -0.054 C 
ATOM     23  C   UNL     1       0.623  -1.859   3.622  0.00  0.00    -0.012 C 
BRANCH  22  29
ATOM     24  C   UNL     1      -2.607  -2.308  -0.317  0.00  0.00    +0.005 C 
ATOM     25  C   UNL     1      -1.124  -1.936  -0.244  0.00  0.00    -0.031 C 
ATOM     26  C   UNL     1      -0.968  -0.422  -0.415  0.00  0.00    -0.001 C 
ATOM     27  C   UNL     1       0.509  -0.051  -0.263  0.00  0.00    -0.018 C 
ATOM     28  C   UNL     1       1.014  -0.536   1.097  0.00  0.00    -0.078 C 
ATOM     29  N   UNL     1       0.863  -1.993   1.188  0.00  0.00    +0.383 N 
ATOM     30  C   UNL     1      -0.559  -2.352   1.115  0.00  0.00    -0.075 C 
ATOM     31  H   UNL     1       1.358  -2.430   0.426  0.00  0.00    -0.081 HD
ENDBRANCH  22  29
ENDBRANCH  21  22
ENDBRANCH   1  21
TORSDOF 7
