REMARK  Name = ZINC44145417
REMARK  8 active torsions:
REMARK  status: ('A' for Active; 'I' for Inactive)
REMARK    1  A    between atoms: C_1  and  C_2
REMARK    2  A    between atoms: C_5  and  C_8
REMARK    3  A    between atoms: C_8  and  C_9
REMARK    4  A    between atoms: C_9  and  N_10
REMARK    5  A    between atoms: C_11  and  C_24
REMARK    6  A    between atoms: C_12  and  C_21
REMARK    7  A    between atoms: C_14  and  C_15
REMARK    8  A    between atoms: C_18  and  C_20
REMARK                            x       y       z     vdW  Elec       q    Type
REMARK                         _______ _______ _______ _____ _____    ______ ____
ROOT
ATOM      1  N   UNL     1       1.740  -6.248  -0.067  0.00  0.00    -0.342 N 
ATOM      2  C   UNL     1       1.774  -7.027   1.034  0.00  0.00    +0.028 A 
ATOM      3  C   UNL     1       1.492  -8.322   0.656  0.00  0.00    +0.058 A 
ATOM      4  C   UNL     1       1.280  -8.306  -0.748  0.00  0.00    +0.042 A 
ATOM      5  C   UNL     1       1.433  -7.021  -1.159  0.00  0.00    +0.069 A 
ATOM      6  C   UNL     1       2.069  -6.561   2.437  0.00  0.00    +0.064 C 
ENDROOT
BRANCH   5   7
ATOM      7  C   UNL     1       1.297  -6.537  -2.550  0.00  0.00    +0.095 A 
ATOM      8  C   UNL     1       1.348  -5.202  -2.858  0.00  0.00    +0.076 A 
ATOM      9  S   UNL     1       1.129  -5.264  -4.629  0.00  0.00    -0.080 S 
ATOM     10  C   UNL     1       0.999  -6.933  -4.793  0.00  0.00    +0.076 A 
ATOM     11  N   UNL     1       1.124  -7.371  -3.567  0.00  0.00    -0.243 NA
ATOM     12  C   UNL     1       0.793  -7.734  -6.052  0.00  0.00    +0.073 C 
ENDBRANCH   5   7
BRANCH   3  13
ATOM     13  C   UNL     1       1.423  -9.498   1.540  0.00  0.00    +0.243 C 
ATOM     14  O   UNL     1       1.627  -9.375   2.733  0.00  0.00    -0.270 OA
ATOM     15  N   UNL     1       1.135 -10.710   1.027  0.00  0.00    -0.325 N 
ATOM     16  H   UNL     1       0.973 -10.808   0.075  0.00  0.00    +0.145 HD
ATOM     17  H   UNL     1       1.090 -11.485   1.609  0.00  0.00    +0.145 HD
ENDBRANCH   3  13
BRANCH   1  18
ATOM     18  C   UNL     1       1.986  -4.804  -0.092  0.00  0.00    +0.127 C 
BRANCH  18  19
ATOM     19  C   UNL     1       0.652  -4.058  -0.023  0.00  0.00    +0.056 C 
BRANCH  19  24
ATOM     20  C   UNL     1       1.620   1.638  -0.122  0.00  0.00    +0.044 C 
ATOM     21  C   UNL     1       1.368   0.152  -0.096  0.00  0.00    -0.050 A 
ATOM     22  C   UNL     1       1.186  -0.538  -1.280  0.00  0.00    +0.003 A 
ATOM     23  C   UNL     1       0.954  -1.901  -1.256  0.00  0.00    +0.004 A 
ATOM     24  C   UNL     1       0.906  -2.573  -0.049  0.00  0.00    -0.046 A 
ATOM     25  C   UNL     1       1.089  -1.882   1.134  0.00  0.00    +0.004 A 
ATOM     26  C   UNL     1       1.324  -0.520   1.110  0.00  0.00    +0.003 A 
ENDBRANCH  19  24
ENDBRANCH  18  19
ENDBRANCH   1  18
TORSDOF 5
