REMARK  Name = ZINC43261756
REMARK  9 active torsions:
REMARK  status: ('A' for Active; 'I' for Inactive)
REMARK    1  A    between atoms: C_1  and  C_2
REMARK    2  A    between atoms: C_2  and  C_3
REMARK    3  A    between atoms: C_3  and  C_5
REMARK    4  A    between atoms: C_3  and  N_23
REMARK    5  A    between atoms: C_5  and  C_7
REMARK    6  A    between atoms: C_5  and  N_13
REMARK    7  A    between atoms: N_13  and  C_14
REMARK    8  A    between atoms: N_13  and  C_20
REMARK    9  A    between atoms: C_14  and  C_15
REMARK                            x       y       z     vdW  Elec       q    Type
REMARK                         _______ _______ _______ _____ _____    ______ ____
ROOT
ATOM      1  C   UNL     1       0.696  -2.042   1.427  0.00  0.00    -0.013 C 
ENDROOT
BRANCH   1   2
ATOM      2  C   UNL     1       1.507  -2.658   0.315  0.00  0.00    -0.021 A 
ATOM      3  C   UNL     1       2.731  -3.236   0.371  0.00  0.00    +0.011 A 
ATOM      4  C   UNL     1       3.288  -3.739  -0.790  0.00  0.00    +0.023 A 
ATOM      5  C   UNL     1       2.593  -3.639  -1.950  0.00  0.00    +0.055 A 
ATOM      6  S   UNL     1       1.099  -2.821  -1.415  0.00  0.00    -0.088 S 
ATOM      7 BR   UNL     1       3.076  -4.223  -3.683  0.00  0.00    -0.043 Br
ENDBRANCH   1   2
BRANCH   1   8
ATOM      8  N   UNL     1      -0.717  -2.406   1.262  0.00  0.00    +0.390 N 
ATOM      9  H   UNL     1      -1.051  -2.064   0.373  0.00  0.00    -0.080 HD
BRANCH   8  10
ATOM     10  C   UNL     1      -0.855  -3.868   1.306  0.00  0.00    -0.067 C 
ATOM     11  C   UNL     1      -1.187  -4.586  -0.003  0.00  0.00    -0.017 C 
ATOM     12  C   UNL     1      -2.252  -4.452   1.087  0.00  0.00    -0.017 C 
ENDBRANCH   8  10
BRANCH   8  13
ATOM     13  C   UNL     1      -1.507  -1.806   2.345  0.00  0.00    -0.041 C 
BRANCH  13  14
ATOM     14  C   UNL     1      -1.026  -2.338   3.671  0.00  0.00    -0.057 A 
ATOM     15  C   UNL     1      -1.543  -3.512   4.185  0.00  0.00    +0.009 A 
ATOM     16  C   UNL     1      -1.088  -3.962   5.380  0.00  0.00    +0.045 A 
ATOM     17  S   UNL     1       0.107  -2.710   5.816  0.00  0.00    -0.105 S 
ATOM     18  C   UNL     1      -0.076  -1.674   4.374  0.00  0.00    +0.047 A 
ENDBRANCH  13  14
ENDBRANCH   8  13
ENDBRANCH   1   8
BRANCH   1  19
ATOM     19  C   UNL     1       0.840  -0.520   1.380  0.00  0.00    +0.042 C 
BRANCH  19  20
ATOM     20  N   UNL     1       2.264  -0.161   1.425  0.00  0.00    -0.328 NA
ATOM     21  H   UNL     1       2.681  -0.444   2.299  0.00  0.00    +0.118 HD
ATOM     22  H   UNL     1       2.761  -0.557   0.642  0.00  0.00    +0.118 HD
ENDBRANCH  19  20
BRANCH  19  24
ATOM     23  C   UNL     1       0.252   1.541   0.096  0.00  0.00    +0.005 C 
ATOM     24  C   UNL     1       0.221   0.012   0.086  0.00  0.00    +0.014 C 
ENDBRANCH  19  24
ENDBRANCH   1  19
TORSDOF 8
