REMARK  Name = ZINC19219236
REMARK  10 active torsions:
REMARK  status: ('A' for Active; 'I' for Inactive)
REMARK    1  A    between atoms: C_1  and  C_2
REMARK    2  A    between atoms: C_8  and  O_35
REMARK    3  A    between atoms: N_15  and  C_18
REMARK    4  A    between atoms: C_18  and  C_19
REMARK    5  A    between atoms: C_19  and  C_21
REMARK    6  A    between atoms: C_19  and  O_34
REMARK    7  A    between atoms: C_24  and  C_27
REMARK    8  A    between atoms: C_27  and  C_29
REMARK    9  A    between atoms: C_27  and  N_30
REMARK   10  A    between atoms: C_31  and  C_33
REMARK                            x       y       z     vdW  Elec       q    Type
REMARK                         _______ _______ _______ _____ _____    ______ ____
ROOT
ATOM      1  C   UNL     1     -10.542   2.532   7.118  0.00  0.00    +0.044 C 
ATOM      2  C   UNL     1      -9.732   2.789   5.873  0.00  0.00    -0.050 A 
ATOM      3  C   UNL     1      -9.000   1.764   5.301  0.00  0.00    +0.007 A 
ATOM      4  C   UNL     1      -8.263   2.000   4.159  0.00  0.00    +0.046 A 
ATOM      5  C   UNL     1      -8.253   3.265   3.580  0.00  0.00    +0.127 A 
ATOM      6  C   UNL     1      -8.981   4.290   4.159  0.00  0.00    +0.023 A 
ATOM      7  C   UNL     1      -9.723   4.046   5.303  0.00  0.00    +0.013 A 
ATOM      8  C   UNL     1      -8.981   5.680   3.576  0.00  0.00    +0.152 C 
ATOM      9  C   UNL     1      -8.486   5.635   2.129  0.00  0.00    +0.084 C 
ATOM     10  C   UNL     1      -7.203   4.798   2.083  0.00  0.00    +0.110 C 
ATOM     11  O   UNL     1      -7.520   3.456   2.452  0.00  0.00    -0.485 OA
ATOM     12  C   UNL     1      -6.179   5.376   3.060  0.00  0.00    +0.029 C 
ATOM     13  C   UNL     1      -4.878   4.575   2.962  0.00  0.00    -0.075 C 
ATOM     14  N   UNL     1      -4.365   4.638   1.588  0.00  0.00    +0.382 N 
ATOM     15  C   UNL     1      -5.313   4.040   0.639  0.00  0.00    -0.075 C 
ATOM     16  C   UNL     1      -6.627   4.824   0.666  0.00  0.00    +0.029 C 
ATOM     17  H   UNL     1      -4.250   5.700   1.321  0.00  0.00    -0.082 HD
ENDROOT
BRANCH   8  18
ATOM     18  O   UNL     1     -10.309   6.208   3.607  0.00  0.00    -0.387 OA
ATOM     19  H   UNL     1     -10.509   7.218   3.221  0.00  0.00    +0.210 HD
ENDBRANCH   8  18
BRANCH  14  20
ATOM     20  C   UNL     1      -3.046   4.000   1.488  0.00  0.00    -0.042 C 
BRANCH  20  21
ATOM     21  C   UNL     1      -2.026   4.808   2.293  0.00  0.00    +0.128 C 
BRANCH  21  22
ATOM     22  C   UNL     1      -0.670   4.161   2.178  0.00  0.00    -0.021 A 
ATOM     23  C   UNL     1       0.148   4.457   1.103  0.00  0.00    +0.006 A 
ATOM     24  C   UNL     1       1.390   3.861   0.995  0.00  0.00    +0.006 A 
ATOM     25  C   UNL     1       1.819   2.975   1.966  0.00  0.00    -0.027 A 
ATOM     26  C   UNL     1       1.003   2.682   3.043  0.00  0.00    +0.006 A 
ATOM     27  C   UNL     1      -0.241   3.276   3.149  0.00  0.00    +0.006 A 
BRANCH  25  28
ATOM     28  C   UNL     1       3.175   2.329   1.851  0.00  0.00    +0.100 C 
ATOM     29  C   UNL     1       4.168   3.063   2.754  0.00  0.00    +0.033 C 
BRANCH  28  30
ATOM     30  N   UNL     1       3.084   0.926   2.264  0.00  0.00    -0.309 N 
ATOM     31  C   UNL     1       3.974   0.028   1.798  0.00  0.00    +0.210 C 
ATOM     32  O   UNL     1       4.850   0.380   1.037  0.00  0.00    -0.276 OA
ATOM     33  C   UNL     1       3.881  -1.415   2.223  0.00  0.00    +0.109 C 
ATOM     34  H   UNL     1       2.290   0.607   2.954  0.00  0.00    +0.149 HD
ENDBRANCH  28  30
ENDBRANCH  25  28
ENDBRANCH  21  22
BRANCH  21  35
ATOM     35  O   UNL     1      -1.964   6.141   1.782  0.00  0.00    -0.389 OA
ATOM     36  H   UNL     1      -1.281   6.873   2.237  0.00  0.00    +0.210 HD
ENDBRANCH  21  35
ENDBRANCH  20  21
ENDBRANCH  14  20
TORSDOF 7
