REMARK  Name = ZINC13959914
REMARK  14 active torsions:
REMARK  status: ('A' for Active; 'I' for Inactive)
REMARK    1  A    between atoms: C_1  and  C_2
REMARK    2  A    between atoms: C_2  and  O_3
REMARK    3  A    between atoms: O_3  and  C_4
REMARK    4  A    between atoms: C_4  and  C_6
REMARK    5  A    between atoms: C_9  and  N_12
REMARK    6  A    between atoms: N_12  and  C_13
REMARK    7  A    between atoms: C_13  and  N_15
REMARK    8  A    between atoms: N_15  and  N_16
REMARK    9  A    between atoms: C_17  and  C_19
REMARK   10  A    between atoms: C_22  and  C_24
REMARK   11  A    between atoms: C_24  and  O_25
REMARK   12  A    between atoms: O_25  and  C_26
REMARK   13  A    between atoms: C_29  and  C_35
REMARK   14  A    between atoms: C_31  and  N_32
REMARK                            x       y       z     vdW  Elec       q    Type
REMARK                         _______ _______ _______ _____ _____    ______ ____
ROOT
ATOM      1  N   UNL     1       4.127   2.045  -0.021  0.00  0.00    -0.229 N 
ATOM      2  C   UNL     1       3.492   0.857  -0.013  0.00  0.00    +0.295 C 
ATOM      3  O   UNL     1       4.114  -0.165   0.211  0.00  0.00    -0.265 OA
ATOM      4  H   UNL     1       3.631   2.859  -0.199  0.00  0.00    +0.173 HD
ENDROOT
BRANCH   2   5
ATOM      5  C   UNL     1       2.050   0.794  -0.275  0.00  0.00    +0.191 A 
ATOM      6  C   UNL     1       1.287  -0.338  -0.297  0.00  0.00    +0.055 A 
ATOM      7  C   UNL     1      -0.026   0.067  -0.584  0.00  0.00    +0.049 A 
ATOM      8  C   UNL     1      -0.007   1.411  -0.723  0.00  0.00    +0.143 A 
ATOM      9  O   UNL     1       1.246   1.845  -0.536  0.00  0.00    -0.452 OA
BRANCH   8  10
ATOM     10  C   UNL     1      -1.198   2.277  -1.042  0.00  0.00    +0.303 C 
BRANCH  10  11
ATOM     11  O   UNL     1      -1.826   2.690   0.174  0.00  0.00    -0.482 OA
BRANCH  11  12
ATOM     12  C   UNL     1      -2.924   3.483   0.063  0.00  0.00    +0.151 A 
ATOM     13  C   UNL     1      -3.388   3.855  -1.191  0.00  0.00    +0.048 A 
ATOM     14  C   UNL     1      -4.505   4.661  -1.301  0.00  0.00    +0.007 A 
ATOM     15  C   UNL     1      -5.161   5.095  -0.164  0.00  0.00    -0.048 A 
ATOM     16  C   UNL     1      -4.700   4.725   1.086  0.00  0.00    +0.039 A 
ATOM     17  C   UNL     1      -3.587   3.916   1.202  0.00  0.00    +0.168 A 
ATOM     18  C   UNL     1      -6.379   5.973  -0.287  0.00  0.00    +0.044 C 
BRANCH  17  19
ATOM     19  N   UNL     1      -3.098   3.515   2.540  0.00  0.00    +0.060 N 
ATOM     20  O   UNL     1      -3.680   3.896   3.540  0.00  0.00    -0.126 OA
ATOM     21  O   UNL     1      -2.114   2.805   2.642  0.00  0.00    -0.126 OA
ENDBRANCH  17  19
ENDBRANCH  11  12
ENDBRANCH  10  11
ENDBRANCH   8  10
ENDBRANCH   2   5
BRANCH   1  22
ATOM     22  N   UNL     1       5.505   2.105   0.229  0.00  0.00    -0.245 N 
ATOM     23  H   UNL     1       6.001   1.291   0.408  0.00  0.00    +0.172 HD
BRANCH  22  24
ATOM     24  C   UNL     1       6.140   3.293   0.222  0.00  0.00    +0.151 C 
ATOM     25  S   UNL     1       7.823   3.366   0.527  0.00  0.00    -0.017 S 
BRANCH  24  26
ATOM     26  N   UNL     1       5.450   4.425  -0.026  0.00  0.00    -0.296 N 
ATOM     27  H   UNL     1       4.515   4.377  -0.278  0.00  0.00    +0.154 HD
BRANCH  26  31
ATOM     28  C   UNL     1       7.336   8.124   0.290  0.00  0.00    +0.059 A 
ATOM     29  C   UNL     1       6.465   7.870  -0.774  0.00  0.00    +0.017 A 
ATOM     30  C   UNL     1       5.843   6.647  -0.875  0.00  0.00    +0.024 A 
ATOM     31  C   UNL     1       6.081   5.662   0.080  0.00  0.00    +0.033 A 
ATOM     32  C   UNL     1       6.944   5.913   1.143  0.00  0.00    +0.024 A 
ATOM     33  C   UNL     1       7.572   7.133   1.248  0.00  0.00    +0.017 A 
BRANCH  28  34
ATOM     34  C   UNL     1       8.004   9.434   0.402  0.00  0.00    +0.339 C 
ATOM     35  O   UNL     1       7.798  10.294  -0.431  0.00  0.00    -0.245 OA
BRANCH  34  36
ATOM     36  O   UNL     1       8.843   9.677   1.428  0.00  0.00    -0.461 OA
BRANCH  36  38
ATOM     37  C   UNL     1      10.377  11.077   2.700  0.00  0.00    +0.048 C 
ATOM     38  C   UNL     1       9.465  10.988   1.474  0.00  0.00    +0.229 C 
ENDBRANCH  36  38
ENDBRANCH  34  36
ENDBRANCH  28  34
ENDBRANCH  26  31
ENDBRANCH  24  26
ENDBRANCH  22  24
ENDBRANCH   1  22
TORSDOF 12
