REMARK  Name = ZINC33636465
REMARK  13 active torsions:
REMARK  status: ('A' for Active; 'I' for Inactive)
REMARK    1  A    between atoms: C_1  and  C_2
REMARK    2  A    between atoms: C_2  and  C_3
REMARK    3  A    between atoms: C_3  and  C_4
REMARK    4  A    between atoms: C_4  and  N_5
REMARK    5  A    between atoms: N_5  and  C_6
REMARK    6  A    between atoms: C_6  and  C_7
REMARK    7  A    between atoms: N_9  and  C_10
REMARK    8  A    between atoms: C_12  and  C_22
REMARK    9  A    between atoms: N_14  and  C_15
REMARK   10  A    between atoms: C_18  and  C_21
REMARK   11  A    between atoms: N_30  and  C_31
REMARK   12  A    between atoms: C_35  and  C_38
REMARK   13  A    between atoms: C_36  and  C_37
REMARK                            x       y       z     vdW  Elec       q    Type
REMARK                         _______ _______ _______ _____ _____    ______ ____
ROOT
ATOM      1  C   UNL     1      -1.777   6.555   1.120  0.00  0.00    +0.236 C 
ATOM      2  O   UNL     1      -1.124   6.232   2.090  0.00  0.00    -0.274 OA
ATOM      3  N   UNL     1      -2.937   7.223   1.280  0.00  0.00    -0.269 N 
ATOM      4  H   UNL     1      -3.529   7.515   0.401  0.00  0.00    +0.156 HD
ENDROOT
BRANCH   3   5
ATOM      5  C   UNL     1      -3.386   7.542   2.561  0.00  0.00    +0.129 A 
ATOM      6  C   UNL     1      -2.758   7.244   3.729  0.00  0.00    +0.074 A 
ATOM      7  C   UNL     1      -3.547   7.744   4.782  0.00  0.00    +0.095 A 
ATOM      8  N   UNL     1      -4.610   8.322   4.262  0.00  0.00    -0.165 NA
ATOM      9  N   UNL     1      -4.531   8.214   2.867  0.00  0.00    -0.218 N 
BRANCH   9  10
ATOM     10  C   UNL     1      -5.466   8.708   1.949  0.00  0.00    +0.067 A 
ATOM     11  C   UNL     1      -5.042   9.207   0.725  0.00  0.00    +0.028 A 
ATOM     12  C   UNL     1      -5.967   9.689  -0.181  0.00  0.00    +0.005 A 
ATOM     13  C   UNL     1      -7.314   9.684   0.135  0.00  0.00    -0.050 A 
ATOM     14  C   UNL     1      -7.738   9.192   1.356  0.00  0.00    +0.005 A 
ATOM     15  C   UNL     1      -6.819   8.704   2.264  0.00  0.00    +0.028 A 
ATOM     16  C   UNL     1      -8.320  10.216  -0.853  0.00  0.00    +0.044 C 
ENDBRANCH   9  10
BRANCH   7  17
ATOM     17  C   UNL     1      -3.235   7.638   6.229  0.00  0.00    +0.002 A 
ATOM     18  C   UNL     1      -2.074   6.992   6.649  0.00  0.00    +0.010 A 
ATOM     19  C   UNL     1      -1.786   6.902   7.995  0.00  0.00    +0.001 A 
ATOM     20  C   UNL     1      -2.653   7.441   8.928  0.00  0.00    +0.000 A 
ATOM     21  C   UNL     1      -3.810   8.079   8.518  0.00  0.00    +0.001 A 
ATOM     22  C   UNL     1      -4.105   8.180   7.173  0.00  0.00    +0.010 A 
ENDBRANCH   7  17
ENDBRANCH   3   5
BRANCH   1  23
ATOM     23  C   UNL     1      -1.292   6.210  -0.264  0.00  0.00    +0.205 C 
BRANCH  23  24
ATOM     24  N   UNL     1      -0.018   5.491  -0.170  0.00  0.00    -0.277 N 
ATOM     25  C   UNL     1      -0.009   4.147  -0.076  0.00  0.00    +0.307 C 
ATOM     26  O   UNL     1      -1.057   3.531  -0.070  0.00  0.00    -0.252 OA
ATOM     27  N   UNL     1       1.162   3.485   0.010  0.00  0.00    -0.269 N 
ATOM     28  H   UNL     1       2.105   4.045   0.097  0.00  0.00    +0.156 HD
BRANCH  27  29
ATOM     29  C   UNL     1       1.179   2.086  -0.011  0.00  0.00    +0.038 A 
ATOM     30  C   UNL     1       0.141   1.387  -0.614  0.00  0.00    +0.023 A 
ATOM     31  C   UNL     1       0.160   0.006  -0.633  0.00  0.00    +0.002 A 
ATOM     32  C   UNL     1       1.211  -0.680  -0.051  0.00  0.00    +0.004 A 
ATOM     33  C   UNL     1       2.245   0.013   0.550  0.00  0.00    -0.046 A 
ATOM     34  C   UNL     1       2.232   1.394   0.572  0.00  0.00    -0.026 A 
ATOM     35  C   UNL     1       3.359   2.149   1.228  0.00  0.00    +0.046 C 
ATOM     36  C   UNL     1       3.387  -0.739   1.182  0.00  0.00    +0.044 C 
ENDBRANCH  27  29
BRANCH  24  37
ATOM     37  C   UNL     1       1.244   6.234  -0.178  0.00  0.00    +0.110 C 
BRANCH  37  38
ATOM     38  C   UNL     1       1.734   6.392  -1.619  0.00  0.00    +0.019 C 
BRANCH  38  40
ATOM     39  C   UNL     1       3.542   7.326  -3.068  0.00  0.00    +0.004 C 
ATOM     40  C   UNL     1       3.053   7.168  -1.627  0.00  0.00    -0.002 C 
ENDBRANCH  38  40
ENDBRANCH  37  38
ENDBRANCH  24  37
ENDBRANCH  23  24
ENDBRANCH   1  23
TORSDOF 9
