REMARK  Name = ZINC67305317
REMARK  3 active torsions:
REMARK  status: ('A' for Active; 'I' for Inactive)
REMARK    1  A    between atoms: C_5  and  N_8
REMARK    2  A    between atoms: C_11  and  N_14
REMARK    3  A    between atoms: C_15  and  C_17
REMARK                            x       y       z     vdW  Elec       q    Type
REMARK                         _______ _______ _______ _____ _____    ______ ____
ROOT
ATOM      1  N   UNL     1       5.267  -2.027  -4.090  0.00  0.00    -0.314 N 
ATOM      2  C   UNL     1       5.991  -2.783  -4.940  0.00  0.00    +0.216 C 
ATOM      3  O   UNL     1       5.439  -3.384  -5.838  0.00  0.00    -0.276 OA
ATOM      4  H   UNL     1       5.709  -1.546  -3.373  0.00  0.00    +0.149 HD
ENDROOT
BRANCH   2   5
ATOM      5  C   UNL     1       7.486  -2.881  -4.775  0.00  0.00    +0.075 C 
ATOM      6  C   UNL     1       8.104  -1.487  -4.898  0.00  0.00    +0.015 C 
ATOM      7  C   UNL     1       9.622  -1.586  -4.720  0.00  0.00    +0.036 C 
ATOM      8  C   UNL     1      10.200  -2.513  -5.783  0.00  0.00    +0.112 C 
ATOM      9  C   UNL     1       9.576  -3.901  -5.686  0.00  0.00    +0.036 C 
ATOM     10  C   UNL     1       8.059  -3.794  -5.861  0.00  0.00    +0.015 C 
ATOM     11  C   UNL     1      11.703  -2.599  -5.648  0.00  0.00    +0.244 C 
ATOM     12  O   UNL     1      12.332  -3.009  -4.696  0.00  0.00    -0.273 OA
ATOM     13  N   UNL     1      12.197  -2.124  -6.810  0.00  0.00    -0.238 N 
ATOM     14  C   UNL     1      11.220  -1.755  -7.647  0.00  0.00    +0.307 C 
ATOM     15  O   UNL     1      11.417  -1.297  -8.755  0.00  0.00    -0.252 OA
ATOM     16  N   UNL     1       9.994  -1.950  -7.124  0.00  0.00    -0.285 N 
ATOM     17  H   UNL     1      13.143  -2.057  -7.013  0.00  0.00    +0.159 HD
ATOM     18  H   UNL     1       9.144  -1.756  -7.548  0.00  0.00    +0.151 HD
ENDBRANCH   2   5
BRANCH   1  22
ATOM     19  N   UNL     1       1.977  -1.048  -2.990  0.00  0.00    +0.383 N 
ATOM     20  C   UNL     1       2.220  -2.412  -2.454  0.00  0.00    -0.077 C 
ATOM     21  C   UNL     1       3.116  -3.092  -3.511  0.00  0.00    +0.002 C 
ATOM     22  C   UNL     1       3.814  -1.932  -4.251  0.00  0.00    +0.055 C 
ATOM     23  C   UNL     1       3.281  -0.649  -3.578  0.00  0.00    -0.056 C 
ATOM     24  H   UNL     1       1.261  -1.069  -3.701  0.00  0.00    -0.081 HD
BRANCH  19  29
ATOM     25  C   UNL     1      -0.019   1.538   0.011  0.00  0.00    -0.000 C 
ATOM     26  C   UNL     1       1.401   2.036  -0.000  0.00  0.00    -0.000 C 
ATOM     27  C   UNL     1       1.910   2.335  -1.423  0.00  0.00    -0.002 C 
ATOM     28  C   UNL     1       1.480   1.268  -2.449  0.00  0.00    -0.015 C 
ATOM     29  C   UNL     1       1.598  -0.131  -1.907  0.00  0.00    -0.069 C 
ATOM     30  C   UNL     1       0.231  -0.548  -1.328  0.00  0.00    -0.015 C 
ATOM     31  C   UNL     1       0.002  -0.004   0.002  0.00  0.00    -0.002 C 
ENDBRANCH  19  29
ENDBRANCH   1  22
TORSDOF 3
