REMARK  Name = ZINC34758073
REMARK  6 active torsions:
REMARK  status: ('A' for Active; 'I' for Inactive)
REMARK    1  A    between atoms: C_2  and  C_3
REMARK    2  A    between atoms: C_3  and  N_4
REMARK    3  A    between atoms: C_17  and  S_19
REMARK    4  A    between atoms: S_19  and  C_20
REMARK    5  A    between atoms: C_20  and  C_21
REMARK    6  A    between atoms: N_23  and  C_24
REMARK                            x       y       z     vdW  Elec       q    Type
REMARK                         _______ _______ _______ _____ _____    ______ ____
ROOT
ATOM      1  N   UNL     1      -0.159  -1.868  -2.004  0.00  0.00    +0.384 N 
ATOM      2  C   UNL     1       0.152  -2.770  -3.120  0.00  0.00    -0.059 C 
ATOM      3  C   UNL     1      -1.011  -3.746  -3.325  0.00  0.00    +0.088 C 
ATOM      4  N   UNL     1      -2.248  -2.969  -3.499  0.00  0.00    -0.318 N 
ATOM      5  C   UNL     1      -2.555  -1.925  -2.509  0.00  0.00    +0.088 C 
ATOM      6  C   UNL     1      -1.319  -1.034  -2.342  0.00  0.00    -0.059 C 
ATOM      7  C   UNL     1      -3.097  -3.212  -4.562  0.00  0.00    +0.134 A 
ATOM      8  C   UNL     1      -4.089  -4.228  -4.475  0.00  0.00    +0.051 A 
ATOM      9  C   UNL     1      -4.376  -5.130  -3.346  0.00  0.00    -0.025 A 
ATOM     10  C   UNL     1      -5.373  -6.013  -3.514  0.00  0.00    -0.004 A 
ATOM     11  S   UNL     1      -5.991  -5.709  -5.153  0.00  0.00    -0.073 S 
ATOM     12  C   UNL     1      -4.899  -4.391  -5.613  0.00  0.00    +0.115 A 
ATOM     13  N   UNL     1      -4.739  -3.642  -6.688  0.00  0.00    -0.214 NA
ATOM     14  C   UNL     1      -3.798  -2.708  -6.715  0.00  0.00    +0.191 A 
ATOM     15  N   UNL     1      -3.002  -2.499  -5.673  0.00  0.00    -0.206 NA
ATOM     16  C   UNL     1      -5.572  -6.883  -2.301  0.00  0.00    +0.043 C 
ATOM     17  C   UNL     1      -4.269  -6.717  -1.488  0.00  0.00    +0.010 C 
ATOM     18  C   UNL     1      -3.790  -5.325  -1.945  0.00  0.00    +0.037 C 
ATOM     19  H   UNL     1      -0.367  -2.414  -1.181  0.00  0.00    -0.081 HD
ENDROOT
BRANCH   1  20
ATOM     20  C   UNL     1       1.000  -1.005  -1.737  0.00  0.00    -0.052 C 
BRANCH  20  22
ATOM     21  C   UNL     1       3.308  -1.785  -1.894  0.00  0.00    +0.002 C 
ATOM     22  C   UNL     1       2.158  -1.849  -1.271  0.00  0.00    -0.053 C 
ENDBRANCH  20  22
ENDBRANCH   1  20
BRANCH  14  23
ATOM     23  S   UNL     1      -3.603  -1.721  -8.162  0.00  0.00    -0.077 S 
BRANCH  23  24
ATOM     24  C   UNL     1      -4.877  -2.343  -9.293  0.00  0.00    +0.173 C 
BRANCH  24  25
ATOM     25  C   UNL     1      -4.819  -1.573 -10.587  0.00  0.00    +0.228 C 
ATOM     26  O   UNL     1      -3.999  -0.692 -10.732  0.00  0.00    -0.275 OA
ATOM     27  N   UNL     1      -5.679  -1.864 -11.583  0.00  0.00    -0.284 N 
ATOM     28  H   UNL     1      -6.388  -2.511 -11.439  0.00  0.00    +0.155 HD
BRANCH  27  29
ATOM     29  C   UNL     1      -5.551  -1.234 -12.822  0.00  0.00    +0.041 A 
ATOM     30  C   UNL     1      -4.303  -0.907 -13.310  0.00  0.00    +0.024 A 
ATOM     31  C   UNL     1      -4.164  -0.280 -14.544  0.00  0.00    +0.002 A 
ATOM     32  C   UNL     1      -5.252   0.028 -15.303  0.00  0.00    +0.008 A 
ATOM     33  C   UNL     1      -6.541  -0.288 -14.842  0.00  0.00    -0.016 A 
ATOM     34  C   UNL     1      -6.696  -0.932 -13.590  0.00  0.00    +0.003 A 
ATOM     35  C   UNL     1      -7.984  -1.251 -13.133  0.00  0.00    +0.010 A 
ATOM     36  C   UNL     1      -9.066  -0.944 -13.899  0.00  0.00    +0.001 A 
ATOM     37  C   UNL     1      -8.915  -0.317 -15.134  0.00  0.00    +0.001 A 
ATOM     38  C   UNL     1      -7.682   0.018 -15.604  0.00  0.00    +0.008 A 
ENDBRANCH  27  29
ENDBRANCH  24  25
ENDBRANCH  23  24
ENDBRANCH  14  23
TORSDOF 6
