REMARK  Name = ZINC66244520
REMARK  10 active torsions:
REMARK  status: ('A' for Active; 'I' for Inactive)
REMARK    1  A    between atoms: C_1  and  O_2
REMARK    2  A    between atoms: O_2  and  C_3
REMARK    3  A    between atoms: C_6  and  C_9
REMARK    4  A    between atoms: C_9  and  C_10
REMARK    5  A    between atoms: C_10  and  N_11
REMARK    6  A    between atoms: N_14  and  C_15
REMARK    7  A    between atoms: C_15  and  C_16
REMARK    8  A    between atoms: N_20  and  C_22
REMARK    9  A    between atoms: C_27  and  O_28
REMARK   10  A    between atoms: O_28  and  C_29
REMARK                            x       y       z     vdW  Elec       q    Type
REMARK                         _______ _______ _______ _____ _____    ______ ____
ROOT
ATOM      1  N   UNL     1       4.636  -3.373  -5.207  0.00  0.00    -0.357 N 
ATOM      2  C   UNL     1       5.977  -3.672  -5.154  0.00  0.00    +0.169 C 
ATOM      3  N   UNL     1       6.669  -3.377  -4.089  0.00  0.00    -0.371 N 
ATOM      4  N   UNL     1       6.588  -4.282  -6.224  0.00  0.00    -0.357 N 
ATOM      5  H   UNL     1       4.121  -3.592  -5.999  0.00  0.00    +0.162 HD
ATOM      6  H   UNL     1       7.615  -3.589  -4.052  0.00  0.00    +0.159 HD
ATOM      7  H   UNL     1       6.073  -4.501  -7.016  0.00  0.00    +0.162 HD
ATOM      8  H   UNL     1       6.239  -2.947  -3.334  0.00  0.00    +0.159 HD
ENDROOT
BRANCH   1   9
ATOM      9  C   UNL     1       3.986  -2.723  -4.066  0.00  0.00    +0.120 C 
BRANCH   9  10
ATOM     10  C   UNL     1       2.505  -2.503  -4.381  0.00  0.00    +0.056 C 
BRANCH  10  14
ATOM     11  C   UNL     1       0.606  -0.607  -1.056  0.00  0.00    +0.120 A 
ATOM     12  C   UNL     1       1.173   0.161  -2.062  0.00  0.00    +0.046 A 
ATOM     13  C   UNL     1       1.786  -0.455  -3.136  0.00  0.00    +0.007 A 
ATOM     14  C   UNL     1       1.835  -1.835  -3.209  0.00  0.00    -0.045 A 
ATOM     15  C   UNL     1       1.270  -2.602  -2.207  0.00  0.00    +0.007 A 
ATOM     16  C   UNL     1       0.661  -1.992  -1.128  0.00  0.00    +0.046 A 
BRANCH  11  18
ATOM     17  C   UNL     1      -0.017   1.425   0.010  0.00  0.00    +0.277 C 
ATOM     18  O   UNL     1       0.002  -0.004   0.002  0.00  0.00    -0.495 OA
ENDBRANCH  11  18
ENDBRANCH  10  14
ENDBRANCH   9  10
ENDBRANCH   1   9
BRANCH   4  19
ATOM     19  C   UNL     1       8.017  -4.601  -6.168  0.00  0.00    +0.120 C 
BRANCH  19  20
ATOM     20  C   UNL     1       8.442  -5.270  -7.476  0.00  0.00    +0.027 C 
ATOM     21  C   UNL     1       7.831  -6.691  -7.599  0.00  0.00    +0.025 C 
ATOM     22  C   UNL     1       8.836  -7.422  -8.514  0.00  0.00    +0.105 C 
ATOM     23  N   UNL     1      10.116  -6.703  -8.418  0.00  0.00    -0.327 N 
ATOM     24  C   UNL     1       9.959  -5.582  -7.473  0.00  0.00    +0.110 C 
BRANCH  23  25
ATOM     25  C   UNL     1      11.288  -7.030  -9.109  0.00  0.00    +0.072 A 
ATOM     26  C   UNL     1      11.540  -6.472 -10.354  0.00  0.00    +0.027 A 
ATOM     27  C   UNL     1      12.698  -6.796 -11.035  0.00  0.00    +0.002 A 
ATOM     28  C   UNL     1      13.609  -7.674 -10.477  0.00  0.00    +0.004 A 
ATOM     29  C   UNL     1      13.365  -8.234  -9.237  0.00  0.00    +0.047 A 
ATOM     30  C   UNL     1      12.209  -7.911  -8.546  0.00  0.00    +0.141 A 
BRANCH  30  31
ATOM     31  O   UNL     1      11.970  -8.457  -7.323  0.00  0.00    -0.493 OA
ATOM     32  C   UNL     1      12.957  -9.352  -6.808  0.00  0.00    +0.277 C 
ENDBRANCH  30  31
ENDBRANCH  23  25
ENDBRANCH  19  20
ENDBRANCH   4  19
TORSDOF 8
