REMARK  Name = ZINC36637659
REMARK  12 active torsions:
REMARK  status: ('A' for Active; 'I' for Inactive)
REMARK    1  A    between atoms: C_1  and  C_2
REMARK    2  A    between atoms: C_4  and  C_36
REMARK    3  A    between atoms: N_11  and  C_12
REMARK    4  A    between atoms: C_12  and  C_13
REMARK    5  A    between atoms: C_13  and  N_14
REMARK    6  A    between atoms: N_14  and  C_15
REMARK    7  A    between atoms: N_14  and  C_16
REMARK    8  A    between atoms: C_17  and  C_19
REMARK    9  A    between atoms: C_22  and  S_25
REMARK   10  A    between atoms: S_25  and  N_28
REMARK   11  A    between atoms: N_28  and  C_29
REMARK   12  A    between atoms: N_28  and  C_30
REMARK                            x       y       z     vdW  Elec       q    Type
REMARK                         _______ _______ _______ _____ _____    ______ ____
ROOT
ATOM      1  C   UNL     1      -1.679  -1.278  -2.400  0.00  0.00    +0.044 C 
ATOM      2  C   UNL     1      -1.502  -2.717  -1.990  0.00  0.00    -0.048 A 
ATOM      3  C   UNL     1      -1.619  -3.714  -2.948  0.00  0.00    +0.008 A 
ATOM      4  C   UNL     1      -1.456  -5.035  -2.574  0.00  0.00    -0.034 A 
ATOM      5  C   UNL     1      -1.182  -5.339  -1.264  0.00  0.00    +0.044 A 
ATOM      6  C   UNL     1      -1.056  -4.351  -0.261  0.00  0.00    +0.081 A 
ATOM      7  C   UNL     1      -1.223  -3.011  -0.681  0.00  0.00    +0.032 A 
ATOM      8  N   UNL     1      -0.785  -4.808   0.980  0.00  0.00    -0.224 NA
ATOM      9  C   UNL     1      -0.646  -6.086   1.247  0.00  0.00    +0.168 A 
ATOM     10  S   UNL     1      -0.904  -6.839  -0.353  0.00  0.00    -0.052 S 
ATOM     11  N   UNL     1      -0.370  -6.695   2.459  0.00  0.00    -0.248 N 
ATOM     12  C   UNL     1      -0.265  -8.036   2.531  0.00  0.00    +0.252 C 
ATOM     13  O   UNL     1      -0.363  -8.708   1.523  0.00  0.00    -0.270 OA
ATOM     14  C   UNL     1      -1.579  -6.134  -3.598  0.00  0.00    +0.045 C 
ENDROOT
BRANCH  12  15
ATOM     15  C   UNL     1      -0.029  -8.691   3.835  0.00  0.00    +0.037 A 
ATOM     16  C   UNL     1      -0.680  -8.227   4.979  0.00  0.00    +0.015 A 
ATOM     17  C   UNL     1      -0.456  -8.842   6.194  0.00  0.00    +0.029 A 
ATOM     18  C   UNL     1       0.412  -9.916   6.279  0.00  0.00    +0.109 A 
ATOM     19  C   UNL     1       1.060 -10.381   5.148  0.00  0.00    +0.029 A 
ATOM     20  C   UNL     1       0.841  -9.779   3.927  0.00  0.00    +0.015 A 
BRANCH  18  21
ATOM     21  S   UNL     1       0.693 -10.695   7.834  0.00  0.00    +0.074 S 
ATOM     22  O   UNL     1       1.963 -11.328   7.747  0.00  0.00    -0.150 OA
ATOM     23  O   UNL     1       0.389  -9.731   8.832  0.00  0.00    -0.150 OA
BRANCH  21  24
ATOM     24  N   UNL     1      -0.428 -11.904   7.986  0.00  0.00    -0.206 N 
ATOM     25  C   UNL     1      -0.089 -13.273   7.589  0.00  0.00    +0.157 C 
BRANCH  24  26
ATOM     26  C   UNL     1      -1.698 -11.619   8.492  0.00  0.00    +0.051 A 
ATOM     27  C   UNL     1      -2.827 -11.867   7.721  0.00  0.00    +0.025 A 
ATOM     28  C   UNL     1      -4.081 -11.584   8.225  0.00  0.00    +0.002 A 
ATOM     29  C   UNL     1      -4.215 -11.054   9.495  0.00  0.00    +0.000 A 
ATOM     30  C   UNL     1      -3.093 -10.806  10.266  0.00  0.00    +0.002 A 
ATOM     31  C   UNL     1      -1.836 -11.092   9.770  0.00  0.00    +0.025 A 
ENDBRANCH  24  26
ENDBRANCH  21  24
ENDBRANCH  18  21
ENDBRANCH  12  15
BRANCH  11  32
ATOM     32  C   UNL     1      -0.193  -5.881   3.664  0.00  0.00    +0.097 C 
BRANCH  32  33
ATOM     33  C   UNL     1      -1.556  -5.379   4.146  0.00  0.00    -0.060 C 
BRANCH  33  34
ATOM     34  N   UNL     1      -1.395  -4.680   5.428  0.00  0.00    +0.377 N 
ATOM     35  C   UNL     1      -0.584  -3.471   5.228  0.00  0.00    -0.097 C 
ATOM     36  C   UNL     1      -2.715  -4.303   5.949  0.00  0.00    -0.097 C 
ATOM     37  H   UNL     1      -0.934  -5.288   6.088  0.00  0.00    -0.083 HD
ENDBRANCH  33  34
ENDBRANCH  32  33
ENDBRANCH  11  32
TORSDOF 7
