REMARK  Name = ZINC63782043
REMARK  8 active torsions:
REMARK  status: ('A' for Active; 'I' for Inactive)
REMARK    1  A    between atoms: C_1  and  C_2
REMARK    2  A    between atoms: C_2  and  C_4
REMARK    3  A    between atoms: C_2  and  N_19
REMARK    4  A    between atoms: N_6  and  C_7
REMARK    5  A    between atoms: C_7  and  C_8
REMARK    6  A    between atoms: C_8  and  C_9
REMARK    7  A    between atoms: C_20  and  C_22
REMARK    8  A    between atoms: C_29  and  N_32
REMARK                            x       y       z     vdW  Elec       q    Type
REMARK                         _______ _______ _______ _____ _____    ______ ____
ROOT
ATOM      1  C   UNL     1      -0.019   1.526   0.010  0.00  0.00    +0.038 C 
ATOM      2  C   UNL     1       0.002  -0.004   0.002  0.00  0.00    +0.156 C 
ENDROOT
BRANCH   2   3
ATOM      3  C   UNL     1       0.731  -0.503   1.223  0.00  0.00    +0.233 C 
ATOM      4  O   UNL     1       0.159  -1.213   2.023  0.00  0.00    -0.274 OA
ATOM      5  N   UNL     1       2.019  -0.161   1.426  0.00  0.00    -0.313 N 
ATOM      6  H   UNL     1       2.476   0.406   0.786  0.00  0.00    +0.149 HD
BRANCH   5   7
ATOM      7  C   UNL     1       2.727  -0.647   2.613  0.00  0.00    +0.108 C 
BRANCH   7   8
ATOM      8  C   UNL     1       4.163  -0.117   2.602  0.00  0.00    +0.052 C 
BRANCH   8   9
ATOM      9  C   UNL     1       4.891  -0.616   3.823  0.00  0.00    -0.040 C 
ATOM     10  C   UNL     1       5.684  -1.709   3.906  0.00  0.00    +0.002 A 
ATOM     11  C   UNL     1       6.089  -2.721   2.923  0.00  0.00    +0.048 A 
ATOM     12  C   UNL     1       6.912  -3.722   3.313  0.00  0.00    +0.124 A 
ATOM     13  C   UNL     1       7.387  -3.816   4.631  0.00  0.00    +0.040 A 
ATOM     14  C   UNL     1       7.058  -2.924   5.589  0.00  0.00    +0.029 A 
ATOM     15  C   UNL     1       6.199  -1.831   5.289  0.00  0.00    +0.043 A 
ATOM     16  N   UNL     1       5.742  -0.852   6.031  0.00  0.00    -0.380 N 
ATOM     17  C   UNL     1       4.890   0.007   5.201  0.00  0.00    +0.144 C 
ATOM     18  F   UNL     1       7.287  -4.656   2.411  0.00  0.00    -0.205 F 
ATOM     19  H   UNL     1       5.937  -0.716   6.972  0.00  0.00    +0.160 HD
ENDBRANCH   8   9
ENDBRANCH   7   8
ENDBRANCH   5   7
ENDBRANCH   2   3
BRANCH   2  20
ATOM     20  N   UNL     1      -1.372  -0.511   0.012  0.00  0.00    -0.300 N 
ATOM     21  C   UNL     1      -2.051  -0.643  -1.145  0.00  0.00    +0.245 C 
ATOM     22  O   UNL     1      -1.522  -0.341  -2.197  0.00  0.00    -0.270 OA
ATOM     23  H   UNL     1      -1.794  -0.752   0.852  0.00  0.00    +0.150 HD
BRANCH  21  24
ATOM     24  C   UNL     1      -3.435  -1.153  -1.134  0.00  0.00    +0.038 A 
ATOM     25  C   UNL     1      -4.058  -1.499   0.068  0.00  0.00    +0.015 A 
ATOM     26  C   UNL     1      -5.343  -1.974   0.085  0.00  0.00    +0.025 A 
ATOM     27  C   UNL     1      -6.083  -2.131  -1.105  0.00  0.00    +0.043 A 
ATOM     28  C   UNL     1      -5.437  -1.777  -2.297  0.00  0.00    +0.033 A 
ATOM     29  C   UNL     1      -4.153  -1.296  -2.328  0.00  0.00    +0.029 A 
ATOM     30  S   UNL     1      -6.628  -2.091  -3.580  0.00  0.00    -0.079 S 
ATOM     31  C   UNL     1      -7.998  -2.698  -2.516  0.00  0.00    +0.237 C 
ATOM     32  N   UNL     1      -7.386  -2.602  -1.184  0.00  0.00    -0.314 N 
ATOM     33  H   UNL     1      -7.876  -2.860  -0.388  0.00  0.00    +0.149 HD
BRANCH  31  34
ATOM     34  N   UNL     1      -8.342  -4.085  -2.841  0.00  0.00    -0.326 N 
ATOM     35  C   UNL     1      -7.776  -5.195  -2.288  0.00  0.00    +0.088 A 
ATOM     36  C   UNL     1      -8.352  -6.282  -2.838  0.00  0.00    +0.019 A 
ATOM     37  C   UNL     1      -9.310  -5.827  -3.766  0.00  0.00    +0.019 A 
ATOM     38  C   UNL     1      -9.286  -4.479  -3.743  0.00  0.00    +0.088 A 
ENDBRANCH  31  34
ENDBRANCH  21  24
ENDBRANCH   2  20
TORSDOF 7
