REMARK  Name = ZINC36005208
REMARK  13 active torsions:
REMARK  status: ('A' for Active; 'I' for Inactive)
REMARK    1  A    between atoms: C_1  and  C_2
REMARK    2  A    between atoms: C_2  and  O_3
REMARK    3  A    between atoms: O_3  and  C_4
REMARK    4  A    between atoms: C_4  and  C_6
REMARK    5  A    between atoms: C_7  and  C_25
REMARK    6  A    between atoms: N_8  and  C_24
REMARK    7  A    between atoms: C_12  and  C_14
REMARK    8  A    between atoms: C_17  and  C_20
REMARK    9  A    between atoms: C_20  and  C_21
REMARK   10  A    between atoms: C_20  and  C_22
REMARK   11  A    between atoms: C_20  and  C_23
REMARK   12  A    between atoms: C_25  and  N_26
REMARK   13  A    between atoms: C_33  and  C_35
REMARK                            x       y       z     vdW  Elec       q    Type
REMARK                         _______ _______ _______ _____ _____    ______ ____
ROOT
ATOM      1  C   UNL     1      -2.159  -3.165   1.153  0.00  0.00    +0.076 C 
ATOM      2  C   UNL     1      -2.804  -4.119   0.447  0.00  0.00    +0.010 C 
ATOM      3  N   UNL     1      -4.143  -4.027   0.197  0.00  0.00    -0.264 N 
ATOM      4  C   UNL     1      -4.909  -3.012   0.618  0.00  0.00    +0.307 C 
ATOM      5  O   UNL     1      -6.093  -3.017   0.345  0.00  0.00    -0.252 OA
ATOM      6  N   UNL     1      -4.409  -1.986   1.334  0.00  0.00    -0.288 N 
ATOM      7  C   UNL     1      -2.974  -1.994   1.663  0.00  0.00    +0.143 C 
ATOM      8  C   UNL     1      -4.777  -5.097  -0.576  0.00  0.00    +0.139 C 
ATOM      9  H   UNL     1      -4.982  -1.260   1.629  0.00  0.00    +0.151 HD
ENDROOT
BRANCH   7  10
ATOM     10  C   UNL     1      -2.835  -1.950   3.163  0.00  0.00    -0.022 A 
ATOM     11  C   UNL     1      -3.586  -2.801   3.952  0.00  0.00    +0.006 A 
ATOM     12  C   UNL     1      -3.459  -2.761   5.327  0.00  0.00    +0.004 A 
ATOM     13  C   UNL     1      -2.582  -1.869   5.915  0.00  0.00    -0.042 A 
ATOM     14  C   UNL     1      -1.831  -1.018   5.126  0.00  0.00    +0.004 A 
ATOM     15  C   UNL     1      -1.954  -1.061   3.750  0.00  0.00    +0.006 A 
BRANCH  13  16
ATOM     16  C   UNL     1      -2.445  -1.824   7.415  0.00  0.00    -0.013 C 
ATOM     17  C   UNL     1      -1.980  -3.189   7.926  0.00  0.00    +0.015 C 
ATOM     18  C   UNL     1      -1.417  -0.759   7.801  0.00  0.00    +0.015 C 
ATOM     19  C   UNL     1      -3.797  -1.478   8.041  0.00  0.00    +0.015 C 
ENDBRANCH  13  16
ENDBRANCH   7  10
BRANCH   1  20
ATOM     20  C   UNL     1      -0.772  -3.260   1.414  0.00  0.00    +0.339 C 
ATOM     21  O   UNL     1      -0.163  -4.267   1.106  0.00  0.00    -0.245 OA
BRANCH  20  22
ATOM     22  O   UNL     1      -0.124  -2.234   2.003  0.00  0.00    -0.462 OA
BRANCH  22  24
ATOM     23  C   UNL     1       1.832  -1.140   2.907  0.00  0.00    +0.048 C 
ATOM     24  C   UNL     1       1.276  -2.398   2.236  0.00  0.00    +0.229 C 
ENDBRANCH  22  24
ENDBRANCH  20  22
ENDBRANCH   1  20
BRANCH   2  25
ATOM     25  C   UNL     1      -2.032  -5.304  -0.074  0.00  0.00    -0.026 C 
BRANCH  25  26
ATOM     26  N   UNL     1      -1.928  -6.322   0.980  0.00  0.00    +0.384 N 
ATOM     27  C   UNL     1      -0.967  -7.335   0.548  0.00  0.00    -0.077 C 
ATOM     28  C   UNL     1      -0.301  -7.941   1.764  0.00  0.00    +0.000 C 
ATOM     29  C   UNL     1      -1.064  -9.209   2.188  0.00  0.00    +0.106 C 
ATOM     30  N   UNL     1      -2.523  -9.018   2.061  0.00  0.00    -0.297 N 
ATOM     31  C   UNL     1      -3.181  -7.789   2.454  0.00  0.00    +0.089 C 
ATOM     32  C   UNL     1      -3.224  -6.810   1.258  0.00  0.00    -0.059 C 
ATOM     33  C   UNL     1      -3.269 -10.023   1.561  0.00  0.00    +0.282 C 
ATOM     34  O   UNL     1      -2.758 -11.103   1.329  0.00  0.00    -0.267 OA
ATOM     35  H   UNL     1      -1.568  -5.880   1.813  0.00  0.00    -0.081 HD
BRANCH  33  36
ATOM     36  C   UNL     1      -4.697  -9.815   1.297  0.00  0.00    +0.189 A 
ATOM     37  C   UNL     1      -5.588 -10.773   0.905  0.00  0.00    +0.054 A 
ATOM     38  C   UNL     1      -6.831 -10.136   0.770  0.00  0.00    +0.042 A 
ATOM     39  C   UNL     1      -6.647  -8.834   1.081  0.00  0.00    +0.196 A 
ATOM     40  O   UNL     1      -5.360  -8.646   1.403  0.00  0.00    -0.458 OA
ENDBRANCH  33  36
ENDBRANCH  25  26
ENDBRANCH   2  25
TORSDOF 8
