REMARK  Name = ZINC20697130
REMARK  11 active torsions:
REMARK  status: ('A' for Active; 'I' for Inactive)
REMARK    1  A    between atoms: C_1  and  C_2
REMARK    2  A    between atoms: C_2  and  N_3
REMARK    3  A    between atoms: N_3  and  C_4
REMARK    4  A    between atoms: N_3  and  C_6
REMARK    5  A    between atoms: C_4  and  C_5
REMARK    6  A    between atoms: C_9  and  C_12
REMARK    7  A    between atoms: C_23  and  S_28
REMARK    8  A    between atoms: S_28  and  N_31
REMARK    9  A    between atoms: N_31  and  C_32
REMARK   10  A    between atoms: C_33  and  C_39
REMARK   11  A    between atoms: C_37  and  C_38
REMARK                            x       y       z     vdW  Elec       q    Type
REMARK                         _______ _______ _______ _____ _____    ______ ____
ROOT
ATOM      1  C   UNL     1      -2.021  -0.495   0.119  0.00  0.00    +0.105 C 
ATOM      2  C   UNL     1      -2.594  -0.444   1.524  0.00  0.00    +0.029 C 
ATOM      3  C   UNL     1      -2.019  -1.429   2.551  0.00  0.00    +0.033 C 
ATOM      4  C   UNL     1      -3.216  -1.638   3.480  0.00  0.00    -0.030 C 
ATOM      5  C   UNL     1      -4.347  -1.412   2.822  0.00  0.00    -0.023 C 
ATOM      6  C   UNL     1      -4.016  -1.071   1.415  0.00  0.00    +0.049 C 
ATOM      7  C   UNL     1      -4.857  -0.156   0.613  0.00  0.00    -0.018 A 
ATOM      8  C   UNL     1      -6.203   0.013   0.852  0.00  0.00    +0.034 A 
ATOM      9  C   UNL     1      -6.955   0.852   0.050  0.00  0.00    +0.109 A 
ATOM     10  C   UNL     1      -6.354   1.527  -0.997  0.00  0.00    +0.030 A 
ATOM     11  C   UNL     1      -5.005   1.371  -1.240  0.00  0.00    +0.025 A 
ATOM     12  C   UNL     1      -4.240   0.535  -0.436  0.00  0.00    +0.031 A 
ATOM     13  N   UNL     1      -2.869   0.405  -0.692  0.00  0.00    -0.336 N 
ATOM     14  H   UNL     1      -2.426   0.987  -1.513  0.00  0.00    +0.147 HD
ENDROOT
BRANCH   1  18
ATOM     15  C   UNL     1       2.021   0.894   0.116  0.00  0.00    +0.030 A 
ATOM     16  C   UNL     1       1.752  -0.466   0.026  0.00  0.00    +0.023 A 
ATOM     17  C   UNL     1       0.445  -0.912   0.031  0.00  0.00    +0.007 A 
ATOM     18  C   UNL     1      -0.596  -0.006   0.120  0.00  0.00    -0.027 A 
ATOM     19  C   UNL     1      -0.331   1.348   0.216  0.00  0.00    +0.007 A 
ATOM     20  C   UNL     1       0.973   1.801   0.211  0.00  0.00    +0.023 A 
BRANCH  15  21
ATOM     21  N   UNL     1       3.342   1.348   0.111  0.00  0.00    -0.330 N 
BRANCH  21  23
ATOM     22  C   UNL     1       3.763   3.179   1.678  0.00  0.00    +0.024 C 
ATOM     23  C   UNL     1       3.623   2.783   0.206  0.00  0.00    +0.102 C 
ENDBRANCH  21  23
BRANCH  21  24
ATOM     24  C   UNL     1       4.446   0.390   0.010  0.00  0.00    +0.102 C 
ATOM     25  C   UNL     1       4.788   0.160  -1.463  0.00  0.00    +0.024 C 
ENDBRANCH  21  24
ENDBRANCH  15  21
ENDBRANCH   1  18
BRANCH   9  26
ATOM     26  S   UNL     1      -8.676   1.061   0.362  0.00  0.00    +0.072 S 
ATOM     27  O   UNL     1      -8.902   0.633   1.698  0.00  0.00    -0.150 OA
ATOM     28  O   UNL     1      -9.015   2.365  -0.087  0.00  0.00    -0.150 OA
BRANCH  26  29
ATOM     29  N   UNL     1      -9.484  -0.002  -0.618  0.00  0.00    -0.216 N 
ATOM     30  H   UNL     1     -10.131   0.376  -1.424  0.00  0.00    +0.174 HD
BRANCH  29  31
ATOM     31  C   UNL     1      -9.343  -1.378  -0.422  0.00  0.00    +0.054 A 
ATOM     32  C   UNL     1      -8.550  -2.126  -1.282  0.00  0.00    -0.028 A 
ATOM     33  C   UNL     1      -8.410  -3.486  -1.083  0.00  0.00    +0.005 A 
ATOM     34  C   UNL     1      -9.066  -4.103  -0.034  0.00  0.00    +0.001 A 
ATOM     35  C   UNL     1      -9.861  -3.362   0.821  0.00  0.00    +0.005 A 
ATOM     36  C   UNL     1     -10.002  -2.002   0.630  0.00  0.00    -0.028 A 
ATOM     37  C   UNL     1     -10.868  -1.195   1.562  0.00  0.00    +0.046 C 
ATOM     38  C   UNL     1      -7.839  -1.455  -2.429  0.00  0.00    +0.046 C 
ENDBRANCH  29  31
ENDBRANCH  26  29
ENDBRANCH   9  26
TORSDOF 7
