REMARK  Name = ZINC22018292
REMARK  5 active torsions:
REMARK  status: ('A' for Active; 'I' for Inactive)
REMARK    1  A    between atoms: C_1  and  C_2
REMARK    2  A    between atoms: C_3  and  C_27
REMARK    3  A    between atoms: C_5  and  C_7
REMARK    4  A    between atoms: C_27  and  O_29
REMARK    5  A    between atoms: O_29  and  C_30
REMARK                            x       y       z     vdW  Elec       q    Type
REMARK                         _______ _______ _______ _____ _____    ______ ____
ROOT
ATOM      1  C   UNL     1       1.747  -3.219  -0.026  0.00  0.00    +0.244 C 
ATOM      2  N   UNL     1       2.895  -2.906   0.847  0.00  0.00    -0.292 N 
ATOM      3  C   UNL     1       3.898  -2.097   0.333  0.00  0.00    +0.159 C 
ATOM      4  N   UNL     1       4.318  -1.040   0.968  0.00  0.00    -0.375 N 
ATOM      5  N   UNL     1       4.433  -2.475  -0.899  0.00  0.00    -0.259 N 
ATOM      6  C   UNL     1       3.526  -3.058  -1.782  0.00  0.00    +0.205 A 
ATOM      7  N   UNL     1       2.260  -3.421  -1.385  0.00  0.00    -0.285 N 
ATOM      8  C   UNL     1       1.625  -3.972  -2.477  0.00  0.00    +0.076 A 
ATOM      9  C   UNL     1       0.364  -4.513  -2.690  0.00  0.00    +0.077 A 
ATOM     10  C   UNL     1       0.024  -4.987  -3.942  0.00  0.00    +0.164 A 
ATOM     11  C   UNL     1       0.937  -4.928  -4.992  0.00  0.00    +0.164 A 
ATOM     12  C   UNL     1       2.195  -4.399  -4.794  0.00  0.00    +0.079 A 
ATOM     13  C   UNL     1       2.552  -3.914  -3.532  0.00  0.00    +0.095 A 
ATOM     14  N   UNL     1       3.692  -3.346  -3.039  0.00  0.00    -0.214 NA
ATOM     15  O   UNL     1       0.580  -5.399  -6.223  0.00  0.00    -0.488 OA
ATOM     16  C   UNL     1       0.397  -6.812  -6.324  0.00  0.00    +0.232 C 
ATOM     17  C   UNL     1      -1.006  -7.207  -5.890  0.00  0.00    +0.082 C 
ATOM     18  C   UNL     1      -1.259  -6.921  -4.418  0.00  0.00    +0.232 C 
ATOM     19  O   UNL     1      -1.216  -5.517  -4.159  0.00  0.00    -0.488 OA
ATOM     20  H   UNL     1       2.946  -3.256   1.750  0.00  0.00    +0.151 HD
ATOM     21  H   UNL     1       5.367  -2.342  -1.124  0.00  0.00    +0.158 HD
ATOM     22  H   UNL     1       3.928  -0.801   1.824  0.00  0.00    +0.158 HD
ATOM     23  H   UNL     1       5.021  -0.492   0.586  0.00  0.00    +0.158 HD
ENDROOT
BRANCH   1  28
ATOM     24  C   UNL     1      -0.018   1.503   0.010  0.00  0.00    +0.087 C 
ATOM     25  C   UNL     1       0.002  -0.004   0.002  0.00  0.00    +0.116 A 
ATOM     26  C   UNL     1      -1.094  -0.818   0.003  0.00  0.00    +0.100 A 
ATOM     27  C   UNL     1      -0.567  -2.191  -0.008  0.00  0.00    +0.064 A 
ATOM     28  C   UNL     1       0.769  -2.073  -0.014  0.00  0.00    +0.147 A 
ATOM     29  O   UNL     1       1.096  -0.771  -0.013  0.00  0.00    -0.460 OA
BRANCH  26  30
ATOM     30  C   UNL     1      -2.508  -0.407   0.013  0.00  0.00    +0.342 C 
ATOM     31  O   UNL     1      -2.797   0.774   0.022  0.00  0.00    -0.245 OA
BRANCH  30  32
ATOM     32  O   UNL     1      -3.481  -1.339   0.012  0.00  0.00    -0.464 OA
ATOM     33  C   UNL     1      -4.830  -0.869   0.022  0.00  0.00    +0.280 C 
ENDBRANCH  30  32
ENDBRANCH  26  30
ENDBRANCH   1  28
TORSDOF 3
