REMARK  Name = ZINC04295711
REMARK  10 active torsions:
REMARK  status: ('A' for Active; 'I' for Inactive)
REMARK    1  A    between atoms: C_1  and  C_2
REMARK    2  A    between atoms: C_2  and  C_32
REMARK    3  A    between atoms: C_4  and  N_10
REMARK    4  A    between atoms: C_6  and  C_8
REMARK    5  A    between atoms: C_6  and  C_9
REMARK    6  A    between atoms: C_11  and  C_13
REMARK    7  A    between atoms: C_26  and  O_30
REMARK    8  A    between atoms: C_27  and  O_28
REMARK    9  A    between atoms: O_28  and  C_29
REMARK   10  A    between atoms: O_30  and  C_31
REMARK                            x       y       z     vdW  Elec       q    Type
REMARK                         _______ _______ _______ _____ _____    ______ ____
ROOT
ATOM      1  C   UNL     1       2.236  -4.003  -4.234  0.00  0.00    +0.173 C 
ATOM      2  C   UNL     1       1.687  -3.128  -5.386  0.00  0.00    +0.103 C 
ATOM      3  S   UNL     1       0.803  -4.383  -6.413  0.00  0.00    -0.131 S 
ATOM      4  C   UNL     1       0.747  -5.712  -5.137  0.00  0.00    +0.166 C 
ATOM      5  N   UNL     1       2.037  -5.437  -4.445  0.00  0.00    -0.269 N 
ATOM      6  C   UNL     1       2.614  -6.643  -4.258  0.00  0.00    +0.252 C 
ATOM      7  O   UNL     1       3.459  -6.891  -3.420  0.00  0.00    -0.270 OA
ATOM      8  C   UNL     1       2.065  -7.612  -5.221  0.00  0.00    +0.088 A 
ATOM      9  C   UNL     1       0.897  -7.059  -5.785  0.00  0.00    -0.001 A 
ATOM     10  C   UNL     1       0.170  -7.747  -6.726  0.00  0.00    +0.011 A 
ATOM     11  C   UNL     1       0.562  -9.016  -7.122  0.00  0.00    +0.050 A 
ATOM     12  C   UNL     1       1.689  -9.602  -6.570  0.00  0.00    +0.162 A 
ATOM     13  C   UNL     1       2.464  -8.896  -5.605  0.00  0.00    +0.174 A 
ENDROOT
BRANCH   1  15
ATOM     14  N   UNL     1       1.633  -2.333  -2.511  0.00  0.00    -0.311 N 
ATOM     15  C   UNL     1       1.548  -3.603  -2.954  0.00  0.00    +0.235 C 
ATOM     16  O   UNL     1       0.917  -4.424  -2.323  0.00  0.00    -0.274 OA
ATOM     17  H   UNL     1       2.137  -1.676  -3.016  0.00  0.00    +0.149 HD
BRANCH  14  21
ATOM     18  C   UNL     1      -0.019   1.542   0.011  0.00  0.00    -0.010 C 
ATOM     19  C   UNL     1       0.002  -0.004   0.002  0.00  0.00    -0.072 C 
ATOM     20  C   UNL     1       0.670  -0.443  -1.297  0.00  0.00    +0.009 C 
ATOM     21  C   UNL     1       0.963  -1.944  -1.265  0.00  0.00    +0.070 C 
ATOM     22  C   UNL     1       1.892  -2.223  -0.084  0.00  0.00    +0.009 C 
ATOM     23  C   UNL     1       1.233  -1.798   1.224  0.00  0.00    -0.072 C 
ATOM     24  N   UNL     1       0.711  -0.443   1.191  0.00  0.00    +0.386 N 
ATOM     25  C   UNL     1       2.314  -1.859   2.328  0.00  0.00    -0.010 C 
ATOM     26  C   UNL     1       0.143  -2.805   1.606  0.00  0.00    -0.010 C 
ATOM     27  C   UNL     1      -1.457  -0.473   0.018  0.00  0.00    -0.010 C 
ATOM     28  H   UNL     1       1.489   0.204   1.356  0.00  0.00    -0.084 HD
ATOM     29  H   UNL     1       0.093  -0.317   1.998  0.00  0.00    -0.084 HD
ENDBRANCH  14  21
ENDBRANCH   1  15
BRANCH  13  30
ATOM     30  O   UNL     1       3.562  -9.465  -5.045  0.00  0.00    -0.491 OA
ATOM     31  C   UNL     1       3.359 -10.238  -3.860  0.00  0.00    +0.277 C 
ENDBRANCH  13  30
BRANCH  12  32
ATOM     32  O   UNL     1       2.064 -10.850  -6.957  0.00  0.00    -0.491 OA
ATOM     33  C   UNL     1       1.250 -11.498  -7.937  0.00  0.00    +0.277 C 
ENDBRANCH  12  32
TORSDOF 4
