REMARK  Name = ZINC61089158
REMARK  11 active torsions:
REMARK  status: ('A' for Active; 'I' for Inactive)
REMARK    1  A    between atoms: C_1  and  C_2
REMARK    2  A    between atoms: C_2  and  C_3
REMARK    3  A    between atoms: C_2  and  N_4
REMARK    4  A    between atoms: N_4  and  C_5
REMARK    5  A    between atoms: N_4  and  C_6
REMARK    6  A    between atoms: C_6  and  C_7
REMARK    7  A    between atoms: C_7  and  C_8
REMARK    8  A    between atoms: C_8  and  C_9
REMARK    9  A    between atoms: C_9  and  N_10
REMARK   10  A    between atoms: C_11  and  C_13
REMARK   11  A    between atoms: C_15  and  N_21
REMARK                            x       y       z     vdW  Elec       q    Type
REMARK                         _______ _______ _______ _____ _____    ______ ____
ROOT
ATOM      1  N   UNL     1      -4.173  -6.036   0.261  0.00  0.00    -0.311 N 
ATOM      2  C   UNL     1      -5.325  -6.727   0.370  0.00  0.00    +0.245 C 
ATOM      3  O   UNL     1      -6.381  -6.134   0.475  0.00  0.00    -0.270 OA
ATOM      4  H   UNL     1      -3.330  -6.510   0.177  0.00  0.00    +0.149 HD
ENDROOT
BRANCH   2   5
ATOM      5  C   UNL     1      -5.305  -8.203   0.362  0.00  0.00    +0.053 A 
ATOM      6  C   UNL     1      -4.093  -8.887   0.247  0.00  0.00    +0.039 A 
ATOM      7  C   UNL     1      -4.081 -10.271   0.241  0.00  0.00    +0.061 A 
ATOM      8  C   UNL     1      -5.276 -10.978   0.348  0.00  0.00    +0.145 A 
ATOM      9  C   UNL     1      -6.478 -10.301   0.462  0.00  0.00    +0.056 A 
ATOM     10  C   UNL     1      -6.499  -8.921   0.475  0.00  0.00    +0.033 A 
ATOM     11 BR   UNL     1      -8.143  -8.001   0.638  0.00  0.00    -0.049 Br
ATOM     12  F   UNL     1      -5.262 -12.329   0.342  0.00  0.00    -0.204 F 
BRANCH   7  13
ATOM     13  N   UNL     1      -2.868 -10.959   0.125  0.00  0.00    -0.356 N 
ATOM     14  H   UNL     1      -2.036 -10.467   0.050  0.00  0.00    +0.142 HD
ATOM     15  H   UNL     1      -2.860 -11.929   0.121  0.00  0.00    +0.142 HD
ENDBRANCH   7  13
ENDBRANCH   2   5
BRANCH   1  16
ATOM     16  C   UNL     1      -4.193  -4.572   0.269  0.00  0.00    +0.104 C 
BRANCH  16  17
ATOM     17  C   UNL     1      -2.764  -4.041   0.133  0.00  0.00    +0.017 C 
BRANCH  17  18
ATOM     18  C   UNL     1      -2.785  -2.512   0.141  0.00  0.00    -0.017 C 
BRANCH  18  19
ATOM     19  C   UNL     1      -1.356  -1.981   0.004  0.00  0.00    -0.079 C 
BRANCH  19  20
ATOM     20  N   UNL     1      -1.376  -0.512   0.012  0.00  0.00    +0.379 N 
ATOM     21  C   UNL     1      -2.087  -0.026  -1.178  0.00  0.00    -0.096 C 
ATOM     22  H   UNL     1      -1.848  -0.187   0.843  0.00  0.00    -0.082 HD
BRANCH  20  24
ATOM     23  C   UNL     1      -0.019   1.526   0.010  0.00  0.00    -0.014 C 
ATOM     24  C   UNL     1       0.002  -0.004   0.002  0.00  0.00    -0.075 C 
ATOM     25  C   UNL     1       0.742  -0.511   1.242  0.00  0.00    -0.014 C 
ENDBRANCH  20  24
ENDBRANCH  19  20
ENDBRANCH  18  19
ENDBRANCH  17  18
ENDBRANCH  16  17
ENDBRANCH   1  16
TORSDOF 8
