REMARK  Name = ZINC40466221
REMARK  10 active torsions:
REMARK  status: ('A' for Active; 'I' for Inactive)
REMARK    1  A    between atoms: C_1  and  C_2
REMARK    2  A    between atoms: C_2  and  C_3
REMARK    3  A    between atoms: C_2  and  C_4
REMARK    4  A    between atoms: C_4  and  N_5
REMARK    5  A    between atoms: N_8  and  C_11
REMARK    6  A    between atoms: C_11  and  C_12
REMARK    7  A    between atoms: C_12  and  C_14
REMARK    8  A    between atoms: C_15  and  N_24
REMARK    9  A    between atoms: N_16  and  C_23
REMARK   10  A    between atoms: N_19  and  C_22
REMARK                            x       y       z     vdW  Elec       q    Type
REMARK                         _______ _______ _______ _____ _____    ______ ____
ROOT
ATOM      1  C   UNL     1       0.314   1.756   7.143  0.00  0.00    +0.185 C 
ATOM      2  O   UNL     1       1.397   1.238   6.963  0.00  0.00    -0.290 OA
ENDROOT
BRANCH   1   3
ATOM      3  C   UNL     1      -0.066   2.165   8.440  0.00  0.00    +0.121 A 
ATOM      4  C   UNL     1       0.738   1.875   9.556  0.00  0.00    +0.116 A 
ATOM      5  N   UNL     1       0.329   2.292  10.790  0.00  0.00    -0.284 N 
ATOM      6  C   UNL     1      -0.819   2.969  10.954  0.00  0.00    +0.333 A 
ATOM      7  O   UNL     1      -1.138   3.318  12.073  0.00  0.00    -0.246 OA
ATOM      8  N   UNL     1      -1.627   3.275   9.925  0.00  0.00    -0.263 N 
ATOM      9  C   UNL     1      -1.309   2.913   8.665  0.00  0.00    +0.269 A 
ATOM     10  O   UNL     1      -2.041   3.196   7.735  0.00  0.00    -0.267 OA
ATOM     11  C   UNL     1      -2.865   4.016  10.175  0.00  0.00    +0.157 C 
ATOM     12  C   UNL     1       1.159   1.995  11.960  0.00  0.00    +0.155 C 
BRANCH   4  13
ATOM     13  N   UNL     1       1.904   1.190   9.409  0.00  0.00    -0.344 N 
ATOM     14  H   UNL     1       2.227   0.966   8.522  0.00  0.00    +0.144 HD
ATOM     15  H   UNL     1       2.412   0.924  10.191  0.00  0.00    +0.144 HD
ENDBRANCH   4  13
ENDBRANCH   1   3
BRANCH   1  16
ATOM     16  C   UNL     1      -0.626   1.962   5.983  0.00  0.00    +0.164 C 
BRANCH  16  20
ATOM     17  N   UNL     1       0.068  -0.106   2.362  0.00  0.00    +0.381 N 
ATOM     18  C   UNL     1      -0.067   1.356   2.308  0.00  0.00    -0.063 C 
ATOM     19  C   UNL     1      -0.780   1.850   3.569  0.00  0.00    +0.066 C 
ATOM     20  N   UNL     1      -0.003   1.456   4.753  0.00  0.00    -0.299 NA
ATOM     21  C   UNL     1       0.162  -0.003   4.808  0.00  0.00    +0.066 C 
ATOM     22  C   UNL     1       0.867  -0.482   3.536  0.00  0.00    -0.063 C 
ATOM     23  H   UNL     1      -0.847  -0.526   2.430  0.00  0.00    -0.082 HD
BRANCH  17  24
ATOM     24  C   UNL     1       0.736  -0.581   1.143  0.00  0.00    -0.076 C 
BRANCH  24  26
ATOM     25  C   UNL     1      -0.696  -2.626   1.035  0.00  0.00    +0.005 C 
ATOM     26  C   UNL     1       0.742  -2.111   1.129  0.00  0.00    -0.034 C 
ATOM     27  C   UNL     1       1.541  -2.607  -0.078  0.00  0.00    +0.005 C 
ENDBRANCH  24  26
ENDBRANCH  17  24
ENDBRANCH  16  20
ENDBRANCH   1  16
TORSDOF 6
