REMARK  Name = ZINC59165496
REMARK  10 active torsions:
REMARK  status: ('A' for Active; 'I' for Inactive)
REMARK    1  A    between atoms: C_1  and  C_2
REMARK    2  A    between atoms: C_2  and  C_3
REMARK    3  A    between atoms: C_2  and  C_4
REMARK    4  A    between atoms: C_4  and  C_5
REMARK    5  A    between atoms: C_5  and  C_7
REMARK    6  A    between atoms: C_5  and  N_31
REMARK    7  A    between atoms: N_9  and  N_10
REMARK    8  A    between atoms: N_18  and  C_21
REMARK    9  A    between atoms: C_21  and  C_22
REMARK   10  A    between atoms: C_25  and  N_28
REMARK                            x       y       z     vdW  Elec       q    Type
REMARK                         _______ _______ _______ _____ _____    ______ ____
ROOT
ATOM      1  N   UNL     1      -4.628  -3.067  -1.703  0.00  0.00    -0.175 NA
ATOM      2  C   UNL     1      -5.118  -3.100  -2.919  0.00  0.00    +0.153 C 
ATOM      3  C   UNL     1      -6.462  -3.560  -3.339  0.00  0.00    +0.028 A 
ATOM      4  C   UNL     1      -7.555  -4.066  -2.644  0.00  0.00    +0.012 A 
ATOM      5  C   UNL     1      -8.700  -4.416  -3.331  0.00  0.00    +0.001 A 
ATOM      6  C   UNL     1      -8.759  -4.264  -4.706  0.00  0.00    +0.002 A 
ATOM      7  C   UNL     1      -7.679  -3.762  -5.404  0.00  0.00    +0.024 A 
ATOM      8  C   UNL     1      -6.517  -3.404  -4.730  0.00  0.00    +0.046 A 
ATOM      9  N   UNL     1      -5.309  -2.885  -5.183  0.00  0.00    -0.261 N 
ATOM     10  C   UNL     1      -4.451  -2.679  -4.168  0.00  0.00    +0.272 C 
ATOM     11  O   UNL     1      -3.324  -2.230  -4.263  0.00  0.00    -0.268 OA
ENDROOT
BRANCH   1  14
ATOM     12  C   UNL     1      -2.826  -2.559  -0.234  0.00  0.00    +0.218 C 
ATOM     13  O   UNL     1      -3.498  -2.940   0.701  0.00  0.00    -0.276 OA
ATOM     14  N   UNL     1      -3.329  -2.592  -1.484  0.00  0.00    -0.208 N 
ATOM     15  H   UNL     1      -2.791  -2.287  -2.231  0.00  0.00    +0.177 HD
BRANCH  12  16
ATOM     16  C   UNL     1      -1.428  -2.048   0.003  0.00  0.00    +0.015 C 
BRANCH  16  17
ATOM     17  N   UNL     1      -0.940  -2.538   1.299  0.00  0.00    +0.386 N 
ATOM     18  H   UNL     1       0.025  -2.268   1.419  0.00  0.00    -0.089 HD
ATOM     19  H   UNL     1      -1.496  -2.138   2.040  0.00  0.00    -0.089 HD
ATOM     20  H   UNL     1      -1.014  -3.544   1.327  0.00  0.00    -0.089 HD
ENDBRANCH  16  17
BRANCH  16  21
ATOM     21  C   UNL     1      -1.439  -0.518   0.007  0.00  0.00    -0.004 C 
BRANCH  21  23
ATOM     22  C   UNL     1       0.784  -0.381  -1.125  0.00  0.00    +0.007 C 
ATOM     23  C   UNL     1      -0.005   0.002   0.129  0.00  0.00    -0.018 C 
ATOM     24  C   UNL     1      -0.025   1.525   0.274  0.00  0.00    +0.007 C 
ENDBRANCH  21  23
ENDBRANCH  16  21
ENDBRANCH  12  16
ENDBRANCH   1  14
BRANCH   9  25
ATOM     25  C   UNL     1      -5.011  -2.593  -6.587  0.00  0.00    +0.149 C 
BRANCH  25  26
ATOM     26  C   UNL     1      -5.412  -1.174  -6.901  0.00  0.00    -0.030 A 
ATOM     27  C   UNL     1      -6.691  -0.901  -7.350  0.00  0.00    +0.007 A 
ATOM     28  C   UNL     1      -7.059   0.400  -7.638  0.00  0.00    +0.033 A 
ATOM     29  C   UNL     1      -6.149   1.427  -7.476  0.00  0.00    +0.126 A 
ATOM     30  C   UNL     1      -4.871   1.155  -7.027  0.00  0.00    +0.033 A 
ATOM     31  C   UNL     1      -4.504  -0.146  -6.734  0.00  0.00    +0.007 A 
BRANCH  29  32
ATOM     32  N   UNL     1      -6.543   2.820  -7.786  0.00  0.00    +0.056 N 
ATOM     33  O   UNL     1      -7.661   3.059  -8.180  0.00  0.00    -0.126 OA
ATOM     34  O   UNL     1      -5.747   3.719  -7.645  0.00  0.00    -0.126 OA
ENDBRANCH  29  32
ENDBRANCH  25  26
ENDBRANCH   9  25
TORSDOF 8
