REMARK  Name = ZINC35576990
REMARK  6 active torsions:
REMARK  status: ('A' for Active; 'I' for Inactive)
REMARK    1  A    between atoms: C_6  and  C_7
REMARK    2  A    between atoms: C_9  and  N_31
REMARK    3  A    between atoms: N_10  and  C_24
REMARK    4  A    between atoms: N_16  and  C_17
REMARK    5  A    between atoms: C_17  and  C_18
REMARK    6  A    between atoms: C_18  and  N_19
REMARK                            x       y       z     vdW  Elec       q    Type
REMARK                         _______ _______ _______ _____ _____    ______ ____
ROOT
ATOM      1  C   UNL     1      -1.354  -0.632  -0.194  0.00  0.00    +0.089 A 
ATOM      2  C   UNL     1      -1.457  -1.874  -0.861  0.00  0.00    +0.086 A 
ATOM      3  C   UNL     1      -0.618  -2.655  -1.645  0.00  0.00    +0.131 A 
ATOM      4  N   UNL     1      -1.304  -3.760  -1.997  0.00  0.00    -0.216 N 
ATOM      5  N   UNL     1      -2.591  -3.715  -1.451  0.00  0.00    -0.144 NA
ATOM      6  C   UNL     1      -2.733  -2.605  -0.760  0.00  0.00    +0.189 A 
ATOM      7  N   UNL     1      -3.725  -2.045  -0.040  0.00  0.00    -0.193 NA
ATOM      8  C   UNL     1      -3.543  -0.881   0.549  0.00  0.00    +0.218 A 
ATOM      9  N   UNL     1      -2.406  -0.195   0.487  0.00  0.00    -0.214 NA
ATOM     10  N   UNL     1      -4.590  -0.347   1.278  0.00  0.00    -0.315 N 
ATOM     11  H   UNL     1      -4.485   0.509   1.723  0.00  0.00    +0.149 HD
ENDROOT
BRANCH   1  17
ATOM     12  C   UNL     1       0.549   0.350  -1.468  0.00  0.00    +0.013 A 
ATOM     13  C   UNL     1       1.714   1.087  -1.514  0.00  0.00    +0.039 A 
ATOM     14  C   UNL     1       2.235   1.637  -0.353  0.00  0.00    +0.123 A 
ATOM     15  C   UNL     1       1.590   1.449   0.859  0.00  0.00    +0.039 A 
ATOM     16  C   UNL     1       0.425   0.713   0.916  0.00  0.00    +0.013 A 
ATOM     17  C   UNL     1      -0.104   0.158  -0.250  0.00  0.00    +0.001 A 
ATOM     18  F   UNL     1       3.377   2.358  -0.404  0.00  0.00    -0.205 F 
ENDBRANCH   1  17
BRANCH   4  19
ATOM     19  C   UNL     1      -0.803  -4.798  -2.792  0.00  0.00    +0.068 A 
ATOM     20  C   UNL     1       0.081  -4.518  -3.826  0.00  0.00    +0.029 A 
ATOM     21  C   UNL     1       0.573  -5.544  -4.609  0.00  0.00    +0.022 A 
ATOM     22  C   UNL     1       0.187  -6.850  -4.363  0.00  0.00    +0.041 A 
ATOM     23  C   UNL     1      -0.694  -7.132  -3.333  0.00  0.00    +0.022 A 
ATOM     24  C   UNL     1      -1.185  -6.110  -2.544  0.00  0.00    +0.029 A 
ATOM     25 CL   UNL     1       0.807  -8.137  -5.349  0.00  0.00    -0.084 Cl
ENDBRANCH   4  19
BRANCH   3  26
ATOM     26  N   UNL     1       0.684  -2.353  -2.000  0.00  0.00    -0.342 N 
ATOM     27  H   UNL     1       1.145  -1.614  -1.572  0.00  0.00    +0.144 HD
ATOM     28  H   UNL     1       1.137  -2.880  -2.677  0.00  0.00    +0.144 HD
ENDBRANCH   3  26
BRANCH  10  29
ATOM     29  C   UNL     1      -5.859  -1.073   1.378  0.00  0.00    +0.086 C 
BRANCH  29  30
ATOM     30  C   UNL     1      -6.841  -0.269   2.233  0.00  0.00    -0.060 C 
BRANCH  30  31
ATOM     31  N   UNL     1      -8.113  -0.997   2.333  0.00  0.00    +0.381 N 
ATOM     32  C   UNL     1      -7.935  -2.230   3.143  0.00  0.00    -0.079 C 
ATOM     33  C   UNL     1      -9.374  -2.551   3.619  0.00  0.00    -0.020 C 
ATOM     34  C   UNL     1      -9.969  -1.150   3.890  0.00  0.00    -0.020 C 
ATOM     35  C   UNL     1      -9.112  -0.180   3.055  0.00  0.00    -0.079 C 
ATOM     36  H   UNL     1      -8.454  -1.231   1.412  0.00  0.00    -0.082 HD
ENDBRANCH  30  31
ENDBRANCH  29  30
ENDBRANCH  10  29
TORSDOF 6
