REMARK  Name = ZINC20830032
REMARK  10 active torsions:
REMARK  status: ('A' for Active; 'I' for Inactive)
REMARK    1  A    between atoms: C_1  and  C_2
REMARK    2  A    between atoms: C_2  and  C_27
REMARK    3  A    between atoms: C_4  and  N_10
REMARK    4  A    between atoms: C_6  and  C_8
REMARK    5  A    between atoms: C_6  and  C_9
REMARK    6  A    between atoms: C_11  and  C_13
REMARK    7  A    between atoms: C_13  and  S_14
REMARK    8  A    between atoms: S_14  and  C_15
REMARK    9  A    between atoms: C_18  and  C_21
REMARK   10  A    between atoms: N_19  and  N_20
REMARK                            x       y       z     vdW  Elec       q    Type
REMARK                         _______ _______ _______ _____ _____    ______ ____
ROOT
ATOM      1  N   UNL     1       2.604   2.614  -6.547  0.00  0.00    -0.312 N 
ATOM      2  C   UNL     1       2.510   2.216  -5.263  0.00  0.00    +0.224 C 
ATOM      3  O   UNL     1       3.497   1.828  -4.674  0.00  0.00    -0.275 OA
ATOM      4  H   UNL     1       1.709   2.966  -7.081  0.00  0.00    +0.149 HD
ENDROOT
BRANCH   1   8
ATOM      5  C   UNL     1       5.672   1.076  -9.310  0.00  0.00    -0.010 C 
ATOM      6  C   UNL     1       5.005   2.446  -9.482  0.00  0.00    -0.072 C 
ATOM      7  C   UNL     1       3.671   2.462  -8.740  0.00  0.00    +0.009 C 
ATOM      8  C   UNL     1       3.901   2.579  -7.233  0.00  0.00    +0.070 C 
ATOM      9  C   UNL     1       4.652   3.881  -6.957  0.00  0.00    +0.009 C 
ATOM     10  C   UNL     1       5.999   3.881  -7.676  0.00  0.00    -0.072 C 
ATOM     11  N   UNL     1       5.893   3.515  -9.073  0.00  0.00    +0.386 N 
ATOM     12  C   UNL     1       6.976   2.961  -6.935  0.00  0.00    -0.010 C 
ATOM     13  C   UNL     1       6.570   5.314  -7.596  0.00  0.00    -0.010 C 
ATOM     14  C   UNL     1       4.702   2.621 -10.987  0.00  0.00    -0.010 C 
ATOM     15  H   UNL     1       6.925   3.264  -9.359  0.00  0.00    -0.084 HD
ATOM     16  H   UNL     1       5.593   4.450  -9.568  0.00  0.00    -0.084 HD
ENDBRANCH   1   8
BRANCH   2  17
ATOM     17  C   UNL     1       1.178   2.252  -4.559  0.00  0.00    +0.173 C 
BRANCH  17  18
ATOM     18  S   UNL     1       1.377   1.660  -2.860  0.00  0.00    -0.075 S 
BRANCH  18  19
ATOM     19  C   UNL     1      -0.283   1.805  -2.288  0.00  0.00    +0.209 A 
ATOM     20  N   UNL     1      -1.313   2.232  -2.985  0.00  0.00    -0.121 NA
ATOM     21  N   UNL     1      -2.373   2.215  -2.259  0.00  0.00    -0.127 NA
ATOM     22  C   UNL     1      -2.087   1.770  -1.058  0.00  0.00    +0.183 A 
ATOM     23  N   UNL     1      -0.741   1.490  -1.041  0.00  0.00    -0.224 N 
BRANCH  22  24
ATOM     24  C   UNL     1      -3.034   1.603   0.065  0.00  0.00    +0.039 A 
ATOM     25  C   UNL     1      -4.297   2.205   0.028  0.00  0.00    +0.014 A 
ATOM     26  C   UNL     1      -5.145   2.018   1.105  0.00  0.00    +0.020 A 
ATOM     27  C   UNL     1      -4.723   1.248   2.174  0.00  0.00    +0.111 A 
ATOM     28  N   UNL     1      -3.527   0.691   2.181  0.00  0.00    -0.263 NA
ATOM     29  C   UNL     1      -2.686   0.836   1.178  0.00  0.00    +0.122 A 
ENDBRANCH  22  24
BRANCH  23  30
ATOM     30  N   UNL     1      -0.012   1.005   0.008  0.00  0.00    -0.295 N 
ATOM     31  H   UNL     1      -0.504   0.791   0.968  0.00  0.00    +0.163 HD
ATOM     32  H   UNL     1       1.068   0.828  -0.108  0.00  0.00    +0.163 HD
ENDBRANCH  23  30
ENDBRANCH  18  19
ENDBRANCH  17  18
ENDBRANCH   2  17
TORSDOF 6
