REMARK  Name = ZINC04335569
REMARK  7 active torsions:
REMARK  status: ('A' for Active; 'I' for Inactive)
REMARK    1  A    between atoms: C_1  and  C_2
REMARK    2  A    between atoms: C_2  and  N_3
REMARK    3  A    between atoms: C_11  and  S_13
REMARK    4  A    between atoms: S_13  and  C_14
REMARK    5  A    between atoms: C_14  and  C_15
REMARK    6  A    between atoms: N_20  and  C_21
REMARK    7  A    between atoms: C_25  and  N_48
REMARK                            x       y       z     vdW  Elec       q    Type
REMARK                         _______ _______ _______ _____ _____    ______ ____
ROOT
ATOM      1  N   UNL     1       3.011  -2.119  -0.041  0.00  0.00    -0.329 N 
ATOM      2  C   UNL     1       1.693  -1.702  -0.025  0.00  0.00    +0.132 A 
ATOM      3  C   UNL     1       1.369  -0.332  -0.240  0.00  0.00    +0.051 A 
ATOM      4  C   UNL     1       2.267   0.793  -0.493  0.00  0.00    -0.028 A 
ATOM      5  C   UNL     1       1.700   2.006  -0.664  0.00  0.00    -0.021 A 
ATOM      6  S   UNL     1      -0.042   1.728  -0.502  0.00  0.00    -0.075 S 
ATOM      7  C   UNL     1      -0.006  -0.021  -0.202  0.00  0.00    +0.115 A 
ATOM      8  N   UNL     1      -0.919  -0.947   0.019  0.00  0.00    -0.215 NA
ATOM      9  C   UNL     1      -0.558  -2.209   0.213  0.00  0.00    +0.191 A 
ATOM     10  N   UNL     1       0.720  -2.571   0.191  0.00  0.00    -0.206 NA
ATOM     11  C   UNL     1       2.412   3.296  -0.931  0.00  0.00    -0.036 C 
ATOM     12  C   UNL     1       4.350   1.885  -1.271  0.00  0.00    -0.074 C 
ATOM     13  C   UNL     1       3.785   0.647  -0.570  0.00  0.00    +0.018 C 
ATOM     14  C   UNL     1       4.628   4.279  -1.030  0.00  0.00    -0.096 C 
ATOM     15  H   UNL     1       3.725  -1.466  -0.118  0.00  0.00    +0.147 HD
ATOM     16  N   UNL     1       3.844   3.100  -0.601  0.00  0.00    +0.381 N 
ATOM     17  H   UNL     1       3.941   2.986   0.415  0.00  0.00    -0.082 HD
ENDROOT
BRANCH   1  19
ATOM     18  C   UNL     1       4.848  -3.733   0.018  0.00  0.00    +0.024 C 
ATOM     19  C   UNL     1       3.330  -3.545   0.059  0.00  0.00    +0.099 C 
ENDBRANCH   1  19
BRANCH   9  20
ATOM     20  S   UNL     1      -1.797  -3.427   0.507  0.00  0.00    -0.077 S 
BRANCH  20  21
ATOM     21  C   UNL     1      -3.280  -2.392   0.427  0.00  0.00    +0.173 C 
BRANCH  21  22
ATOM     22  C   UNL     1      -4.500  -3.246   0.656  0.00  0.00    +0.231 C 
ATOM     23  O   UNL     1      -4.380  -4.436   0.854  0.00  0.00    -0.274 OA
ATOM     24  N   UNL     1      -5.726  -2.686   0.642  0.00  0.00    -0.240 N 
ATOM     25  C   UNL     1      -6.818  -3.450   0.847  0.00  0.00    +0.306 C 
ATOM     26  O   UNL     1      -6.697  -4.643   1.045  0.00  0.00    -0.252 OA
ATOM     27  N   UNL     1      -8.044  -2.890   0.832  0.00  0.00    -0.302 N 
ATOM     28  C   UNL     1      -9.231  -3.720   1.055  0.00  0.00    +0.129 C 
ATOM     29  H   UNL     1      -5.823  -1.734   0.484  0.00  0.00    +0.159 HD
ATOM     30  H   UNL     1      -8.141  -1.938   0.674  0.00  0.00    +0.150 HD
ENDBRANCH  21  22
ENDBRANCH  20  21
ENDBRANCH   9  20
TORSDOF 4
