REMARK  Name = ZINC67157802
REMARK  7 active torsions:
REMARK  status: ('A' for Active; 'I' for Inactive)
REMARK    1  A    between atoms: C_1  and  C_2
REMARK    2  A    between atoms: C_2  and  C_4
REMARK    3  A    between atoms: C_2  and  N_22
REMARK    4  A    between atoms: C_4  and  C_5
REMARK    5  A    between atoms: C_10  and  N_13
REMARK    6  A    between atoms: C_17  and  C_19
REMARK    7  A    between atoms: C_23  and  C_25
REMARK                            x       y       z     vdW  Elec       q    Type
REMARK                         _______ _______ _______ _____ _____    ______ ____
ROOT
ATOM      1  C   UNL     1       0.657  -2.014   1.298  0.00  0.00    +0.217 C 
ATOM      2  O   UNL     1       0.062  -2.621   0.432  0.00  0.00    -0.276 OA
ATOM      3  N   UNL     1       1.241  -2.685   2.311  0.00  0.00    -0.302 N 
ATOM      4  C   UNL     1       1.959  -1.964   3.370  0.00  0.00    +0.106 C 
ATOM      5  C   UNL     1       1.397  -2.396   4.728  0.00  0.00    +0.004 C 
ATOM      6  C   UNL     1       1.469  -3.920   4.845  0.00  0.00    -0.065 C 
ATOM      7  C   UNL     1       0.618  -4.558   3.745  0.00  0.00    +0.004 C 
ATOM      8  C   UNL     1       1.166  -4.151   2.379  0.00  0.00    +0.106 C 
ENDROOT
BRANCH   6   9
ATOM      9  N   UNL     1       0.962  -4.335   6.160  0.00  0.00    +0.389 N 
ATOM     10  C   UNL     1       1.105  -5.804   6.324  0.00  0.00    -0.077 C 
ATOM     11  C   UNL     1       1.082  -5.993   7.861  0.00  0.00    -0.020 C 
ATOM     12  C   UNL     1       1.864  -4.761   8.373  0.00  0.00    -0.008 C 
ATOM     13  C   UNL     1       1.775  -3.727   7.235  0.00  0.00    +0.019 C 
ATOM     14  H   UNL     1      -0.006  -4.066   6.260  0.00  0.00    -0.080 HD
BRANCH  13  15
ATOM     15  C   UNL     1       1.109  -2.471   7.734  0.00  0.00    +0.197 C 
ATOM     16  O   UNL     1       0.059  -2.107   7.249  0.00  0.00    -0.278 OA
ATOM     17  N   UNL     1       1.681  -1.751   8.720  0.00  0.00    -0.331 N 
ATOM     18  H   UNL     1       2.521  -2.043   9.109  0.00  0.00    +0.145 HD
ATOM     19  H   UNL     1       1.253  -0.943   9.042  0.00  0.00    +0.145 HD
ENDBRANCH  13  15
ENDBRANCH   6   9
BRANCH   1  20
ATOM     20  C   UNL     1       0.742  -0.511   1.242  0.00  0.00    +0.118 C 
BRANCH  20  22
ATOM     21  C   UNL     1      -0.019   1.526   0.010  0.00  0.00    +0.028 C 
ATOM     22  C   UNL     1       0.002  -0.004   0.002  0.00  0.00    +0.079 C 
BRANCH  22  23
ATOM     23  N   UNL     1       0.688  -0.476  -1.203  0.00  0.00    -0.312 N 
ATOM     24  C   UNL     1       0.006  -0.608  -2.358  0.00  0.00    +0.216 C 
ATOM     25  O   UNL     1      -1.175  -0.336  -2.400  0.00  0.00    -0.276 OA
ATOM     26  H   UNL     1       1.632  -0.695  -1.170  0.00  0.00    +0.149 HD
BRANCH  24  27
ATOM     27  C   UNL     1       0.712  -1.094  -3.598  0.00  0.00    +0.075 C 
ATOM     28  C   UNL     1       1.849  -0.133  -3.948  0.00  0.00    +0.013 C 
ATOM     29  C   UNL     1       2.565  -0.626  -5.207  0.00  0.00    +0.001 C 
ATOM     30  C   UNL     1       1.572  -0.685  -6.369  0.00  0.00    +0.000 C 
ATOM     31  C   UNL     1       0.434  -1.646  -6.019  0.00  0.00    +0.001 C 
ATOM     32  C   UNL     1      -0.282  -1.153  -4.761  0.00  0.00    +0.013 C 
ENDBRANCH  24  27
ENDBRANCH  22  23
ENDBRANCH  20  22
ENDBRANCH   1  20
TORSDOF 6
