REMARK  Name = ZINC39656140
REMARK  6 active torsions:
REMARK  status: ('A' for Active; 'I' for Inactive)
REMARK    1  A    between atoms: C_1  and  C_2
REMARK    2  A    between atoms: C_8  and  C_11
REMARK    3  A    between atoms: C_11  and  C_12
REMARK    4  A    between atoms: C_12  and  N_13
REMARK    5  A    between atoms: C_14  and  C_16
REMARK    6  A    between atoms: C_27  and  C_29
REMARK                            x       y       z     vdW  Elec       q    Type
REMARK                         _______ _______ _______ _____ _____    ______ ____
ROOT
ATOM      1  C   UNL     1       3.841  -0.286  -6.948  0.00  0.00    +0.100 C 
ATOM      2  C   UNL     1       5.179   0.144  -6.306  0.00  0.00    +0.121 C 
ATOM      3  N   UNL     1       5.716  -1.094  -5.694  0.00  0.00    -0.300 N 
ATOM      4  C   UNL     1       5.394  -2.159  -6.673  0.00  0.00    +0.115 C 
ATOM      5  C   UNL     1       3.988  -1.798  -7.190  0.00  0.00    -0.004 C 
ATOM      6  C   UNL     1       3.877  -2.107  -8.680  0.00  0.00    -0.010 C 
ATOM      7  C   UNL     1       3.967  -3.621  -8.890  0.00  0.00    -0.082 C 
ATOM      8  N   UNL     1       2.887  -4.285  -8.151  0.00  0.00    +0.379 N 
ATOM      9  C   UNL     1       3.054  -4.059  -6.710  0.00  0.00    -0.082 C 
ATOM     10  C   UNL     1       2.925  -2.564  -6.407  0.00  0.00    -0.010 C 
ATOM     11  C   UNL     1       6.354  -1.222  -4.513  0.00  0.00    +0.219 C 
ATOM     12  O   UNL     1       6.476  -0.262  -3.782  0.00  0.00    -0.275 OA
ATOM     13  H   UNL     1       1.998  -3.911  -8.448  0.00  0.00    -0.086 HD
ATOM     14  H   UNL     1       2.911  -5.276  -8.340  0.00  0.00    -0.086 HD
ENDROOT
BRANCH  11  15
ATOM     15  C   UNL     1       6.915  -2.558  -4.101  0.00  0.00    +0.079 C 
ATOM     16  C   UNL     1       7.005  -2.630  -2.572  0.00  0.00    +0.017 C 
ATOM     17  C   UNL     1       7.407  -4.053  -2.177  0.00  0.00    +0.027 C 
ATOM     18  C   UNL     1       8.598  -4.494  -2.976  0.00  0.00    -0.031 C 
ATOM     19  C   UNL     1       8.994  -3.919  -4.066  0.00  0.00    -0.030 C 
ATOM     20  C   UNL     1       8.321  -2.727  -4.682  0.00  0.00    +0.039 C 
ENDBRANCH  11  15
BRANCH   1  22
ATOM     21  N   UNL     1       1.468   0.248  -6.496  0.00  0.00    -0.315 N 
ATOM     22  C   UNL     1       2.696  -0.015  -6.006  0.00  0.00    +0.218 C 
ATOM     23  O   UNL     1       2.880  -0.032  -4.807  0.00  0.00    -0.275 OA
ATOM     24  H   UNL     1       1.322   0.262  -7.454  0.00  0.00    +0.149 HD
BRANCH  21  25
ATOM     25  C   UNL     1       0.356   0.512  -5.580  0.00  0.00    +0.109 C 
BRANCH  25  26
ATOM     26  C   UNL     1      -0.916   0.779  -6.387  0.00  0.00    +0.056 C 
BRANCH  26  34
ATOM     27  C   UNL     1      -1.844   6.030  -4.295  0.00  0.00    +0.044 C 
ATOM     28  C   UNL     1      -2.433   4.645  -4.214  0.00  0.00    -0.050 A 
ATOM     29  C   UNL     1      -3.551   4.418  -3.424  0.00  0.00    +0.005 A 
ATOM     30  C   UNL     1      -4.105   3.160  -3.334  0.00  0.00    +0.026 A 
ATOM     31  C   UNL     1      -3.540   2.105  -4.043  0.00  0.00    +0.047 A 
ATOM     32  N   UNL     1      -3.849   0.768  -4.160  0.00  0.00    -0.360 N 
ATOM     33  C   UNL     1      -2.958   0.156  -4.999  0.00  0.00    +0.087 A 
ATOM     34  C   UNL     1      -2.061   1.050  -5.446  0.00  0.00    -0.021 A 
ATOM     35  C   UNL     1      -2.406   2.340  -4.843  0.00  0.00    +0.003 A 
ATOM     36  C   UNL     1      -1.865   3.624  -4.923  0.00  0.00    +0.013 A 
ATOM     37  H   UNL     1      -4.588   0.326  -3.714  0.00  0.00    +0.165 HD
ENDBRANCH  26  34
ENDBRANCH  25  26
ENDBRANCH  21  25
ENDBRANCH   1  22
TORSDOF 5
