REMARK  Name = ZINC15030623
REMARK  7 active torsions:
REMARK  status: ('A' for Active; 'I' for Inactive)
REMARK    1  A    between atoms: C_1  and  C_2
REMARK    2  A    between atoms: C_2  and  C_4
REMARK    3  A    between atoms: C_2  and  N_17
REMARK    4  A    between atoms: N_6  and  C_7
REMARK    5  A    between atoms: C_11  and  S_13
REMARK    6  A    between atoms: S_13  and  N_16
REMARK    7  A    between atoms: C_27  and  C_30
REMARK                            x       y       z     vdW  Elec       q    Type
REMARK                         _______ _______ _______ _____ _____    ______ ____
ROOT
ATOM      1  C   UNL     1       0.994   3.423  -1.104  0.00  0.00    -0.004 C 
ATOM      2  C   UNL     1       1.158   2.273  -0.108  0.00  0.00    +0.016 C 
ENDROOT
BRANCH   2   3
ATOM      3  N   UNL     1       2.491   1.675  -0.265  0.00  0.00    +0.388 N 
ATOM      4  C   UNL     1       3.547   2.709  -0.194  0.00  0.00    -0.076 C 
ATOM      5  C   UNL     1       4.821   2.059   0.283  0.00  0.00    +0.000 C 
ATOM      6  C   UNL     1       5.702   1.587  -0.884  0.00  0.00    +0.104 C 
ATOM      7  N   UNL     1       4.916   0.957  -1.968  0.00  0.00    -0.317 N 
ATOM      8  C   UNL     1       3.868   0.079  -1.497  0.00  0.00    +0.088 C 
ATOM      9  C   UNL     1       2.550   0.876  -1.413  0.00  0.00    -0.059 C 
ATOM     10  C   UNL     1       5.746   0.303  -2.871  0.00  0.00    +0.121 A 
ATOM     11  C   UNL     1       6.819   0.983  -3.439  0.00  0.00    +0.044 A 
ATOM     12  C   UNL     1       7.637   0.319  -4.335  0.00  0.00    +0.017 A 
ATOM     13  C   UNL     1       7.354  -1.007  -4.634  0.00  0.00    +0.073 A 
ATOM     14  C   UNL     1       6.273  -1.620  -4.033  0.00  0.00    +0.125 A 
ATOM     15  N   UNL     1       5.512  -0.964  -3.177  0.00  0.00    -0.240 NA
ATOM     16  H   UNL     1       2.681   0.949   0.539  0.00  0.00    -0.081 HD
BRANCH  13  17
ATOM     17  C   UNL     1       8.218  -1.769  -5.606  0.00  0.00    +0.419 C 
ATOM     18  F   UNL     1       9.260  -2.394  -4.912  0.00  0.00    -0.166 F 
ATOM     19  F   UNL     1       7.445  -2.737  -6.257  0.00  0.00    -0.166 F 
ATOM     20  F   UNL     1       8.751  -0.885  -6.549  0.00  0.00    -0.166 F 
ENDBRANCH  13  17
ENDBRANCH   2   3
BRANCH   2  21
ATOM     21  C   UNL     1       1.005   2.799   1.296  0.00  0.00    +0.203 C 
ATOM     22  O   UNL     1       1.936   2.737   2.071  0.00  0.00    -0.277 OA
ATOM     23  N   UNL     1      -0.167   3.332   1.692  0.00  0.00    -0.287 N 
ATOM     24  H   UNL     1      -1.033   3.323   1.013  0.00  0.00    +0.155 HD
BRANCH  23  25
ATOM     25  C   UNL     1      -0.284   3.897   2.966  0.00  0.00    +0.035 A 
ATOM     26  C   UNL     1      -1.076   5.021   3.159  0.00  0.00    +0.023 A 
ATOM     27  C   UNL     1      -1.189   5.577   4.419  0.00  0.00    +0.004 A 
ATOM     28  C   UNL     1      -0.515   5.014   5.487  0.00  0.00    +0.028 A 
ATOM     29  C   UNL     1       0.275   3.895   5.298  0.00  0.00    +0.107 A 
ATOM     30  C   UNL     1       0.388   3.332   4.042  0.00  0.00    +0.051 A 
BRANCH  29  31
ATOM     31  S   UNL     1       1.131   3.182   6.663  0.00  0.00    +0.056 S 
ATOM     32  O   UNL     1       2.234   2.468   6.122  0.00  0.00    -0.153 OA
ATOM     33  O   UNL     1       1.291   4.214   7.627  0.00  0.00    -0.153 OA
BRANCH  31  34
ATOM     34  N   UNL     1       0.123   2.055   7.339  0.00  0.00    -0.204 NA
ATOM     35  H   UNL     1       0.624   1.584   8.198  0.00  0.00    +0.144 HD
ATOM     36  H   UNL     1      -0.121   1.286   6.591  0.00  0.00    +0.144 HD
ENDBRANCH  31  34
ENDBRANCH  29  31
ENDBRANCH  23  25
ENDBRANCH   2  21
TORSDOF 6
