REMARK  Name = ZINC22418629
REMARK  14 active torsions:
REMARK  status: ('A' for Active; 'I' for Inactive)
REMARK    1  A    between atoms: C_1  and  C_2
REMARK    2  A    between atoms: C_2  and  C_3
REMARK    3  A    between atoms: C_3  and  C_4
REMARK    4  A    between atoms: C_4  and  O_5
REMARK    5  A    between atoms: O_5  and  C_6
REMARK    6  A    between atoms: C_9  and  N_12
REMARK    7  A    between atoms: N_15  and  C_16
REMARK    8  A    between atoms: C_16  and  C_17
REMARK    9  A    between atoms: C_17  and  C_19
REMARK   10  A    between atoms: C_17  and  N_28
REMARK   11  A    between atoms: C_22  and  N_25
REMARK   12  A    between atoms: N_25  and  C_26
REMARK   13  A    between atoms: N_25  and  C_27
REMARK   14  A    between atoms: N_31  and  C_34
REMARK                            x       y       z     vdW  Elec       q    Type
REMARK                         _______ _______ _______ _____ _____    ______ ____
ROOT
ATOM      1  C   UNL     1       0.097   0.256   0.397  0.00  0.00    +0.129 C 
ENDROOT
BRANCH   1   5
ATOM      2  N   UNL     1       1.858  -1.238   3.258  0.00  0.00    -0.269 N 
ATOM      3  C   UNL     1       1.165  -1.109   2.109  0.00  0.00    +0.304 C 
ATOM      4  O   UNL     1       0.823  -2.099   1.491  0.00  0.00    -0.253 OA
ATOM      5  N   UNL     1       0.850   0.117   1.645  0.00  0.00    -0.297 N 
ATOM      6  H   UNL     1       2.236  -0.344   3.775  0.00  0.00    +0.156 HD
ATOM      7  H   UNL     1       1.159   1.012   2.204  0.00  0.00    +0.150 HD
BRANCH   2  11
ATOM      8  C   UNL     1       2.570  -5.025   4.851  0.00  0.00    +0.121 A 
ATOM      9  C   UNL     1       2.560  -4.842   3.476  0.00  0.00    +0.047 A 
ATOM     10  C   UNL     1       2.324  -3.588   2.948  0.00  0.00    +0.027 A 
ATOM     11  C   UNL     1       2.097  -2.511   3.793  0.00  0.00    +0.035 A 
ATOM     12  C   UNL     1       2.112  -2.694   5.169  0.00  0.00    +0.027 A 
ATOM     13  C   UNL     1       2.343  -3.949   5.696  0.00  0.00    +0.047 A 
BRANCH   8  14
ATOM     14  O   UNL     1       2.802  -6.260   5.370  0.00  0.00    -0.492 OA
BRANCH  14  15
ATOM     15  C   UNL     1       2.798  -6.376   6.795  0.00  0.00    +0.229 C 
BRANCH  15  16
ATOM     16  C   UNL     1       3.075  -7.828   7.189  0.00  0.00    +0.041 C 
BRANCH  16  18
ATOM     17  C   UNL     1       3.347  -9.405   9.108  0.00  0.00    +0.004 C 
ATOM     18  C   UNL     1       3.070  -7.952   8.714  0.00  0.00    -0.000 C 
ENDBRANCH  16  18
ENDBRANCH  15  16
ENDBRANCH  14  15
ENDBRANCH   8  14
ENDBRANCH   2  11
ENDBRANCH   1   5
BRANCH   1  19
ATOM     19  C   UNL     1      -0.014   1.738   0.031  0.00  0.00    +0.104 C 
BRANCH  19  20
ATOM     20  N   UNL     1      -0.863   1.887  -1.158  0.00  0.00    -0.297 NA
ATOM     21  C   UNL     1      -0.891   3.283  -1.615  0.00  0.00    +0.066 C 
ATOM     22  C   UNL     1      -1.719   3.382  -2.898  0.00  0.00    -0.064 C 
ATOM     23  N   UNL     1      -3.079   2.888  -2.639  0.00  0.00    +0.379 N 
ATOM     24  C   UNL     1      -3.052   1.492  -2.183  0.00  0.00    -0.064 C 
ATOM     25  C   UNL     1      -2.223   1.393  -0.899  0.00  0.00    +0.066 C 
ATOM     26  C   UNL     1      -3.928   3.037  -3.828  0.00  0.00    -0.096 C 
ATOM     27  H   UNL     1      -3.515   3.500  -1.835  0.00  0.00    -0.082 HD
ENDBRANCH  19  20
BRANCH  19  28
ATOM     28  C   UNL     1       1.358   2.288  -0.260  0.00  0.00    -0.029 A 
ATOM     29  C   UNL     1       1.947   2.058  -1.490  0.00  0.00    +0.007 A 
ATOM     30  C   UNL     1       3.203   2.565  -1.762  0.00  0.00    +0.023 A 
ATOM     31  C   UNL     1       3.879   3.297  -0.794  0.00  0.00    +0.029 A 
ATOM     32  C   UNL     1       3.287   3.522   0.443  0.00  0.00    +0.023 A 
ATOM     33  C   UNL     1       2.029   3.016   0.706  0.00  0.00    +0.007 A 
BRANCH  31  34
ATOM     34  N   UNL     1       5.151   3.807  -1.063  0.00  0.00    -0.336 N 
ATOM     35  C   UNL     1       5.863   4.579  -0.041  0.00  0.00    +0.129 C 
ATOM     36  C   UNL     1       5.774   3.569  -2.368  0.00  0.00    +0.129 C 
ENDBRANCH  31  34
ENDBRANCH  19  28
ENDBRANCH   1  19
TORSDOF 10
