REMARK  Name = ZINC52879297
REMARK  6 active torsions:
REMARK  status: ('A' for Active; 'I' for Inactive)
REMARK    1  A    between atoms: C_1  and  C_2
REMARK    2  A    between atoms: C_4  and  C_20
REMARK    3  A    between atoms: C_6  and  C_11
REMARK    4  A    between atoms: C_11  and  C_12
REMARK    5  A    between atoms: C_11  and  C_13
REMARK    6  A    between atoms: C_11  and  N_19
REMARK                            x       y       z     vdW  Elec       q    Type
REMARK                         _______ _______ _______ _____ _____    ______ ____
ROOT
ATOM      1  C   UNL     1      -0.539  -5.000   0.048  0.00  0.00    +0.014 C 
ATOM      2  C   UNL     1      -1.237  -4.630  -1.262  0.00  0.00    +0.002 C 
ENDROOT
BRANCH   1   8
ATOM      3  C   UNL     1       5.216  -4.223   3.450  0.00  0.00    +0.066 C 
ATOM      4  C   UNL     1       3.973  -4.308   2.602  0.00  0.00    +0.044 A 
ATOM      5  C   UNL     1       2.932  -5.171   2.976  0.00  0.00    +0.044 A 
ATOM      6  C   UNL     1       1.818  -5.241   2.207  0.00  0.00    +0.027 A 
ATOM      7  N   UNL     1       1.738  -4.467   1.087  0.00  0.00    -0.269 N 
ATOM      8  C   UNL     1       0.793  -4.298   0.123  0.00  0.00    +0.132 A 
ATOM      9  N   UNL     1       1.252  -3.417  -0.726  0.00  0.00    -0.133 NA
ATOM     10  N   UNL     1       2.421  -3.018  -0.366  0.00  0.00    -0.108 NA
ATOM     11  C   UNL     1       2.776  -3.632   0.751  0.00  0.00    +0.256 A 
ATOM     12  N   UNL     1       3.869  -3.570   1.522  0.00  0.00    -0.216 NA
ATOM     13  C   UNL     1       0.684  -6.160   2.584  0.00  0.00    +0.064 C 
ENDBRANCH   1   8
BRANCH   1  14
ATOM     14  C   UNL     1      -0.326  -6.490   0.100  0.00  0.00    -0.052 A 
ATOM     15  C   UNL     1       0.863  -7.035  -0.349  0.00  0.00    +0.002 A 
ATOM     16  C   UNL     1       1.059  -8.402  -0.301  0.00  0.00    +0.000 A 
ATOM     17  C   UNL     1       0.066  -9.225   0.196  0.00  0.00    +0.000 A 
ATOM     18  C   UNL     1      -1.122  -8.681   0.646  0.00  0.00    +0.000 A 
ATOM     19  C   UNL     1      -1.316  -7.313   0.603  0.00  0.00    +0.002 A 
ENDBRANCH   1  14
BRANCH   1  20
ATOM     20  N   UNL     1      -1.376  -4.585   1.182  0.00  0.00    +0.389 N 
ATOM     21  H   UNL     1      -1.885  -3.749   0.937  0.00  0.00    -0.088 HD
ATOM     22  H   UNL     1      -2.028  -5.321   1.406  0.00  0.00    -0.088 HD
ATOM     23  H   UNL     1      -0.790  -4.399   1.982  0.00  0.00    -0.088 HD
ENDBRANCH   1  20
TORSDOF 3
