REMARK  Name = ZINC45510542
REMARK  9 active torsions:
REMARK  status: ('A' for Active; 'I' for Inactive)
REMARK    1  A    between atoms: C_1  and  C_2
REMARK    2  A    between atoms: C_2  and  C_4
REMARK    3  A    between atoms: C_2  and  N_12
REMARK    4  A    between atoms: N_12  and  C_13
REMARK    5  A    between atoms: C_13  and  C_15
REMARK    6  A    between atoms: C_13  and  C_16
REMARK    7  A    between atoms: N_18  and  C_19
REMARK    8  A    between atoms: C_23  and  S_25
REMARK    9  A    between atoms: S_25  and  N_28
REMARK                            x       y       z     vdW  Elec       q    Type
REMARK                         _______ _______ _______ _____ _____    ______ ____
ROOT
ATOM      1  C   UNL     1       2.822  -0.473   2.398  0.00  0.00    +0.203 C 
ATOM      2  O   UNL     1       2.205  -1.028   3.282  0.00  0.00    -0.277 OA
ATOM      3  N   UNL     1       4.132  -0.198   2.560  0.00  0.00    -0.287 N 
ATOM      4  H   UNL     1       4.641   0.185   1.828  0.00  0.00    +0.155 HD
ENDROOT
BRANCH   3   5
ATOM      5  C   UNL     1       4.757  -0.466   3.782  0.00  0.00    +0.035 A 
ATOM      6  C   UNL     1       5.754   0.378   4.254  0.00  0.00    +0.023 A 
ATOM      7  C   UNL     1       6.369   0.111   5.461  0.00  0.00    +0.004 A 
ATOM      8  C   UNL     1       5.994  -0.997   6.199  0.00  0.00    +0.028 A 
ATOM      9  C   UNL     1       5.003  -1.840   5.732  0.00  0.00    +0.107 A 
ATOM     10  C   UNL     1       4.379  -1.574   4.529  0.00  0.00    +0.051 A 
BRANCH   9  11
ATOM     11  S   UNL     1       4.530  -3.250   6.676  0.00  0.00    +0.056 S 
ATOM     12  O   UNL     1       3.962  -4.179   5.763  0.00  0.00    -0.153 OA
ATOM     13  O   UNL     1       5.638  -3.576   7.504  0.00  0.00    -0.153 OA
BRANCH  11  14
ATOM     14  N   UNL     1       3.308  -2.775   7.688  0.00  0.00    -0.204 NA
ATOM     15  H   UNL     1       2.629  -3.411   7.961  0.00  0.00    +0.144 HD
ATOM     16  H   UNL     1       3.271  -1.859   8.007  0.00  0.00    +0.144 HD
ENDBRANCH  11  14
ENDBRANCH   9  11
ENDBRANCH   3   5
BRANCH   1  17
ATOM     17  C   UNL     1       2.124  -0.089   1.119  0.00  0.00    +0.014 C 
ATOM     18  C   UNL     1       2.797  -0.793  -0.061  0.00  0.00    -0.004 C 
BRANCH  17  19
ATOM     19  N   UNL     1       0.713  -0.493   1.190  0.00  0.00    +0.391 N 
ATOM     20  H   UNL     1       0.290  -0.094   2.015  0.00  0.00    -0.084 HD
ATOM     21  H   UNL     1       0.654  -1.500   1.235  0.00  0.00    -0.084 HD
BRANCH  19  23
ATOM     22  C   UNL     1      -0.012   1.516  -0.006  0.00  0.00    -0.009 C 
ATOM     23  C   UNL     1       0.005  -0.014  -0.004  0.00  0.00    -0.042 C 
BRANCH  23  24
ATOM     24  C   UNL     1      -1.410  -0.532   0.009  0.00  0.00    -0.043 A 
ATOM     25  C   UNL     1      -2.014  -0.860   1.208  0.00  0.00    +0.005 A 
ATOM     26  C   UNL     1      -3.312  -1.336   1.221  0.00  0.00    +0.020 A 
ATOM     27  C   UNL     1      -4.007  -1.484   0.033  0.00  0.00    +0.042 A 
ATOM     28  C   UNL     1      -3.402  -1.155  -1.167  0.00  0.00    +0.040 A 
ATOM     29  C   UNL     1      -2.105  -0.674  -1.178  0.00  0.00    +0.044 A 
ATOM     30 CL   UNL     1      -1.348  -0.256  -2.683  0.00  0.00    -0.083 Cl
ATOM     31 CL   UNL     1      -5.636  -2.082   0.049  0.00  0.00    -0.083 Cl
ENDBRANCH  23  24
ENDBRANCH  19  23
ENDBRANCH  17  19
ENDBRANCH   1  17
TORSDOF 7
