REMARK  Name = ZINC48333302
REMARK  11 active torsions:
REMARK  status: ('A' for Active; 'I' for Inactive)
REMARK    1  A    between atoms: C_1  and  C_2
REMARK    2  A    between atoms: C_5  and  C_28
REMARK    3  A    between atoms: N_8  and  C_10
REMARK    4  A    between atoms: C_10  and  C_11
REMARK    5  A    between atoms: C_11  and  N_12
REMARK    6  A    between atoms: N_15  and  C_16
REMARK    7  A    between atoms: C_16  and  C_17
REMARK    8  A    between atoms: C_17  and  C_18
REMARK    9  A    between atoms: C_18  and  C_19
REMARK   10  A    between atoms: C_20  and  C_26
REMARK   11  A    between atoms: C_21  and  N_25
REMARK                            x       y       z     vdW  Elec       q    Type
REMARK                         _______ _______ _______ _____ _____    ______ ____
ROOT
ATOM      1  N   UNL     1       2.819  -0.203   4.893  0.00  0.00    -0.301 N 
ATOM      2  C   UNL     1       2.398   0.248   6.091  0.00  0.00    +0.300 C 
ATOM      3  O   UNL     1       1.450   1.007   6.155  0.00  0.00    -0.253 OA
ATOM      4  N   UNL     1       3.026  -0.142   7.217  0.00  0.00    -0.299 N 
ATOM      5  H   UNL     1       3.575  -0.809   4.842  0.00  0.00    +0.150 HD
ATOM      6  H   UNL     1       3.782  -0.748   7.166  0.00  0.00    +0.150 HD
ENDROOT
BRANCH   1   7
ATOM      7  C   UNL     1       2.136   0.221   3.668  0.00  0.00    +0.087 C 
BRANCH   7   8
ATOM      8  C   UNL     1       2.808  -0.431   2.458  0.00  0.00    -0.060 C 
BRANCH   8  14
ATOM      9  C   UNL     1      -0.019   1.526   0.010  0.00  0.00    +0.005 C 
ATOM     10  C   UNL     1       0.002  -0.004   0.002  0.00  0.00    -0.031 C 
ATOM     11  C   UNL     1       0.721  -0.499  -1.257  0.00  0.00    +0.003 C 
ATOM     12  C   UNL     1       2.177  -0.027  -1.220  0.00  0.00    -0.031 C 
ATOM     13  C   UNL     1       2.839  -0.534   0.063  0.00  0.00    -0.076 C 
ATOM     14  N   UNL     1       2.123  -0.005   1.230  0.00  0.00    +0.381 N 
ATOM     15  C   UNL     1       0.744  -0.512   1.240  0.00  0.00    -0.076 C 
ATOM     16  C   UNL     1       2.924  -0.581  -2.434  0.00  0.00    +0.005 C 
ATOM     17  H   UNL     1       2.109   1.003   1.187  0.00  0.00    -0.082 HD
ENDBRANCH   8  14
ENDBRANCH   7   8
ENDBRANCH   1   7
BRANCH   4  18
ATOM     18  C   UNL     1       2.568   0.348   8.519  0.00  0.00    +0.106 C 
BRANCH  18  19
ATOM     19  C   UNL     1       3.446  -0.242   9.625  0.00  0.00    +0.025 C 
BRANCH  19  20
ATOM     20  C   UNL     1       2.967   0.271  10.985  0.00  0.00    +0.060 C 
BRANCH  20  21
ATOM     21  C   UNL     1       3.832  -0.311  12.073  0.00  0.00    +0.082 A 
ATOM     22  C   UNL     1       3.600  -1.528  12.755  0.00  0.00    +0.113 A 
ATOM     23  C   UNL     1       4.634  -1.683  13.674  0.00  0.00    +0.129 A 
ATOM     24  N   UNL     1       5.444  -0.611  13.546  0.00  0.00    -0.263 N 
ATOM     25  H   UNL     1       6.250  -0.445  14.059  0.00  0.00    +0.190 HD
ATOM     26  N   UNL     1       4.926   0.218  12.545  0.00  0.00    -0.176 NA
BRANCH  23  27
ATOM     27  N   UNL     1       4.801  -2.737  14.553  0.00  0.00    -0.342 N 
ATOM     28  H   UNL     1       4.158  -3.463  14.566  0.00  0.00    +0.144 HD
ATOM     29  H   UNL     1       5.560  -2.750  15.156  0.00  0.00    +0.144 HD
ENDBRANCH  23  27
BRANCH  22  30
ATOM     30  C   UNL     1       2.508  -2.429  12.542  0.00  0.00    +0.104 C 
ATOM     31  N   UNL     1       1.641  -3.144  12.372  0.00  0.00    -0.191 NA
ENDBRANCH  22  30
ENDBRANCH  20  21
ENDBRANCH  19  20
ENDBRANCH  18  19
ENDBRANCH   4  18
TORSDOF 9
