REMARK  Name = ZINC02917152
REMARK  5 active torsions:
REMARK  status: ('A' for Active; 'I' for Inactive)
REMARK    1  A    between atoms: C_1  and  C_2
REMARK    2  A    between atoms: C_6  and  C_26
REMARK    3  A    between atoms: C_7  and  N_8
REMARK    4  A    between atoms: C_9  and  C_11
REMARK    5  A    between atoms: N_15  and  C_16
REMARK                            x       y       z     vdW  Elec       q    Type
REMARK                         _______ _______ _______ _____ _____    ______ ____
ROOT
ATOM      1  C   UNL     1      -0.243  -4.557  -0.082  0.00  0.00    +0.107 A 
ATOM      2  C   UNL     1      -0.350  -3.514  -0.954  0.00  0.00    +0.048 A 
ATOM      3  C   UNL     1       0.510  -2.495  -0.506  0.00  0.00    +0.084 A 
ATOM      4  C   UNL     1       1.140  -2.963   0.667  0.00  0.00    +0.149 A 
ATOM      5  N   UNL     1       0.668  -4.222   0.910  0.00  0.00    -0.324 N 
ATOM      6  C   UNL     1       1.060  -5.078   2.032  0.00  0.00    +0.151 C 
ATOM      7  N   UNL     1       2.012  -2.179   1.296  0.00  0.00    -0.211 NA
ATOM      8  C   UNL     1       2.305  -0.963   0.844  0.00  0.00    +0.143 A 
ATOM      9  C   UNL     1       3.237  -0.177   1.551  0.00  0.00    +0.047 A 
ATOM     10  C   UNL     1       3.545   1.069   1.097  0.00  0.00    +0.005 A 
ATOM     11  C   UNL     1       2.930   1.556  -0.066  0.00  0.00    +0.018 A 
ATOM     12  C   UNL     1       2.039   0.790  -0.733  0.00  0.00    +0.096 A 
ATOM     13  N   UNL     1       1.723  -0.461  -0.289  0.00  0.00    -0.268 N 
ATOM     14  C   UNL     1       0.827  -1.201  -0.980  0.00  0.00    +0.268 A 
ATOM     15  O   UNL     1       0.303  -0.762  -1.989  0.00  0.00    -0.267 OA
ENDROOT
BRANCH   1  17
ATOM     16  N   UNL     1      -0.889  -6.725   0.823  0.00  0.00    -0.280 N 
ATOM     17  C   UNL     1      -0.969  -5.825  -0.177  0.00  0.00    +0.265 C 
ATOM     18  O   UNL     1      -1.646  -6.066  -1.160  0.00  0.00    -0.268 OA
ATOM     19  H   UNL     1      -0.417  -6.501   1.640  0.00  0.00    +0.155 HD
BRANCH  16  26
ATOM     20  C   UNL     1       0.806  -9.001   0.612  0.00  0.00    +0.045 C 
ATOM     21  C   UNL     1      -0.696  -9.119   0.576  0.00  0.00    -0.029 A 
ATOM     22  C   UNL     1      -1.288 -10.359   0.442  0.00  0.00    +0.005 A 
ATOM     23  C   UNL     1      -2.666 -10.468   0.404  0.00  0.00    +0.001 A 
ATOM     24  C   UNL     1      -3.455  -9.337   0.505  0.00  0.00    +0.005 A 
ATOM     25  C   UNL     1      -2.869  -8.095   0.644  0.00  0.00    -0.029 A 
ATOM     26  C   UNL     1      -1.485  -7.982   0.683  0.00  0.00    +0.040 A 
ATOM     27  C   UNL     1      -3.730  -6.863   0.755  0.00  0.00    +0.045 C 
ENDBRANCH  16  26
ENDBRANCH   1  17
TORSDOF 2
