REMARK  Name = ZINC01770941
REMARK  9 active torsions:
REMARK  status: ('A' for Active; 'I' for Inactive)
REMARK    1  A    between atoms: C_1  and  N_53
REMARK    2  A    between atoms: C_2  and  N_53
REMARK    3  A    between atoms: C_3  and  C_4
REMARK    4  A    between atoms: C_3  and  N_53
REMARK    5  A    between atoms: C_5  and  O_32
REMARK    6  A    between atoms: C_11  and  C_28
REMARK    7  A    between atoms: C_12  and  O_15
REMARK    8  A    between atoms: O_15  and  C_16
REMARK    9  A    between atoms: C_19  and  C_22
REMARK                            x       y       z     vdW  Elec       q    Type
REMARK                         _______ _______ _______ _____ _____    ______ ____
ROOT
ATOM      1  C   UNL     1       1.134  -2.099  -0.021  0.00  0.00    +0.020 A 
ATOM      2  C   UNL     1       2.328  -2.800  -0.036  0.00  0.00    +0.122 A 
ATOM      3  C   UNL     1       3.546  -2.124  -0.044  0.00  0.00    +0.046 A 
ATOM      4  C   UNL     1       3.579  -0.759  -0.037  0.00  0.00    +0.019 A 
ATOM      5  C   UNL     1       2.385  -0.038  -0.021  0.00  0.00    +0.068 A 
ATOM      6  C   UNL     1       1.150  -0.711  -0.013  0.00  0.00    +0.144 A 
ATOM      7  O   UNL     1       0.002  -0.004   0.002  0.00  0.00    -0.447 OA
ATOM      8  C   UNL     1      -0.016   1.335   0.009  0.00  0.00    +0.254 A 
ATOM      9  C   UNL     1       1.107   2.080   0.003  0.00  0.00    +0.222 A 
ATOM     10  C   UNL     1       2.377   1.435  -0.013  0.00  0.00    +0.235 A 
ATOM     11  O   UNL     1       3.415   2.076  -0.019  0.00  0.00    -0.283 OA
ENDROOT
BRANCH   8  12
ATOM     12  C   UNL     1      -1.349   2.039   0.019  0.00  0.00    +0.454 C 
ATOM     13  F   UNL     1      -1.767   2.264  -1.296  0.00  0.00    -0.163 F 
ATOM     14  F   UNL     1      -2.291   1.243   0.679  0.00  0.00    -0.163 F 
ATOM     15  F   UNL     1      -1.224   3.263   0.685  0.00  0.00    -0.163 F 
ENDBRANCH   8  12
BRANCH   2  16
ATOM     16  O   UNL     1       2.311  -4.157  -0.044  0.00  0.00    -0.506 OA
ATOM     17  H   UNL     1       2.298  -4.545  -0.929  0.00  0.00    +0.292 HD
ENDBRANCH   2  16
BRANCH   1  18
ATOM     18  C   UNL     1      -0.178  -2.840  -0.013  0.00  0.00    -0.036 C 
BRANCH  18  21
ATOM     19  C   UNL     1      -1.763  -3.992  -1.435  0.00  0.00    -0.096 C 
ATOM     20  C   UNL     1      -0.936  -1.806  -2.067  0.00  0.00    -0.096 C 
ATOM     21  N   UNL     1      -0.596  -3.085  -1.409  0.00  0.00    +0.379 N 
ATOM     22  H   UNL     1       0.180  -3.525  -1.917  0.00  0.00    -0.082 HD
ENDBRANCH  18  21
ENDBRANCH   1  18
BRANCH   9  23
ATOM     23  O   UNL     1       1.029   3.439   0.011  0.00  0.00    -0.448 OA
BRANCH  23  24
ATOM     24  C   UNL     1       1.004   4.069   1.214  0.00  0.00    +0.129 A 
ATOM     25  C   UNL     1       1.052   3.326   2.386  0.00  0.00    +0.047 A 
ATOM     26  C   UNL     1       1.032   3.964   3.609  0.00  0.00    +0.012 A 
ATOM     27  C   UNL     1       0.953   5.354   3.667  0.00  0.00    -0.018 A 
ATOM     28  C   UNL     1       0.899   6.096   2.489  0.00  0.00    +0.012 A 
ATOM     29  C   UNL     1       0.924   5.454   1.269  0.00  0.00    +0.047 A 
BRANCH  27  30
ATOM     30  C   UNL     1       0.925   6.042   4.981  0.00  0.00    -0.018 A 
ATOM     31  C   UNL     1       0.851   7.433   5.041  0.00  0.00    +0.008 A 
ATOM     32  C   UNL     1       0.822   8.067   6.266  0.00  0.00    +0.001 A 
ATOM     33  C   UNL     1       0.875   7.327   7.433  0.00  0.00    +0.000 A 
ATOM     34  C   UNL     1       0.953   5.947   7.380  0.00  0.00    +0.001 A 
ATOM     35  C   UNL     1       0.979   5.301   6.160  0.00  0.00    +0.008 A 
ENDBRANCH  27  30
ENDBRANCH  23  24
ENDBRANCH   9  23
TORSDOF 7
