REMARK  Name = ZINC63720162
REMARK  10 active torsions:
REMARK  status: ('A' for Active; 'I' for Inactive)
REMARK    1  A    between atoms: C_1  and  C_2
REMARK    2  A    between atoms: C_5  and  C_33
REMARK    3  A    between atoms: C_6  and  N_8
REMARK    4  A    between atoms: C_9  and  C_11
REMARK    5  A    between atoms: C_11  and  S_12
REMARK    6  A    between atoms: S_12  and  C_13
REMARK    7  A    between atoms: C_17  and  C_20
REMARK    8  A    between atoms: C_20  and  C_22
REMARK    9  A    between atoms: C_20  and  N_32
REMARK   10  A    between atoms: C_22  and  C_23
REMARK                            x       y       z     vdW  Elec       q    Type
REMARK                         _______ _______ _______ _____ _____    ______ ____
ROOT
ATOM      1  C   UNL     1       0.541  -2.801   7.699  0.00  0.00    +0.319 C 
ATOM      2  N   UNL     1       1.705  -3.687   7.565  0.00  0.00    -0.146 NA
ATOM      3  N   UNL     1       1.403  -4.838   7.904  0.00  0.00    -0.159 NA
ATOM      4  C   UNL     1      -0.006  -4.892   8.313  0.00  0.00    +0.246 C 
ATOM      5  O   UNL     1      -0.598  -3.681   7.795  0.00  0.00    -0.320 OA
ENDROOT
BRANCH   1   6
ATOM      6  S   UNL     1       0.391  -1.734   6.239  0.00  0.00    -0.095 S 
BRANCH   6   7
ATOM      7  C   UNL     1       0.280  -2.900   4.854  0.00  0.00    +0.169 C 
BRANCH   7   9
ATOM      8  N   UNL     1       0.052  -2.797   2.393  0.00  0.00    -0.285 N 
ATOM      9  C   UNL     1       0.150  -2.135   3.562  0.00  0.00    +0.227 C 
ATOM     10  O   UNL     1       0.134  -0.922   3.575  0.00  0.00    -0.275 OA
ATOM     11  H   UNL     1      -0.016  -3.765   2.388  0.00  0.00    +0.155 HD
BRANCH   8  17
ATOM     12  C   UNL     1       1.264   1.227  -0.158  0.00  0.00    +0.044 C 
ATOM     13  C   UNL     1       0.628  -0.137  -0.079  0.00  0.00    -0.049 A 
ATOM     14  C   UNL     1       0.039  -0.690  -1.201  0.00  0.00    +0.004 A 
ATOM     15  C   UNL     1      -0.546  -1.941  -1.133  0.00  0.00    +0.005 A 
ATOM     16  C   UNL     1      -0.543  -2.643   0.057  0.00  0.00    -0.029 A 
ATOM     17  C   UNL     1       0.048  -2.090   1.185  0.00  0.00    +0.037 A 
ATOM     18  C   UNL     1       0.639  -0.835   1.112  0.00  0.00    +0.027 A 
ATOM     19  C   UNL     1      -1.181  -4.006   0.131  0.00  0.00    +0.045 C 
ENDBRANCH   8  17
ENDBRANCH   7   9
ENDBRANCH   6   7
ENDBRANCH   1   6
BRANCH   4  20
ATOM     20  C   UNL     1      -0.688  -6.121   7.709  0.00  0.00    -0.017 C 
BRANCH  20  21
ATOM     21  N   UNL     1      -0.586  -6.067   6.245  0.00  0.00    +0.383 N 
ATOM     22  H   UNL     1      -1.036  -6.878   5.846  0.00  0.00    -0.089 HD
ATOM     23  H   UNL     1      -1.039  -5.231   5.907  0.00  0.00    -0.089 HD
ATOM     24  H   UNL     1       0.386  -6.056   5.975  0.00  0.00    -0.089 HD
ENDBRANCH  20  21
BRANCH  20  25
ATOM     25  C   UNL     1      -0.002  -7.388   8.222  0.00  0.00    +0.021 C 
BRANCH  25  26
ATOM     26  C   UNL     1      -0.749  -8.600   7.726  0.00  0.00    -0.043 C 
ATOM     27  C   UNL     1      -0.468  -9.334   6.625  0.00  0.00    -0.001 A 
ATOM     28  C   UNL     1       0.577  -9.227   5.599  0.00  0.00    +0.010 A 
ATOM     29  C   UNL     1       0.602 -10.130   4.593  0.00  0.00    +0.001 A 
ATOM     30  C   UNL     1      -0.342 -11.163   4.505  0.00  0.00    +0.002 A 
ATOM     31  C   UNL     1      -1.331 -11.326   5.410  0.00  0.00    +0.026 A 
ATOM     32  C   UNL     1      -1.452 -10.433   6.510  0.00  0.00    +0.043 A 
ATOM     33  N   UNL     1      -2.308 -10.381   7.501  0.00  0.00    -0.380 N 
ATOM     34  C   UNL     1      -1.960  -9.245   8.361  0.00  0.00    +0.144 C 
ATOM     35  H   UNL     1      -3.047 -10.994   7.644  0.00  0.00    +0.160 HD
ENDBRANCH  25  26
ENDBRANCH  20  25
ENDBRANCH   4  20
TORSDOF 8
