REMARK  Name = ZINC39948050
REMARK  6 active torsions:
REMARK  status: ('A' for Active; 'I' for Inactive)
REMARK    1  A    between atoms: C_4  and  N_7
REMARK    2  A    between atoms: C_8  and  C_10
REMARK    3  A    between atoms: C_15  and  N_16
REMARK    4  A    between atoms: C_17  and  C_19
REMARK    5  A    between atoms: N_21  and  N_22
REMARK    6  A    between atoms: C_23  and  C_24
REMARK                            x       y       z     vdW  Elec       q    Type
REMARK                         _______ _______ _______ _____ _____    ______ ____
ROOT
ATOM      1  N   UNL     1       3.758  -4.788   0.037  0.00  0.00    -0.277 N 
ATOM      2  C   UNL     1       3.849  -6.129  -0.061  0.00  0.00    +0.305 C 
ATOM      3  O   UNL     1       4.933  -6.670   0.010  0.00  0.00    -0.265 OA
ATOM      4  H   UNL     1       2.887  -4.361   0.047  0.00  0.00    +0.155 HD
ENDROOT
BRANCH   1  10
ATOM      5  C   UNL     1       4.966  -2.756  -0.488  0.00  0.00    +0.058 A 
ATOM      6  C   UNL     1       6.129  -1.989  -0.389  0.00  0.00    +0.015 A 
ATOM      7  C   UNL     1       7.216  -2.476   0.304  0.00  0.00    +0.001 A 
ATOM      8  C   UNL     1       7.162  -3.724   0.903  0.00  0.00    +0.002 A 
ATOM      9  C   UNL     1       6.020  -4.494   0.813  0.00  0.00    +0.024 A 
ATOM     10  C   UNL     1       4.912  -4.017   0.124  0.00  0.00    +0.046 A 
BRANCH   5  12
ATOM     11  N   UNL     1       3.886  -1.074  -1.898  0.00  0.00    -0.281 N 
ATOM     12  C   UNL     1       3.798  -2.240  -1.228  0.00  0.00    +0.250 C 
ATOM     13  O   UNL     1       2.756  -2.867  -1.233  0.00  0.00    -0.270 OA
ATOM     14  H   UNL     1       4.735  -0.607  -1.950  0.00  0.00    +0.155 HD
BRANCH  11  18
ATOM     15  C   UNL     1       0.514   0.526  -3.748  0.00  0.00    +0.000 A 
ATOM     16  C   UNL     1       1.451   1.366  -3.175  0.00  0.00    +0.002 A 
ATOM     17  C   UNL     1       2.570   0.839  -2.561  0.00  0.00    +0.023 A 
ATOM     18  C   UNL     1       2.754  -0.537  -2.519  0.00  0.00    +0.034 A 
ATOM     19  C   UNL     1       1.811  -1.378  -3.095  0.00  0.00    +0.023 A 
ATOM     20  C   UNL     1       0.694  -0.845  -3.708  0.00  0.00    +0.002 A 
ENDBRANCH  11  18
ENDBRANCH   5  12
ENDBRANCH   1  10
BRANCH   2  21
ATOM     21  C   UNL     1       2.618  -6.949  -0.256  0.00  0.00    +0.318 C 
ATOM     22  O   UNL     1       1.533  -6.407  -0.327  0.00  0.00    -0.263 OA
ATOM     23  N   UNL     1       2.709  -8.290  -0.354  0.00  0.00    -0.199 N 
ATOM     24  H   UNL     1       3.575  -8.722  -0.297  0.00  0.00    +0.178 HD
BRANCH  23  25
ATOM     25  N   UNL     1       1.552  -9.059  -0.537  0.00  0.00    -0.191 NA
ATOM     26  C   UNL     1       1.639 -10.333  -0.630  0.00  0.00    +0.120 C 
BRANCH  26  27
ATOM     27  C   UNL     1       0.395 -11.160  -0.827  0.00  0.00    +0.141 C 
ATOM     28  C   UNL     1       0.229 -12.048   0.391  0.00  0.00    +0.001 C 
ATOM     29  C   UNL     1       0.186 -13.395   0.181  0.00  0.00    -0.007 A 
ATOM     30  C   UNL     1       0.028 -14.324   1.300  0.00  0.00    +0.009 A 
ATOM     31  C   UNL     1      -0.009 -15.657   1.044  0.00  0.00    +0.001 A 
ATOM     32  C   UNL     1       0.099 -16.151  -0.256  0.00  0.00    +0.002 A 
ATOM     33  C   UNL     1       0.247 -15.341  -1.337  0.00  0.00    +0.024 A 
ATOM     34  C   UNL     1       0.297 -13.944  -1.182  0.00  0.00    +0.040 A 
ATOM     35  N   UNL     1       0.442 -13.159  -2.249  0.00  0.00    -0.284 N 
ATOM     36  C   UNL     1       0.499 -11.841  -2.174  0.00  0.00    +0.229 C 
ATOM     37  O   UNL     1       0.633 -11.177  -3.184  0.00  0.00    -0.274 OA
ATOM     38  H   UNL     1       0.510 -13.575  -3.123  0.00  0.00    +0.155 HD
ENDBRANCH  26  27
ENDBRANCH  23  25
ENDBRANCH   2  21
TORSDOF 6
