REMARK  Name = ZINC63363055
REMARK  6 active torsions:
REMARK  status: ('A' for Active; 'I' for Inactive)
REMARK    1  A    between atoms: C_1  and  C_2
REMARK    2  A    between atoms: C_2  and  C_3
REMARK    3  A    between atoms: C_6  and  C_9
REMARK    4  A    between atoms: N_16  and  C_31
REMARK    5  A    between atoms: C_19  and  C_30
REMARK    6  A    between atoms: C_31  and  C_32
REMARK                            x       y       z     vdW  Elec       q    Type
REMARK                         _______ _______ _______ _____ _____    ______ ____
ROOT
ATOM      1  C   UNL     1      -5.490  -1.884   0.166  0.00  0.00    +0.065 C 
ATOM      2  C   UNL     1      -6.415  -0.932  -0.612  0.00  0.00    +0.121 C 
ATOM      3  N   UNL     1      -7.685  -1.623  -0.911  0.00  0.00    -0.283 N 
ATOM      4  C   UNL     1      -8.819  -1.083  -0.451  0.00  0.00    +0.234 C 
ATOM      5  O   UNL     1      -8.730  -0.069   0.209  0.00  0.00    -0.274 OA
ATOM      6  C   UNL     1     -10.184  -1.635  -0.689  0.00  0.00    +0.204 C 
ATOM      7  N   UNL     1     -10.155  -2.842  -1.499  0.00  0.00    -0.286 N 
ATOM      8  C   UNL     1      -9.032  -3.396  -1.953  0.00  0.00    +0.242 C 
ATOM      9  O   UNL     1      -9.129  -4.403  -2.622  0.00  0.00    -0.273 OA
ATOM     10  C   UNL     1      -7.663  -2.860  -1.693  0.00  0.00    +0.135 C 
ATOM     11  C   UNL     1      -6.831  -3.896  -0.929  0.00  0.00    +0.139 C 
ATOM     12  C   UNL     1      -5.522  -3.208  -0.556  0.00  0.00    -0.027 C 
ATOM     13  C   UNL     1      -4.549  -3.990  -1.007  0.00  0.00    -0.000 A 
ATOM     14  C   UNL     1      -3.086  -3.914  -0.866  0.00  0.00    +0.010 A 
ATOM     15  C   UNL     1      -2.372  -4.889  -1.488  0.00  0.00    +0.001 A 
ATOM     16  C   UNL     1      -2.960  -5.919  -2.230  0.00  0.00    +0.002 A 
ATOM     17  C   UNL     1      -4.297  -6.071  -2.405  0.00  0.00    +0.026 A 
ATOM     18  C   UNL     1      -5.153  -5.113  -1.787  0.00  0.00    +0.043 A 
ATOM     19  N   UNL     1      -6.472  -5.042  -1.764  0.00  0.00    -0.375 N 
ATOM     20  C   UNL     1      -6.976  -2.588  -3.032  0.00  0.00    +0.044 C 
ATOM     21  H   UNL     1      -7.096  -5.633  -2.214  0.00  0.00    +0.160 HD
ENDROOT
BRANCH   1  25
ATOM     22  C   UNL     1      -1.507  -0.342   0.211  0.00  0.00    -0.048 A 
ATOM     23  C   UNL     1      -2.171  -0.577   1.401  0.00  0.00    +0.004 A 
ATOM     24  C   UNL     1      -3.460  -1.075   1.386  0.00  0.00    +0.004 A 
ATOM     25  C   UNL     1      -4.085  -1.339   0.182  0.00  0.00    -0.039 A 
ATOM     26  C   UNL     1      -3.421  -1.104  -1.008  0.00  0.00    +0.004 A 
ATOM     27  C   UNL     1      -2.134  -0.601  -0.993  0.00  0.00    +0.004 A 
BRANCH  22  29
ATOM     28  C   UNL     1      -0.146   1.732   0.215  0.00  0.00    +0.009 C 
ATOM     29  C   UNL     1      -0.102   0.202   0.227  0.00  0.00    +0.032 C 
ENDBRANCH  22  29
ENDBRANCH   1  25
BRANCH   7  30
ATOM     30  C   UNL     1     -11.428  -3.483  -1.833  0.00  0.00    +0.145 C 
BRANCH  30  31
ATOM     31  C   UNL     1     -11.711  -4.585  -0.844  0.00  0.00    -0.012 A 
ATOM     32  C   UNL     1     -11.379  -5.892  -1.151  0.00  0.00    +0.006 A 
ATOM     33  C   UNL     1     -11.638  -6.902  -0.245  0.00  0.00    +0.000 A 
ATOM     34  C   UNL     1     -12.228  -6.607   0.970  0.00  0.00    +0.001 A 
ATOM     35  C   UNL     1     -12.560  -5.302   1.279  0.00  0.00    +0.020 A 
ATOM     36  C   UNL     1     -12.296  -4.289   0.374  0.00  0.00    +0.046 A 
ATOM     37 CL   UNL     1     -12.707  -2.648   0.763  0.00  0.00    -0.083 Cl
ENDBRANCH  30  31
ENDBRANCH   7  30
TORSDOF 4
