REMARK  Name = ZINC49584966
REMARK  1 active torsions:
REMARK  status: ('A' for Active; 'I' for Inactive)
REMARK    1  A    between atoms: C_1  and  N_2
REMARK                            x       y       z     vdW  Elec       q    Type
REMARK                         _______ _______ _______ _____ _____    ______ ____
ROOT
ATOM      1  C   UNL     1      -2.450  -0.605  -0.647  0.00  0.00    +0.176 C 
ATOM      2  N   UNL     1      -1.063  -0.909  -0.286  0.00  0.00    -0.235 N 
ATOM      3  C   UNL     1       0.008  -0.898  -1.107  0.00  0.00    +0.217 A 
ATOM      4  N   UNL     1       1.066  -1.227  -0.397  0.00  0.00    -0.187 NA
ATOM      5  C   UNL     1       0.706  -1.451   0.868  0.00  0.00    +0.219 A 
ATOM      6  N   UNL     1      -0.582  -1.264   0.985  0.00  0.00    -0.141 NA
ATOM      7 BR   UNL     1       1.873  -1.952   2.269  0.00  0.00    -0.005 Br
ATOM      8  N   UNL     1      -0.004  -0.595  -2.457  0.00  0.00    -0.300 N 
ATOM      9  C   UNL     1       0.121   0.796  -2.913  0.00  0.00    +0.108 C 
ATOM     10  C   UNL     1       1.272   0.882  -3.921  0.00  0.00    +0.019 C 
ATOM     11  C   UNL     1       1.037  -0.130  -5.045  0.00  0.00    +0.003 C 
ATOM     12  C   UNL     1       1.010  -1.545  -4.463  0.00  0.00    +0.019 C 
ATOM     13  C   UNL     1      -0.137  -1.659  -3.462  0.00  0.00    +0.108 C 
ENDROOT
TORSDOF 0
