REMARK  Name = ZINC36704284
REMARK  11 active torsions:
REMARK  status: ('A' for Active; 'I' for Inactive)
REMARK    1  A    between atoms: C_1  and  C_2
REMARK    2  A    between atoms: C_2  and  O_3
REMARK    3  A    between atoms: O_3  and  C_4
REMARK    4  A    between atoms: N_13  and  C_14
REMARK    5  A    between atoms: C_14  and  C_15
REMARK    6  A    between atoms: C_15  and  N_16
REMARK    7  A    between atoms: N_16  and  C_17
REMARK    8  A    between atoms: N_16  and  C_18
REMARK    9  A    between atoms: C_19  and  C_21
REMARK   10  A    between atoms: N_24  and  S_27
REMARK   11  A    between atoms: S_27  and  C_30
REMARK                            x       y       z     vdW  Elec       q    Type
REMARK                         _______ _______ _______ _____ _____    ______ ____
ROOT
ATOM      1  C   UNL     1       1.572  -1.721  -0.961  0.00  0.00    +0.147 A 
ATOM      2  C   UNL     1       1.279  -2.543   0.102  0.00  0.00    +0.048 A 
ATOM      3  C   UNL     1       1.541  -3.905   0.057  0.00  0.00    +0.005 A 
ATOM      4  C   UNL     1       2.108  -4.449  -1.081  0.00  0.00    +0.017 A 
ATOM      5  C   UNL     1       2.404  -3.636  -2.148  0.00  0.00    +0.044 A 
ATOM      6  C   UNL     1       2.149  -2.248  -2.144  0.00  0.00    +0.122 A 
ATOM      7  N   UNL     1       2.491  -1.586  -3.272  0.00  0.00    -0.221 NA
ATOM      8  C   UNL     1       3.022  -2.188  -4.309  0.00  0.00    +0.168 A 
ATOM      9  S   UNL     1       3.114  -3.886  -3.758  0.00  0.00    -0.052 S 
ATOM     10  N   UNL     1       3.419  -1.645  -5.521  0.00  0.00    -0.252 N 
ATOM     11  C   UNL     1       3.168  -0.349  -5.793  0.00  0.00    +0.224 C 
ATOM     12  O   UNL     1       3.431   0.103  -6.888  0.00  0.00    -0.275 OA
ENDROOT
BRANCH  11  13
ATOM     13  C   UNL     1       2.562   0.539  -4.737  0.00  0.00    +0.078 C 
ATOM     14  C   UNL     1       1.064   0.246  -4.624  0.00  0.00    +0.030 C 
ATOM     15  C   UNL     1       0.458   1.126  -3.526  0.00  0.00    +0.110 C 
ATOM     16  N   UNL     1       0.778   2.531  -3.814  0.00  0.00    -0.176 NA
ATOM     17  C   UNL     1       2.183   2.905  -4.031  0.00  0.00    +0.110 C 
ATOM     18  C   UNL     1       2.769   2.005  -5.123  0.00  0.00    +0.030 C 
BRANCH  16  19
ATOM     19  S   UNL     1      -0.420   3.670  -3.894  0.00  0.00    +0.067 S 
ATOM     20  O   UNL     1       0.078   4.728  -4.701  0.00  0.00    -0.152 OA
ATOM     21  O   UNL     1      -1.621   2.976  -4.204  0.00  0.00    -0.152 OA
BRANCH  19  22
ATOM     22  C   UNL     1      -0.623   4.327  -2.272  0.00  0.00    +0.143 A 
ATOM     23  C   UNL     1      -0.007   5.390  -1.698  0.00  0.00    +0.036 A 
ATOM     24  C   UNL     1      -0.328   5.728  -0.396  0.00  0.00    +0.010 A 
ATOM     25  C   UNL     1      -1.248   4.987   0.268  0.00  0.00    +0.047 A 
ATOM     26  S   UNL     1      -1.699   3.771  -0.960  0.00  0.00    -0.077 S 
ENDBRANCH  19  22
ENDBRANCH  16  19
ENDBRANCH  11  13
BRANCH   1  27
ATOM     27  O   UNL     1       1.300  -0.392  -0.878  0.00  0.00    -0.490 OA
BRANCH  27  29
ATOM     28  C   UNL     1       0.487   1.587   0.246  0.00  0.00    +0.048 C 
ATOM     29  C   UNL     1       0.719   0.077   0.340  0.00  0.00    +0.226 C 
ENDBRANCH  27  29
ENDBRANCH   1  27
BRANCH  10  30
ATOM     30  C   UNL     1       4.112  -2.479  -6.506  0.00  0.00    +0.097 C 
BRANCH  30  31
ATOM     31  C   UNL     1       3.097  -3.040  -7.503  0.00  0.00    -0.060 C 
BRANCH  31  32
ATOM     32  N   UNL     1       3.792  -3.877  -8.491  0.00  0.00    +0.377 N 
ATOM     33  C   UNL     1       2.805  -4.511  -9.376  0.00  0.00    -0.097 C 
ATOM     34  C   UNL     1       4.699  -3.041  -9.289  0.00  0.00    -0.097 C 
ATOM     35  H   UNL     1       4.323  -4.590  -8.014  0.00  0.00    -0.083 HD
ENDBRANCH  31  32
ENDBRANCH  30  31
ENDBRANCH  10  30
TORSDOF 8
