REMARK  Name = ZINC49192996
REMARK  11 active torsions:
REMARK  status: ('A' for Active; 'I' for Inactive)
REMARK    1  A    between atoms: C_1  and  C_2
REMARK    2  A    between atoms: C_2  and  C_3
REMARK    3  A    between atoms: C_2  and  C_4
REMARK    4  A    between atoms: C_4  and  C_6
REMARK    5  A    between atoms: C_4  and  N_10
REMARK    6  A    between atoms: C_6  and  N_7
REMARK    7  A    between atoms: N_7  and  C_8
REMARK    8  A    between atoms: N_7  and  C_9
REMARK    9  A    between atoms: N_10  and  S_11
REMARK   10  A    between atoms: S_11  and  C_14
REMARK   11  A    between atoms: C_15  and  N_22
REMARK                            x       y       z     vdW  Elec       q    Type
REMARK                         _______ _______ _______ _____ _____    ______ ____
ROOT
ATOM      1  S   UNL     1      -4.355   1.351  -0.676  0.00  0.00    +0.061 S 
ATOM      2  O   UNL     1      -5.226   1.963  -1.617  0.00  0.00    -0.153 OA
ATOM      3  O   UNL     1      -4.832   0.704   0.496  0.00  0.00    -0.153 OA
ENDROOT
BRANCH   1   4
ATOM      4  C   UNL     1      -3.236   2.602  -0.140  0.00  0.00    +0.140 A 
ATOM      5  C   UNL     1      -2.694   2.549   1.139  0.00  0.00    +0.053 A 
ATOM      6  C   UNL     1      -1.812   3.536   1.558  0.00  0.00    +0.040 A 
ATOM      7  C   UNL     1      -1.475   4.568   0.703  0.00  0.00    +0.021 A 
ATOM      8  C   UNL     1      -2.016   4.619  -0.570  0.00  0.00    +0.032 A 
ATOM      9  C   UNL     1      -2.891   3.634  -0.992  0.00  0.00    +0.047 A 
ATOM     10 BR   UNL     1      -3.621   3.703  -2.735  0.00  0.00    -0.048 Br
ATOM     11 BR   UNL     1      -0.274   5.913   1.272  0.00  0.00    -0.050 Br
BRANCH   5  12
ATOM     12  N   UNL     1      -3.037   1.505   2.001  0.00  0.00    -0.356 N 
ATOM     13  H   UNL     1      -3.317   0.649   1.639  0.00  0.00    +0.142 HD
ATOM     14  H   UNL     1      -2.996   1.636   2.961  0.00  0.00    +0.142 HD
ENDBRANCH   5  12
ENDBRANCH   1   4
BRANCH   1  15
ATOM     15  N   UNL     1      -3.470   0.228  -1.511  0.00  0.00    -0.188 NA
ATOM     16  H   UNL     1      -3.635   0.086  -2.456  0.00  0.00    +0.148 HD
BRANCH  15  17
ATOM     17  C   UNL     1      -2.439  -0.552  -0.821  0.00  0.00    +0.063 C 
BRANCH  17  19
ATOM     18  C   UNL     1      -0.797   1.278  -1.270  0.00  0.00    +0.009 C 
ATOM     19  C   UNL     1      -1.068  -0.221  -1.415  0.00  0.00    -0.000 C 
ATOM     20  C   UNL     1       0.013  -1.009  -0.671  0.00  0.00    +0.009 C 
ENDBRANCH  17  19
BRANCH  17  21
ATOM     21  C   UNL     1      -2.725  -2.044  -0.998  0.00  0.00    -0.059 C 
BRANCH  21  22
ATOM     22  N   UNL     1      -4.088  -2.340  -0.537  0.00  0.00    +0.377 N 
ATOM     23  C   UNL     1      -4.405  -3.747  -0.816  0.00  0.00    -0.097 C 
ATOM     24  C   UNL     1      -4.180  -2.094   0.909  0.00  0.00    -0.097 C 
ATOM     25  H   UNL     1      -4.743  -1.745  -1.021  0.00  0.00    -0.083 HD
ENDBRANCH  21  22
ENDBRANCH  17  21
ENDBRANCH  15  17
ENDBRANCH   1  15
TORSDOF 7
