REMARK  Name = ZINC46555002
REMARK  5 active torsions:
REMARK  status: ('A' for Active; 'I' for Inactive)
REMARK    1  A    between atoms: C_1  and  N_2
REMARK    2  A    between atoms: N_11  and  N_12
REMARK    3  A    between atoms: C_13  and  C_15
REMARK    4  A    between atoms: C_18  and  N_24
REMARK    5  A    between atoms: C_19  and  N_21
REMARK                            x       y       z     vdW  Elec       q    Type
REMARK                         _______ _______ _______ _____ _____    ______ ____
ROOT
ATOM      1  N   UNL     1      -0.097  -1.032   3.522  0.00  0.00    -0.231 N 
ATOM      2  C   UNL     1       0.166  -0.528   4.745  0.00  0.00    +0.260 C 
ATOM      3  O   UNL     1       0.430   0.652   4.872  0.00  0.00    -0.269 OA
ATOM      4  H   UNL     1      -0.308  -1.974   3.421  0.00  0.00    +0.173 HD
ENDROOT
BRANCH   1  15
ATOM      5  C   UNL     1      -0.060   1.340  -0.051  0.00  0.00    +0.151 C 
ATOM      6  N   UNL     1      -0.355  -0.095  -0.012  0.00  0.00    -0.325 N 
ATOM      7  C   UNL     1      -0.632  -0.734  -1.170  0.00  0.00    +0.057 A 
ATOM      8  C   UNL     1      -0.681  -0.193  -2.475  0.00  0.00    +0.027 A 
ATOM      9  C   UNL     1      -0.980  -0.986  -3.552  0.00  0.00    +0.002 A 
ATOM     10  C   UNL     1      -1.245  -2.340  -3.402  0.00  0.00    +0.001 A 
ATOM     11  C   UNL     1      -1.206  -2.902  -2.140  0.00  0.00    +0.017 A 
ATOM     12  C   UNL     1      -0.907  -2.115  -1.056  0.00  0.00    +0.039 A 
ATOM     13  S   UNL     1      -0.749  -2.390   0.692  0.00  0.00    -0.053 S 
ATOM     14  C   UNL     1      -0.336  -0.712   1.147  0.00  0.00    +0.156 A 
ATOM     15  N   UNL     1      -0.067  -0.196   2.399  0.00  0.00    -0.244 N 
ATOM     16  H   UNL     1       0.144   0.745   2.500  0.00  0.00    +0.172 HD
ENDBRANCH   1  15
BRANCH   2  17
ATOM     17  C   UNL     1       0.133  -1.409   5.928  0.00  0.00    +0.040 A 
ATOM     18  C   UNL     1      -0.165  -2.767   5.783  0.00  0.00    +0.015 A 
ATOM     19  C   UNL     1      -0.194  -3.585   6.888  0.00  0.00    +0.026 A 
ATOM     20  C   UNL     1       0.072  -3.062   8.151  0.00  0.00    +0.055 A 
ATOM     21  C   UNL     1       0.368  -1.710   8.299  0.00  0.00    +0.147 A 
ATOM     22  C   UNL     1       0.406  -0.888   7.196  0.00  0.00    +0.047 A 
BRANCH  21  23
ATOM     23  N   UNL     1       0.650  -1.158   9.643  0.00  0.00    +0.058 N 
ATOM     24  O   UNL     1       0.265  -0.050   9.934  0.00  0.00    -0.126 OA
ATOM     25  O   UNL     1       1.267  -1.815  10.449  0.00  0.00    -0.126 OA
ENDBRANCH  21  23
BRANCH  20  26
ATOM     26  N   UNL     1       0.042  -3.892   9.266  0.00  0.00    -0.356 N 
ATOM     27  H   UNL     1      -0.052  -4.851   9.155  0.00  0.00    +0.142 HD
ATOM     28  H   UNL     1       0.114  -3.512  10.156  0.00  0.00    +0.142 HD
ENDBRANCH  20  26
ENDBRANCH   2  17
TORSDOF 4
