REMARK  Name = ZINC39552660
REMARK  4 active torsions:
REMARK  status: ('A' for Active; 'I' for Inactive)
REMARK    1  A    between atoms: C_1  and  C_2
REMARK    2  A    between atoms: C_9  and  C_14
REMARK    3  A    between atoms: C_11  and  C_13
REMARK    4  A    between atoms: C_19  and  C_22
REMARK                            x       y       z     vdW  Elec       q    Type
REMARK                         _______ _______ _______ _____ _____    ______ ____
ROOT
ATOM      1  C   UNL     1       0.384  -5.346   2.532  0.00  0.00    +0.257 C 
ATOM      2  O   UNL     1       1.252  -5.058   3.329  0.00  0.00    -0.272 OA
ATOM      3  N   UNL     1       0.079  -6.639   2.306  0.00  0.00    -0.298 N 
ATOM      4  C   UNL     1      -0.965  -7.004   1.339  0.00  0.00    +0.108 C 
ATOM      5  C   UNL     1      -1.981  -7.918   2.030  0.00  0.00    +0.028 C 
ATOM      6  C   UNL     1      -1.250  -9.113   2.646  0.00  0.00    +0.041 C 
ATOM      7  C   UNL     1      -0.253  -8.617   3.696  0.00  0.00    +0.028 C 
ATOM      8  C   UNL     1       0.787  -7.711   3.019  0.00  0.00    +0.108 C 
ENDROOT
BRANCH   1  17
ATOM      9  C   UNL     1      -0.018   1.503   0.010  0.00  0.00    +0.044 C 
ATOM     10  C   UNL     1       0.002  -0.004   0.002  0.00  0.00    -0.047 A 
ATOM     11  C   UNL     1       0.006  -0.685  -1.201  0.00  0.00    +0.004 A 
ATOM     12  C   UNL     1       0.021  -2.069  -1.208  0.00  0.00    +0.008 A 
ATOM     13  C   UNL     1       0.033  -2.762  -0.018  0.00  0.00    +0.001 A 
ATOM     14  C   UNL     1       0.037  -2.089   1.197  0.00  0.00    +0.125 A 
ATOM     15  C   UNL     1       0.023  -0.696   1.195  0.00  0.00    +0.049 A 
ATOM     16  O   UNL     1       0.073  -2.960   2.243  0.00  0.00    -0.479 OA
ATOM     17  C   UNL     1      -0.351  -4.258   1.793  0.00  0.00    +0.266 C 
ATOM     18  C   UNL     1       0.040  -4.246   0.296  0.00  0.00    +0.069 C 
ATOM     19  C   UNL     1       1.433  -4.842   0.090  0.00  0.00    +0.017 C 
ENDBRANCH   1  17
BRANCH   6  20
ATOM     20  C   UNL     1      -2.250 -10.033   3.298  0.00  0.00    +0.051 A 
ATOM     21  N   UNL     1      -3.028  -9.582   4.285  0.00  0.00    -0.242 NA
ATOM     22  C   UNL     1      -3.905 -10.354   4.870  0.00  0.00    +0.199 A 
ATOM     23  N   UNL     1      -4.065 -11.640   4.504  0.00  0.00    -0.313 N 
ATOM     24  C   UNL     1      -3.309 -12.158   3.512  0.00  0.00    +0.252 A 
ATOM     25  O   UNL     1      -3.442 -13.320   3.169  0.00  0.00    -0.268 OA
ATOM     26  C   UNL     1      -2.366 -11.323   2.877  0.00  0.00    +0.093 A 
ATOM     27  H   UNL     1      -4.722 -12.195   4.953  0.00  0.00    +0.170 HD
ENDBRANCH   6  20
TORSDOF 2
