REMARK  Name = ZINC37080399
REMARK  8 active torsions:
REMARK  status: ('A' for Active; 'I' for Inactive)
REMARK    1  A    between atoms: C_1  and  C_2
REMARK    2  A    between atoms: C_2  and  C_4
REMARK    3  A    between atoms: C_2  and  N_18
REMARK    4  A    between atoms: N_6  and  C_7
REMARK    5  A    between atoms: C_10  and  N_17
REMARK    6  A    between atoms: C_11  and  C_13
REMARK    7  A    between atoms: N_18  and  C_19
REMARK    8  A    between atoms: N_18  and  C_20
REMARK                            x       y       z     vdW  Elec       q    Type
REMARK                         _______ _______ _______ _____ _____    ______ ____
ROOT
ATOM      1  C   UNL     1      -3.287  -1.119  -1.266  0.00  0.00    +0.034 A 
ATOM      2  C   UNL     1      -4.334  -0.549  -1.978  0.00  0.00    +0.025 A 
ATOM      3  C   UNL     1      -5.520  -1.238  -2.133  0.00  0.00    +0.025 A 
ATOM      4  C   UNL     1      -5.666  -2.502  -1.577  0.00  0.00    +0.036 A 
ATOM      5  C   UNL     1      -4.619  -3.073  -0.865  0.00  0.00    +0.077 A 
ATOM      6  C   UNL     1      -3.431  -2.385  -0.715  0.00  0.00    +0.037 A 
ENDROOT
BRANCH   1   9
ATOM      7  C   UNL     1      -1.308  -0.646  -0.029  0.00  0.00    +0.203 C 
ATOM      8  O   UNL     1      -1.688  -1.399   0.843  0.00  0.00    -0.277 OA
ATOM      9  N   UNL     1      -2.083  -0.420  -1.109  0.00  0.00    -0.287 N 
ATOM     10  H   UNL     1      -1.807   0.228  -1.776  0.00  0.00    +0.155 HD
BRANCH   7  12
ATOM     11  C   UNL     1      -0.175   1.551   0.171  0.00  0.00    -0.004 C 
ATOM     12  C   UNL     1       0.030   0.037   0.094  0.00  0.00    +0.016 C 
BRANCH  12  13
ATOM     13  N   UNL     1       0.706  -0.429   1.312  0.00  0.00    +0.387 N 
ATOM     14  C   UNL     1      -0.091  -0.056   2.488  0.00  0.00    -0.095 C 
ATOM     15  H   UNL     1       1.618  -0.001   1.375  0.00  0.00    -0.081 HD
BRANCH  13  16
ATOM     16  C   UNL     1       0.853  -1.889   1.263  0.00  0.00    -0.068 C 
ATOM     17  C   UNL     1       2.219  -2.475   1.628  0.00  0.00    -0.017 C 
ATOM     18  C   UNL     1       1.752  -2.473   0.171  0.00  0.00    -0.017 C 
ENDBRANCH  13  16
ENDBRANCH  12  13
ENDBRANCH   7  12
ENDBRANCH   1   9
BRANCH   5  19
ATOM     19  C   UNL     1      -4.777  -4.445  -0.262  0.00  0.00    +0.419 C 
ATOM     20  F   UNL     1      -3.598  -4.802   0.400  0.00  0.00    -0.166 F 
ATOM     21  F   UNL     1      -5.839  -4.434   0.649  0.00  0.00    -0.166 F 
ATOM     22  F   UNL     1      -5.042  -5.372  -1.276  0.00  0.00    -0.166 F 
ENDBRANCH   5  19
BRANCH   4  23
ATOM     23  N   UNL     1      -6.868  -3.201  -1.734  0.00  0.00    -0.358 N 
ATOM     24  H   UNL     1      -7.599  -2.802  -2.231  0.00  0.00    +0.142 HD
ATOM     25  H   UNL     1      -6.970  -4.084  -1.345  0.00  0.00    +0.142 HD
ENDBRANCH   4  23
TORSDOF 6
