REMARK  Name = ZINC39699635
REMARK  6 active torsions:
REMARK  status: ('A' for Active; 'I' for Inactive)
REMARK    1  A    between atoms: N_3  and  C_7
REMARK    2  A    between atoms: N_17  and  C1*_18
REMARK    3  A    between atoms: C2*_20  and  O2*_30
REMARK    4  A    between atoms: C3*_22  and  O3*_29
REMARK    5  A    between atoms: C4*_24  and  C5*_27
REMARK    6  A    between atoms: C5*_27  and  O5*_28
REMARK                            x       y       z     vdW  Elec       q    Type
REMARK                         _______ _______ _______ _____ _____    ______ ____
ROOT
ATOM      1  C   UNL     1       3.475   2.037  -1.277  0.00  0.00    +0.271 C 
ATOM      2  N   UNL     1       4.292   1.487  -0.189  0.00  0.00    -0.238 NA
ATOM      3  C   UNL     1       5.275   0.830  -0.702  0.00  0.00    +0.165 C 
ATOM      4  C   UNL     1       5.205   0.883  -2.184  0.00  0.00    +0.158 C 
ATOM      5  N   UNL     1       6.142   0.257  -2.872  0.00  0.00    -0.221 NA
ATOM      6  C   UNL     1       7.123  -0.402  -2.274  0.00  0.00    +0.213 C 
ATOM      7  N   UNL     1       7.273  -0.507  -0.978  0.00  0.00    -0.163 NA
ATOM      8  C   UNL     1       6.415   0.065  -0.116  0.00  0.00    +0.290 C 
ATOM      9  O   UNL     1       6.561  -0.037   1.088  0.00  0.00    -0.266 OA
ATOM     10  N   UNL     1       4.111   1.617  -2.534  0.00  0.00    -0.250 N 
ENDROOT
BRANCH   1  13
ATOM     11  C   UNL     1      -0.018   1.465   0.010  0.00  0.00    -0.067 C 
ATOM     12  C   UNL     1       1.418   1.994  -0.001  0.00  0.00    +0.069 C 
ATOM     13  N   UNL     1       2.109   1.503  -1.201  0.00  0.00    -0.269 NA
ATOM     14  C   UNL     1       2.115   0.034  -1.236  0.00  0.00    +0.069 C 
ATOM     15  C   UNL     1       0.674  -0.480  -1.214  0.00  0.00    -0.067 C 
ATOM     16  N   UNL     1       0.002  -0.004   0.002  0.00  0.00    +0.381 N 
ATOM     17  H   UNL     1       0.500  -0.338   0.814  0.00  0.00    -0.086 HD
ATOM     18  H   UNL     1      -0.944  -0.353   0.022  0.00  0.00    -0.086 HD
ENDBRANCH   1  13
BRANCH  10  19
ATOM     19  C1* UNL     1       3.659   1.926  -3.893  0.00  0.00    +0.242 C 
ATOM     20  C2* UNL     1       4.715   2.788  -4.628  0.00  0.00    +0.193 C 
ATOM     21  C3* UNL     1       4.392   2.451  -6.109  0.00  0.00    +0.178 C 
ATOM     22  C4* UNL     1       3.952   0.974  -6.020  0.00  0.00    +0.177 C 
ATOM     23  O4* UNL     1       3.549   0.722  -4.668  0.00  0.00    -0.348 OA
BRANCH  21  24
ATOM     24  O3* UNL     1       3.330   3.273  -6.598  0.00  0.00    -0.386 OA
ATOM     25  H3* UNL     1       3.091   3.100  -7.519  0.00  0.00    +0.210 HD
ENDBRANCH  21  24
BRANCH  20  26
ATOM     26  O2* UNL     1       4.521   4.179  -4.362  0.00  0.00    -0.385 OA
ATOM     27  H2* UNL     1       5.160   4.757  -4.802  0.00  0.00    +0.210 HD
ENDBRANCH  20  26
BRANCH  22  28
ATOM     28  C5* UNL     1       2.777   0.724  -6.968  0.00  0.00    +0.190 C 
BRANCH  28  29
ATOM     29  O5* UNL     1       2.452  -0.668  -6.967  0.00  0.00    -0.392 OA
ATOM     30  H5* UNL     1       1.714  -0.900  -7.547  0.00  0.00    +0.210 HD
ENDBRANCH  28  29
ENDBRANCH  22  28
ENDBRANCH  10  19
TORSDOF 6
