REMARK  Name = ZINC39780152
REMARK  10 active torsions:
REMARK  status: ('A' for Active; 'I' for Inactive)
REMARK    1  A    between atoms: C_1  and  N_2
REMARK    2  A    between atoms: C_8  and  O_9
REMARK    3  A    between atoms: O_9  and  C_10
REMARK    4  A    between atoms: C_13  and  C_18
REMARK    5  A    between atoms: C_15  and  O_16
REMARK    6  A    between atoms: O_16  and  C_17
REMARK    7  A    between atoms: C_19  and  C_20
REMARK    8  A    between atoms: C_22  and  C_27
REMARK    9  A    between atoms: N_31  and  C_38
REMARK   10  A    between atoms: N_34  and  C_37
REMARK                            x       y       z     vdW  Elec       q    Type
REMARK                         _______ _______ _______ _____ _____    ______ ____
ROOT
ATOM      1  C   UNL     1       3.347  -1.222  -0.043  0.00  0.00    +0.173 A 
ATOM      2  C   UNL     1       3.006  -2.566  -0.115  0.00  0.00    +0.051 A 
ATOM      3  C   UNL     1       3.990  -3.530  -0.139  0.00  0.00    +0.012 A 
ATOM      4  C   UNL     1       5.336  -3.156  -0.090  0.00  0.00    -0.021 A 
ATOM      5  C   UNL     1       5.680  -1.803  -0.017  0.00  0.00    +0.057 A 
ATOM      6  C   UNL     1       4.687  -0.842   0.001  0.00  0.00    +0.163 A 
ENDROOT
BRANCH   6   7
ATOM      7  O   UNL     1       5.017   0.476   0.067  0.00  0.00    -0.491 OA
ATOM      8  C   UNL     1       6.410   0.794   0.109  0.00  0.00    +0.277 C 
ENDBRANCH   6   7
BRANCH   4   9
ATOM      9  C   UNL     1       6.389  -4.185  -0.115  0.00  0.00    +0.010 C 
ATOM     10  C   UNL     1       6.057  -5.486  -0.184  0.00  0.00    +0.028 C 
BRANCH  10  11
ATOM     11  C   UNL     1       7.110  -6.514  -0.209  0.00  0.00    +0.071 A 
ATOM     12  C   UNL     1       6.777  -7.873  -0.287  0.00  0.00    +0.060 A 
ATOM     13  C   UNL     1       7.801  -8.800  -0.307  0.00  0.00    +0.151 A 
ATOM     14  N   UNL     1       9.056  -8.380  -0.252  0.00  0.00    -0.187 NA
ATOM     15  C   UNL     1       9.343  -7.090  -0.179  0.00  0.00    +0.369 A 
ATOM     16  O   UNL     1      10.641  -6.706  -0.125  0.00  0.00    -0.243 OA
ATOM     17  N   UNL     1       8.398  -6.167  -0.162  0.00  0.00    -0.192 NA
BRANCH  13  18
ATOM     18  C   UNL     1       7.494 -10.273  -0.390  0.00  0.00    +0.434 C 
ATOM     19  F   UNL     1       7.433 -10.662  -1.732  0.00  0.00    -0.164 F 
ATOM     20  F   UNL     1       8.499 -10.997   0.261  0.00  0.00    -0.164 F 
ATOM     21  F   UNL     1       6.263 -10.528   0.226  0.00  0.00    -0.164 F 
ENDBRANCH  13  18
ENDBRANCH  10  11
ENDBRANCH   4   9
BRANCH   1  22
ATOM     22  O   UNL     1       2.372  -0.275  -0.020  0.00  0.00    -0.423 OA
BRANCH  22  28
ATOM     23  C   UNL     1       0.122   1.631  -0.196  0.00  0.00    +0.134 C 
ATOM     24  N   UNL     1       0.970   1.170  -1.298  0.00  0.00    -0.273 N 
ATOM     25  C   UNL     1       0.851   1.585  -2.705  0.00  0.00    +0.206 C 
ATOM     26  C   UNL     1       1.992   0.796  -3.401  0.00  0.00    +0.229 C 
ATOM     27  N   UNL     1       2.607   0.034  -2.306  0.00  0.00    -0.211 NA
ATOM     28  C   UNL     1       2.007   0.288  -1.192  0.00  0.00    +0.288 C 
ATOM     29  N   UNL     1       3.053   1.607  -4.017  0.00  0.00    -0.264 N 
ATOM     30  C   UNL     1       3.004   2.946  -3.953  0.00  0.00    +0.312 C 
ATOM     31  O   UNL     1       3.906   3.567  -4.479  0.00  0.00    -0.252 OA
ATOM     32  N   UNL     1       2.038   3.646  -3.354  0.00  0.00    -0.227 N 
ATOM     33  C   UNL     1       0.970   3.095  -2.721  0.00  0.00    +0.247 C 
ATOM     34  O   UNL     1       0.120   3.784  -2.199  0.00  0.00    -0.273 OA
ATOM     35  C   UNL     1       2.139   5.107  -3.370  0.00  0.00    +0.143 C 
ATOM     36  C   UNL     1       4.168   0.951  -4.704  0.00  0.00    +0.136 C 
ENDBRANCH  22  28
ENDBRANCH   1  22
TORSDOF 6
