REMARK  Name = ZINC24961085
REMARK  6 active torsions:
REMARK  status: ('A' for Active; 'I' for Inactive)
REMARK    1  A    between atoms: C_1  and  C_2
REMARK    2  A    between atoms: C_3  and  C_9
REMARK    3  A    between atoms: C_4  and  C_8
REMARK    4  A    between atoms: N_5  and  C_7
REMARK    5  A    between atoms: C_9  and  C_10
REMARK    6  A    between atoms: C_10  and  C_11
REMARK                            x       y       z     vdW  Elec       q    Type
REMARK                         _______ _______ _______ _____ _____    ______ ____
ROOT
ATOM      1  C   UNL     1      -4.101   5.666   0.071  0.00  0.00    +0.216 C 
ATOM      2  O   UNL     1      -4.480   6.126   1.128  0.00  0.00    -0.276 OA
ATOM      3  N   UNL     1      -3.237   4.631   0.058  0.00  0.00    -0.301 N 
ATOM      4  C   UNL     1      -2.745   4.051   1.315  0.00  0.00    +0.110 C 
ATOM      5  C   UNL     1      -1.213   4.052   1.291  0.00  0.00    +0.054 C 
ATOM      6  C   UNL     1      -0.725   3.352   0.027  0.00  0.00    +0.115 C 
ATOM      7  C   UNL     1      -1.237   4.066  -1.220  0.00  0.00    +0.054 C 
ATOM      8  C   UNL     1      -2.769   4.064  -1.214  0.00  0.00    +0.110 C 
ATOM      9  C   UNL     1       0.785   3.285   0.012  0.00  0.00    +0.244 C 
ATOM     10  O   UNL     1       1.561   4.217   0.010  0.00  0.00    -0.273 OA
ATOM     11  N   UNL     1       1.088   1.971   0.002  0.00  0.00    -0.238 N 
ATOM     12  C   UNL     1      -0.014   1.211   0.009  0.00  0.00    +0.307 C 
ATOM     13  O   UNL     1       0.002  -0.004   0.002  0.00  0.00    -0.252 OA
ATOM     14  N   UNL     1      -1.144   1.945   0.018  0.00  0.00    -0.285 N 
ATOM     15  H   UNL     1       2.140   1.648  -0.009  0.00  0.00    +0.159 HD
ATOM     16  H   UNL     1      -2.214   1.690   0.019  0.00  0.00    +0.151 HD
ENDROOT
BRANCH   1  17
ATOM     17  C   UNL     1      -4.597   6.251  -1.226  0.00  0.00    +0.101 C 
BRANCH  17  18
ATOM     18  C   UNL     1      -5.559   7.403  -0.931  0.00  0.00    +0.048 C 
BRANCH  18  21
ATOM     19  C   UNL     1      -4.212   9.779  -2.538  0.00  0.00    +0.068 C 
ATOM     20  C   UNL     1      -5.461   9.037  -2.939  0.00  0.00    +0.063 A 
ATOM     21  C   UNL     1      -6.055   7.988  -2.229  0.00  0.00    -0.004 A 
ATOM     22  C   UNL     1      -7.156   7.596  -2.909  0.00  0.00    +0.039 A 
ATOM     23  N   UNL     1      -7.253   8.365  -4.014  0.00  0.00    -0.271 N 
ATOM     24  N   UNL     1      -6.175   9.259  -4.012  0.00  0.00    -0.176 NA
ATOM     25  C   UNL     1      -8.300   8.279  -5.035  0.00  0.00    +0.172 C 
ATOM     26  C   UNL     1      -8.105   6.496  -2.506  0.00  0.00    +0.065 C 
ENDBRANCH  18  21
ENDBRANCH  17  18
ENDBRANCH   1  17
TORSDOF 3
