REMARK  Name = ZINC35707137
REMARK  9 active torsions:
REMARK  status: ('A' for Active; 'I' for Inactive)
REMARK    1  A    between atoms: C_1  and  C_2
REMARK    2  A    between atoms: C_2  and  C_3
REMARK    3  A    between atoms: C_3  and  C_4
REMARK    4  A    between atoms: C_4  and  N_5
REMARK    5  A    between atoms: N_5  and  C_6
REMARK    6  A    between atoms: C_6  and  C_7
REMARK    7  A    between atoms: C_21  and  C_23
REMARK    8  A    between atoms: C_26  and  C_29
REMARK    9  A    between atoms: N_32  and  C_33
REMARK                            x       y       z     vdW  Elec       q    Type
REMARK                         _______ _______ _______ _____ _____    ______ ____
ROOT
ATOM      1  C   UNL     1      -3.019  -4.218  -1.775  0.00  0.00    +0.238 C 
ATOM      2  O   UNL     1      -3.297  -3.106  -1.381  0.00  0.00    -0.273 OA
ATOM      3  N   UNL     1      -3.456  -4.635  -2.981  0.00  0.00    -0.255 N 
ATOM      4  C   UNL     1      -4.143  -3.748  -3.820  0.00  0.00    +0.061 A 
ATOM      5  C   UNL     1      -4.899  -2.716  -3.287  0.00  0.00    +0.025 A 
ATOM      6  C   UNL     1      -5.563  -1.842  -4.127  0.00  0.00    +0.002 A 
ATOM      7  C   UNL     1      -5.478  -1.989  -5.500  0.00  0.00    +0.002 A 
ATOM      8  C   UNL     1      -4.730  -3.018  -6.043  0.00  0.00    +0.028 A 
ATOM      9  C   UNL     1      -4.068  -3.898  -5.209  0.00  0.00    +0.068 A 
ATOM     10  N   UNL     1      -3.319  -4.972  -5.712  0.00  0.00    -0.316 N 
ATOM     11  C   UNL     1      -2.890  -5.225  -6.971  0.00  0.00    +0.092 A 
ATOM     12  C   UNL     1      -2.196  -6.385  -6.956  0.00  0.00    +0.020 A 
ATOM     13  C   UNL     1      -2.200  -6.866  -5.628  0.00  0.00    +0.025 A 
ATOM     14  C   UNL     1      -2.891  -5.991  -4.889  0.00  0.00    +0.049 A 
ATOM     15  C   UNL     1      -3.204  -6.019  -3.416  0.00  0.00    +0.159 C 
ENDROOT
BRANCH  15  16
ATOM     16  C   UNL     1      -4.431  -6.860  -3.175  0.00  0.00    -0.021 A 
ATOM     17  C   UNL     1      -5.686  -6.342  -3.432  0.00  0.00    +0.006 A 
ATOM     18  C   UNL     1      -6.812  -7.114  -3.211  0.00  0.00    +0.004 A 
ATOM     19  C   UNL     1      -6.681  -8.404  -2.733  0.00  0.00    -0.050 A 
ATOM     20  C   UNL     1      -5.426  -8.923  -2.476  0.00  0.00    +0.004 A 
ATOM     21  C   UNL     1      -4.301  -8.152  -2.701  0.00  0.00    +0.006 A 
ATOM     22  C   UNL     1      -7.908  -9.246  -2.491  0.00  0.00    +0.044 C 
ENDBRANCH  15  16
BRANCH   1  23
ATOM     23  C   UNL     1      -2.185  -5.135  -0.918  0.00  0.00    +0.205 C 
BRANCH  23  24
ATOM     24  N   UNL     1      -1.740  -4.416   0.278  0.00  0.00    -0.277 N 
ATOM     25  C   UNL     1      -0.575  -3.739   0.263  0.00  0.00    +0.307 C 
ATOM     26  O   UNL     1       0.107  -3.726  -0.744  0.00  0.00    -0.252 OA
ATOM     27  N   UNL     1      -0.166  -3.077   1.363  0.00  0.00    -0.267 N 
ATOM     28  H   UNL     1      -0.667  -3.154   2.190  0.00  0.00    +0.156 HD
BRANCH  27  29
ATOM     29  C   UNL     1       0.983  -2.277   1.312  0.00  0.00    +0.070 A 
ATOM     30  C   UNL     1       1.406  -1.743   0.103  0.00  0.00    +0.026 A 
ATOM     31  C   UNL     1       2.539  -0.954   0.055  0.00  0.00    +0.002 A 
ATOM     32  C   UNL     1       3.253  -0.696   1.211  0.00  0.00    +0.003 A 
ATOM     33  C   UNL     1       2.836  -1.225   2.418  0.00  0.00    +0.040 A 
ATOM     34  C   UNL     1       1.699  -2.011   2.474  0.00  0.00    +0.145 A 
ATOM     35  F   UNL     1       1.288  -2.523   3.654  0.00  0.00    -0.204 F 
ENDBRANCH  27  29
BRANCH  24  36
ATOM     36  C   UNL     1      -2.563  -4.431   1.490  0.00  0.00    +0.110 C 
BRANCH  36  37
ATOM     37  C   UNL     1      -2.157  -5.618   2.366  0.00  0.00    +0.019 C 
BRANCH  37  39
ATOM     38  C   UNL     1      -2.610  -6.821   4.508  0.00  0.00    +0.004 C 
ATOM     39  C   UNL     1      -3.016  -5.634   3.632  0.00  0.00    -0.002 C 
ENDBRANCH  37  39
ENDBRANCH  36  37
ENDBRANCH  24  36
ENDBRANCH  23  24
ENDBRANCH   1  23
TORSDOF 7
