REMARK  Name = ZINC51101985
REMARK  8 active torsions:
REMARK  status: ('A' for Active; 'I' for Inactive)
REMARK    1  A    between atoms: C_1  and  C_2
REMARK    2  A    between atoms: C_2  and  C_3
REMARK    3  A    between atoms: C_2  and  S_4
REMARK    4  A    between atoms: S_4  and  N_7
REMARK    5  A    between atoms: N_7  and  C_8
REMARK    6  A    between atoms: C_8  and  C_9
REMARK    7  A    between atoms: N_14  and  C_16
REMARK    8  A    between atoms: C_16  and  C_17
REMARK                            x       y       z     vdW  Elec       q    Type
REMARK                         _______ _______ _______ _____ _____    ______ ____
ROOT
ATOM      1  C   UNL     1      -2.908  -0.042  -3.751  0.00  0.00    -0.012 C 
ATOM      2  C   UNL     1      -3.008   1.484  -3.824  0.00  0.00    +0.001 C 
ATOM      3  C   UNL     1      -3.965   1.870  -4.955  0.00  0.00    -0.018 C 
ATOM      4  C   UNL     1      -3.469   1.258  -6.267  0.00  0.00    -0.078 C 
ATOM      5  N   UNL     1      -3.420  -0.203  -6.142  0.00  0.00    +0.386 N 
ATOM      6  C   UNL     1      -2.451  -0.584  -5.108  0.00  0.00    -0.073 C 
ATOM      7  H   UNL     1      -4.333  -0.549  -5.888  0.00  0.00    -0.081 HD
ENDROOT
BRANCH   1   8
ATOM      8  C   UNL     1      -1.894  -0.437  -2.676  0.00  0.00    +0.107 C 
BRANCH   8   9
ATOM      9  N   UNL     1      -2.389  -0.021  -1.361  0.00  0.00    -0.194 NA
ATOM     10  H   UNL     1      -3.121   0.612  -1.297  0.00  0.00    +0.148 HD
BRANCH   9  11
ATOM     11  S   UNL     1      -1.700  -0.632   0.015  0.00  0.00    +0.032 S 
ATOM     12  O   UNL     1      -1.703  -2.041  -0.172  0.00  0.00    -0.158 OA
ATOM     13  O   UNL     1      -2.431  -0.041   1.080  0.00  0.00    -0.158 OA
BRANCH  11  15
ATOM     14  C   UNL     1      -0.019   1.526   0.010  0.00  0.00    +0.033 C 
ATOM     15  C   UNL     1       0.002  -0.004   0.002  0.00  0.00    +0.142 C 
ATOM     16  C   UNL     1       0.742  -0.511   1.242  0.00  0.00    +0.033 C 
ENDBRANCH  11  15
ENDBRANCH   9  11
ENDBRANCH   8   9
ENDBRANCH   1   8
BRANCH   5  17
ATOM     17  C   UNL     1      -3.018  -0.790  -7.428  0.00  0.00    +0.019 C 
BRANCH  17  18
ATOM     18  C   UNL     1      -4.079  -0.512  -8.461  0.00  0.00    +0.204 C 
ATOM     19  O   UNL     1      -5.072   0.113  -8.156  0.00  0.00    -0.277 OA
ATOM     20  N   UNL     1      -3.924  -0.958  -9.723  0.00  0.00    -0.242 N 
ATOM     21  C   UNL     1      -4.873  -0.710 -10.647  0.00  0.00    +0.303 C 
ATOM     22  O   UNL     1      -5.869  -0.084 -10.342  0.00  0.00    -0.253 OA
ATOM     23  N   UNL     1      -4.718  -1.156 -11.909  0.00  0.00    -0.313 N 
ATOM     24  H   UNL     1      -3.129  -1.458  -9.966  0.00  0.00    +0.159 HD
ATOM     25  H   UNL     1      -3.923  -1.656 -12.153  0.00  0.00    +0.146 HD
ATOM     26  H   UNL     1      -5.401  -0.977 -12.574  0.00  0.00    +0.146 HD
ENDBRANCH  17  18
ENDBRANCH   5  17
TORSDOF 6
