REMARK  Name = ZINC48609683
REMARK  3 active torsions:
REMARK  status: ('A' for Active; 'I' for Inactive)
REMARK    1  A    between atoms: C_1  and  C_2
REMARK    2  A    between atoms: C_10  and  C_12
REMARK    3  A    between atoms: C_12  and  N_13
REMARK                            x       y       z     vdW  Elec       q    Type
REMARK                         _______ _______ _______ _____ _____    ______ ____
ROOT
ATOM      1  C   UNL     1      -0.018   1.503   0.010  0.00  0.00    +0.064 C 
ATOM      2  C   UNL     1       0.002  -0.004   0.002  0.00  0.00    +0.033 A 
ATOM      3  C   UNL     1       0.005  -0.653  -1.162  0.00  0.00    +0.070 A 
ATOM      4  S   UNL     1       0.032  -2.358  -0.630  0.00  0.00    -0.057 S 
ATOM      5  C   UNL     1       0.036  -2.054   1.123  0.00  0.00    +0.180 A 
ATOM      6  N   UNL     1       0.023  -0.686   1.195  0.00  0.00    -0.259 N 
ATOM      7  C   UNL     1       0.027  -0.142   2.448  0.00  0.00    +0.259 A 
ATOM      8  O   UNL     1       0.011   1.071   2.587  0.00  0.00    -0.267 OA
ATOM      9  C   UNL     1       0.049  -0.973   3.568  0.00  0.00    +0.095 A 
ATOM     10  C   UNL     1       0.066  -2.342   3.404  0.00  0.00    +0.069 A 
ATOM     11  N   UNL     1       0.052  -2.840   2.171  0.00  0.00    -0.226 NA
ENDROOT
BRANCH  10  12
ATOM     12  C   UNL     1       0.091  -3.257   4.601  0.00  0.00    +0.180 C 
BRANCH  12  13
ATOM     13  N   UNL     1      -1.150  -4.035   4.646  0.00  0.00    -0.308 N 
ATOM     14  C   UNL     1      -2.225  -3.546   5.317  0.00  0.00    +0.104 A 
ATOM     15  C   UNL     1      -3.382  -4.247   5.373  0.00  0.00    +0.034 A 
ATOM     16  C   UNL     1      -3.478  -5.491   4.732  0.00  0.00    +0.022 A 
ATOM     17  C   UNL     1      -2.398  -5.979   4.059  0.00  0.00    +0.071 A 
ATOM     18  C   UNL     1      -1.214  -5.224   4.018  0.00  0.00    +0.252 A 
ATOM     19  O   UNL     1      -0.240  -5.648   3.414  0.00  0.00    -0.268 OA
ATOM     20 BR   UNL     1      -4.867  -3.548   6.313  0.00  0.00    -0.049 Br
ENDBRANCH  12  13
ENDBRANCH  10  12
TORSDOF 2
