REMARK  Name = ZINC18195831
REMARK  5 active torsions:
REMARK  status: ('A' for Active; 'I' for Inactive)
REMARK    1  A    between atoms: C_1  and  O_2
REMARK    2  A    between atoms: O_2  and  C_3
REMARK    3  A    between atoms: C_5  and  C_11
REMARK    4  A    between atoms: C_8  and  O_9
REMARK    5  A    between atoms: C_18  and  O_19
REMARK                            x       y       z     vdW  Elec       q    Type
REMARK                         _______ _______ _______ _____ _____    ______ ____
ROOT
ATOM      1  C   UNL     1      -0.013   1.086   0.008  0.00  0.00    +0.092 C 
ATOM      2  C   UNL     1      -0.744   1.583  -1.206  0.00  0.00    +0.067 A 
ATOM      3  C   UNL     1      -0.256   2.588  -1.998  0.00  0.00    +0.126 A 
ATOM      4  N   UNL     1      -1.141   2.797  -2.990  0.00  0.00    -0.260 N 
ATOM      5  H   UNL     1      -1.057   3.473  -3.723  0.00  0.00    +0.190 HD
ATOM      6  N   UNL     1      -2.204   1.896  -2.813  0.00  0.00    -0.134 NA
ATOM      7  C   UNL     1      -1.961   1.171  -1.743  0.00  0.00    +0.237 A 
ATOM      8  N   UNL     1       0.957   3.206  -1.718  0.00  0.00    -0.303 N 
ATOM      9  C   UNL     1       1.806   2.607  -0.820  0.00  0.00    +0.017 C 
ATOM     10  C   UNL     1       1.408   1.609  -0.003  0.00  0.00    +0.024 C 
ATOM     11  C   UNL     1       2.311   1.002   0.888  0.00  0.00    +0.162 C 
ATOM     12  O   UNL     1       1.920   0.108   1.613  0.00  0.00    -0.292 OA
ATOM     13  C   UNL     1       3.749   1.431   0.964  0.00  0.00    +0.080 C 
ATOM     14  C   UNL     1       4.176   1.983  -0.400  0.00  0.00    +0.014 C 
ATOM     15  C   UNL     1       3.227   3.122  -0.776  0.00  0.00    +0.051 C 
ATOM     16  H   UNL     1       1.199   4.041  -2.147  0.00  0.00    +0.153 HD
ENDROOT
BRANCH   1  19
ATOM     17  C   UNL     1      -1.866   1.103   3.300  0.00  0.00    +0.163 A 
ATOM     18  C   UNL     1      -1.223   0.659   2.156  0.00  0.00    +0.054 A 
ATOM     19  C   UNL     1      -0.716   1.571   1.249  0.00  0.00    -0.031 A 
ATOM     20  C   UNL     1      -0.858   2.927   1.476  0.00  0.00    +0.022 A 
ATOM     21  C   UNL     1      -1.503   3.377   2.614  0.00  0.00    +0.059 A 
ATOM     22  C   UNL     1      -2.009   2.468   3.529  0.00  0.00    +0.172 A 
ATOM     23  I   UNL     1      -1.715   5.434   2.954  0.00  0.00    -0.040 I 
BRANCH  17  25
ATOM     24  C   UNL     1      -2.176  -1.179   3.896  0.00  0.00    +0.277 C 
ATOM     25  O   UNL     1      -2.360   0.206   4.196  0.00  0.00    -0.491 OA
ENDBRANCH  17  25
BRANCH  22  26
ATOM     26  O   UNL     1      -2.643   2.908   4.649  0.00  0.00    -0.503 OA
ATOM     27  H   UNL     1      -3.596   3.028   4.540  0.00  0.00    +0.292 HD
ENDBRANCH  22  26
ENDBRANCH   1  19
BRANCH   7  28
ATOM     28  O   UNL     1      -2.760   0.190  -1.247  0.00  0.00    -0.491 OA
ATOM     29  H   UNL     1      -3.572   0.098  -1.823  0.00  0.00    +0.294 HD
ENDBRANCH   7  28
TORSDOF 4
