REMARK  Name = ZINC09466638
REMARK  10 active torsions:
REMARK  status: ('A' for Active; 'I' for Inactive)
REMARK    1  A    between atoms: C_1  and  C_2
REMARK    2  A    between atoms: C_2  and  C_4
REMARK    3  A    between atoms: C_2  and  N_53
REMARK    4  A    between atoms: C_7  and  S_10
REMARK    5  A    between atoms: S_10  and  N_13
REMARK    6  A    between atoms: C_14  and  C_15
REMARK    7  A    between atoms: C_14  and  N_53
REMARK    8  A    between atoms: N_17  and  C_18
REMARK    9  A    between atoms: C_23  and  C_24
REMARK   10  A    between atoms: C_24  and  C_26
REMARK                            x       y       z     vdW  Elec       q    Type
REMARK                         _______ _______ _______ _____ _____    ______ ____
ROOT
ATOM      1  C   UNL     1      -5.071   6.215   5.506  0.00  0.00    +0.200 C 
ATOM      2  O   UNL     1      -4.402   6.929   4.789  0.00  0.00    -0.278 OA
ATOM      3  N   UNL     1      -6.155   6.714   6.132  0.00  0.00    -0.286 N 
ATOM      4  H   UNL     1      -6.739   6.125   6.636  0.00  0.00    +0.155 HD
ENDROOT
BRANCH   3   5
ATOM      5  C   UNL     1      -6.439   8.075   6.054  0.00  0.00    +0.044 A 
ATOM      6  C   UNL     1      -5.421   8.987   5.809  0.00  0.00    +0.025 A 
ATOM      7  C   UNL     1      -5.705  10.335   5.728  0.00  0.00    +0.022 A 
ATOM      8  C   UNL     1      -7.003  10.792   5.900  0.00  0.00    +0.042 A 
ATOM      9  C   UNL     1      -8.026   9.902   6.149  0.00  0.00    +0.033 A 
ATOM     10  C   UNL     1      -7.755   8.533   6.230  0.00  0.00    +0.045 A 
ATOM     11 CL   UNL     1      -7.342  12.492   5.801  0.00  0.00    -0.084 Cl
BRANCH  10  12
ATOM     12  C   UNL     1      -8.844   7.575   6.496  0.00  0.00    +0.195 C 
ATOM     13  O   UNL     1      -9.356   7.528   7.598  0.00  0.00    -0.287 OA
BRANCH  12  14
ATOM     14  C   UNL     1      -9.313   6.673   5.424  0.00  0.00    +0.022 A 
ATOM     15  C   UNL     1      -8.806   6.800   4.128  0.00  0.00    +0.012 A 
ATOM     16  C   UNL     1      -9.245   5.951   3.134  0.00  0.00    +0.001 A 
ATOM     17  C   UNL     1     -10.192   4.982   3.415  0.00  0.00    +0.000 A 
ATOM     18  C   UNL     1     -10.702   4.854   4.695  0.00  0.00    +0.001 A 
ATOM     19  C   UNL     1     -10.268   5.693   5.700  0.00  0.00    +0.012 A 
ENDBRANCH  12  14
ENDBRANCH  10  12
ENDBRANCH   3   5
BRANCH   1  20
ATOM     20  C   UNL     1      -4.689   4.770   5.698  0.00  0.00    +0.016 C 
BRANCH  20  21
ATOM     21  N   UNL     1      -3.476   4.482   4.910  0.00  0.00    +0.389 N 
ATOM     22  H   UNL     1      -3.665   4.664   3.917  0.00  0.00    -0.084 HD
ATOM     23  H   UNL     1      -2.712   5.090   5.230  0.00  0.00    -0.084 HD
BRANCH  21  25
ATOM     24  C   UNL     1      -2.219   2.930   6.337  0.00  0.00    -0.009 C 
ATOM     25  C   UNL     1      -3.078   3.072   5.078  0.00  0.00    -0.043 C 
BRANCH  25  26
ATOM     26  C   UNL     1      -2.283   2.635   3.875  0.00  0.00    -0.062 A 
ATOM     27  C   UNL     1      -2.471   1.373   3.343  0.00  0.00    +0.004 A 
ATOM     28  C   UNL     1      -1.741   0.972   2.240  0.00  0.00    +0.029 A 
ATOM     29  C   UNL     1      -0.824   1.833   1.668  0.00  0.00    +0.105 A 
ATOM     30  C   UNL     1      -0.632   3.094   2.203  0.00  0.00    +0.029 A 
ATOM     31  C   UNL     1      -1.365   3.496   3.304  0.00  0.00    +0.004 A 
BRANCH  29  32
ATOM     32  S   UNL     1       0.106   1.323   0.261  0.00  0.00    +0.056 S 
ATOM     33  O   UNL     1       0.138  -0.098   0.289  0.00  0.00    -0.153 OA
ATOM     34  O   UNL     1       1.288   2.111   0.247  0.00  0.00    -0.153 OA
BRANCH  32  35
ATOM     35  N   UNL     1      -0.764   1.749  -1.082  0.00  0.00    -0.204 NA
ATOM     36  H   UNL     1      -1.619   2.196  -0.984  0.00  0.00    +0.144 HD
ATOM     37  H   UNL     1      -0.418   1.552  -1.967  0.00  0.00    +0.144 HD
ENDBRANCH  32  35
ENDBRANCH  29  32
ENDBRANCH  25  26
ENDBRANCH  21  25
ENDBRANCH  20  21
ENDBRANCH   1  20
TORSDOF 9
