REMARK  Name = ZINC65217015
REMARK  5 active torsions:
REMARK  status: ('A' for Active; 'I' for Inactive)
REMARK    1  A    between atoms: C_1  and  C_2
REMARK    2  A    between atoms: C_4  and  C_14
REMARK    3  A    between atoms: C_11  and  C_13
REMARK    4  A    between atoms: C_14  and  N_15
REMARK    5  A    between atoms: C_16  and  C_18
REMARK                            x       y       z     vdW  Elec       q    Type
REMARK                         _______ _______ _______ _____ _____    ______ ____
ROOT
ATOM      1  N   UNL     1      -2.997  -2.144  -0.977  0.00  0.00    -0.311 N 
ATOM      2  C   UNL     1      -3.419  -3.045  -1.886  0.00  0.00    +0.239 C 
ATOM      3  O   UNL     1      -2.699  -3.357  -2.811  0.00  0.00    -0.273 OA
ATOM      4  H   UNL     1      -3.573  -1.895  -0.237  0.00  0.00    +0.149 HD
ENDROOT
BRANCH   2   5
ATOM      5  C   UNL     1      -4.786  -3.666  -1.753  0.00  0.00    +0.190 C 
ATOM      6  C   UNL     1      -4.876  -4.458  -0.468  0.00  0.00    +0.016 C 
ATOM      7  C   UNL     1      -5.128  -5.736  -0.833  0.00  0.00    -0.004 A 
ATOM      8  C   UNL     1      -5.322  -6.970  -0.062  0.00  0.00    +0.010 A 
ATOM      9  C   UNL     1      -5.564  -8.125  -0.722  0.00  0.00    +0.001 A 
ATOM     10  C   UNL     1      -5.634  -8.173  -2.121  0.00  0.00    +0.002 A 
ATOM     11  C   UNL     1      -5.466  -7.081  -2.898  0.00  0.00    +0.026 A 
ATOM     12  C   UNL     1      -5.207  -5.813  -2.309  0.00  0.00    +0.043 A 
ATOM     13  N   UNL     1      -5.012  -4.628  -2.837  0.00  0.00    -0.370 N 
ATOM     14  H   UNL     1      -5.016  -4.422  -3.785  0.00  0.00    +0.161 HD
ENDBRANCH   2   5
BRANCH   1  15
ATOM     15  C   UNL     1      -1.668  -1.540  -1.106  0.00  0.00    +0.130 C 
BRANCH  15  18
ATOM     16  C   UNL     1      -0.019   1.526   0.010  0.00  0.00    +0.026 C 
ATOM     17  C   UNL     1       0.002  -0.004   0.002  0.00  0.00    +0.077 C 
ATOM     18  C   UNL     1      -1.440  -0.559   0.046  0.00  0.00    +0.129 C 
ATOM     19  N   UNL     1      -1.533  -1.259   1.349  0.00  0.00    -0.222 N 
ATOM     20  C   UNL     1      -0.125  -1.730   1.546  0.00  0.00    +0.225 C 
ATOM     21  N   UNL     1       0.662  -0.518   1.235  0.00  0.00    -0.284 NA
ATOM     22  S   UNL     1      -0.167  -2.059   3.347  0.00  0.00    -0.069 S 
ATOM     23  C   UNL     1      -1.936  -1.927   3.567  0.00  0.00    +0.092 C 
ATOM     24  N   UNL     1      -2.365  -1.540   2.412  0.00  0.00    -0.180 NA
ATOM     25  C   UNL     1      -2.740  -2.204   4.811  0.00  0.00    +0.075 C 
ATOM     26  H   UNL     1       1.628  -0.748   1.059  0.00  0.00    +0.125 HD
ENDBRANCH  15  18
ENDBRANCH   1  15
TORSDOF 3
