REMARK  Name = ZINC11878441
REMARK  8 active torsions:
REMARK  status: ('A' for Active; 'I' for Inactive)
REMARK    1  A    between atoms: C_4  and  C_8
REMARK    2  A    between atoms: C_8  and  N_52
REMARK    3  A    between atoms: C_14  and  C_16
REMARK    4  A    between atoms: C_16  and  C_17
REMARK    5  A    between atoms: N_19  and  C_20
REMARK    6  A    between atoms: C_20  and  C_21
REMARK    7  A    between atoms: C_21  and  C_22
REMARK    8  A    between atoms: C_25  and  O_28
REMARK                            x       y       z     vdW  Elec       q    Type
REMARK                         _______ _______ _______ _____ _____    ______ ____
ROOT
ATOM      1  C   UNL     1       2.763  -6.895  -6.037  0.00  0.00    -0.058 C 
ATOM      2  C   UNL     1       2.939  -8.410  -5.908  0.00  0.00    +0.085 C 
ATOM      3  N   UNL     1       1.885  -8.966  -5.065  0.00  0.00    -0.318 N 
ATOM      4  C   UNL     1       1.149  -8.220  -4.234  0.00  0.00    +0.200 C 
ATOM      5  O   UNL     1       0.314  -8.769  -3.546  0.00  0.00    -0.278 OA
ATOM      6  C   UNL     1       1.314  -6.732  -4.116  0.00  0.00    +0.028 C 
ATOM      7  H   UNL     1       1.710  -9.919  -5.111  0.00  0.00    +0.149 HD
ATOM      8  N   UNL     1       2.619  -6.335  -4.678  0.00  0.00    +0.391 N 
ATOM      9  H   UNL     1       3.368  -6.705  -4.081  0.00  0.00    -0.080 HD
ENDROOT
BRANCH   8  10
ATOM     10  C   UNL     1       2.723  -4.859  -4.724  0.00  0.00    -0.037 C 
BRANCH  10  14
ATOM     11  C   UNL     1       6.641  -3.782  -6.050  0.00  0.00    +0.004 A 
ATOM     12  C   UNL     1       6.394  -3.961  -4.702  0.00  0.00    +0.038 A 
ATOM     13  C   UNL     1       5.124  -4.305  -4.271  0.00  0.00    +0.126 A 
ATOM     14  C   UNL     1       4.105  -4.479  -5.191  0.00  0.00    -0.010 A 
ATOM     15  C   UNL     1       4.354  -4.298  -6.540  0.00  0.00    +0.045 A 
ATOM     16  C   UNL     1       5.622  -3.950  -6.969  0.00  0.00    +0.020 A 
ATOM     17 CL   UNL     1       3.074  -4.509  -7.694  0.00  0.00    -0.083 Cl
ATOM     18  F   UNL     1       4.881  -4.475  -2.953  0.00  0.00    -0.205 F 
ENDBRANCH  10  14
ENDBRANCH   8  10
BRANCH   6  19
ATOM     19  C   UNL     1       1.266  -6.331  -2.640  0.00  0.00    +0.089 C 
BRANCH  19  20
ATOM     20  C   UNL     1       2.426  -6.958  -1.911  0.00  0.00    +0.212 C 
ATOM     21  O   UNL     1       3.161  -7.729  -2.491  0.00  0.00    -0.276 OA
ATOM     22  N   UNL     1       2.647  -6.662  -0.615  0.00  0.00    -0.315 N 
ATOM     23  H   UNL     1       2.059  -6.045  -0.151  0.00  0.00    +0.149 HD
BRANCH  22  24
ATOM     24  C   UNL     1       3.775  -7.272   0.094  0.00  0.00    +0.109 C 
BRANCH  24  25
ATOM     25  C   UNL     1       3.799  -6.772   1.540  0.00  0.00    +0.054 C 
BRANCH  25  26
ATOM     26  C   UNL     1       4.959  -7.399   2.269  0.00  0.00    -0.046 A 
ATOM     27  C   UNL     1       6.191  -6.771   2.275  0.00  0.00    +0.007 A 
ATOM     28  C   UNL     1       7.256  -7.344   2.943  0.00  0.00    +0.045 A 
ATOM     29  C   UNL     1       7.089  -8.550   3.608  0.00  0.00    +0.117 A 
ATOM     30  C   UNL     1       5.851  -9.177   3.601  0.00  0.00    +0.045 A 
ATOM     31  C   UNL     1       4.790  -8.601   2.931  0.00  0.00    +0.007 A 
BRANCH  29  32
ATOM     32  O   UNL     1       8.135  -9.115   4.266  0.00  0.00    -0.507 OA
ATOM     33  H   UNL     1       8.212  -8.843   5.190  0.00  0.00    +0.292 HD
ENDBRANCH  29  32
ENDBRANCH  25  26
ENDBRANCH  24  25
ENDBRANCH  22  24
ENDBRANCH  19  20
ENDBRANCH   6  19
TORSDOF 8
