REMARK  Name = ZINC37715407
REMARK  9 active torsions:
REMARK  status: ('A' for Active; 'I' for Inactive)
REMARK    1  A    between atoms: C_1  and  O_2
REMARK    2  A    between atoms: O_2  and  C_3
REMARK    3  A    between atoms: C_4  and  C_11
REMARK    4  A    between atoms: C_11  and  N_12
REMARK    5  A    between atoms: N_12  and  C_13
REMARK    6  A    between atoms: C_13  and  C_14
REMARK    7  A    between atoms: C_14  and  C_15
REMARK    8  A    between atoms: C_15  and  C_16
REMARK    9  A    between atoms: C_16  and  N_17
REMARK                            x       y       z     vdW  Elec       q    Type
REMARK                         _______ _______ _______ _____ _____    ______ ____
ROOT
ATOM      1  C   UNL     1       2.778  -0.526  -0.021  0.00  0.00    -0.043 C 
ENDROOT
BRANCH   1   3
ATOM      2  C   UNL     1       0.560  -0.477   1.148  0.00  0.00    +0.135 A 
ATOM      3  C   UNL     1       1.883  -0.895   1.134  0.00  0.00    -0.021 A 
ATOM      4  C   UNL     1       2.380  -1.649   2.179  0.00  0.00    +0.020 A 
ATOM      5  C   UNL     1       1.558  -1.989   3.240  0.00  0.00    +0.019 A 
ATOM      6  C   UNL     1       0.239  -1.574   3.256  0.00  0.00    +0.034 A 
ATOM      7  C   UNL     1      -0.261  -0.815   2.215  0.00  0.00    +0.061 A 
ATOM      8 BR   UNL     1      -2.062  -0.241   2.241  0.00  0.00    -0.046 Br
ATOM      9 BR   UNL     1       2.241  -3.021   4.669  0.00  0.00    -0.050 Br
BRANCH   2  11
ATOM     10  C   UNL     1      -0.554  -0.443  -0.953  0.00  0.00    +0.277 C 
ATOM     11  O   UNL     1       0.070   0.265   0.120  0.00  0.00    -0.494 OA
ENDBRANCH   2  11
ENDBRANCH   1   3
BRANCH   1  12
ATOM     12  N   UNL     1       3.207   0.872   0.119  0.00  0.00    +0.382 N 
ATOM     13  H   UNL     1       2.404   1.479   0.046  0.00  0.00    -0.085 HD
ATOM     14  H   UNL     1       3.645   1.001   1.018  0.00  0.00    -0.085 HD
BRANCH  12  15
ATOM     15  C   UNL     1       4.165   1.200  -0.945  0.00  0.00    -0.082 C 
BRANCH  15  16
ATOM     16  C   UNL     1       4.612   2.656  -0.799  0.00  0.00    -0.021 C 
BRANCH  16  17
ATOM     17  C   UNL     1       5.610   2.996  -1.908  0.00  0.00    -0.021 C 
BRANCH  17  18
ATOM     18  C   UNL     1       6.056   4.453  -1.762  0.00  0.00    -0.087 C 
BRANCH  18  19
ATOM     19  N   UNL     1       7.015   4.780  -2.826  0.00  0.00    +0.378 N 
ATOM     20  H   UNL     1       6.576   4.651  -3.725  0.00  0.00    -0.090 HD
ATOM     21  H   UNL     1       7.309   5.740  -2.730  0.00  0.00    -0.090 HD
ATOM     22  H   UNL     1       7.818   4.173  -2.754  0.00  0.00    -0.090 HD
ENDBRANCH  18  19
ENDBRANCH  17  18
ENDBRANCH  16  17
ENDBRANCH  15  16
ENDBRANCH  12  15
ENDBRANCH   1  12
TORSDOF 8
