REMARK  Name = ZINC43610118
REMARK  8 active torsions:
REMARK  status: ('A' for Active; 'I' for Inactive)
REMARK    1  A    between atoms: C_1  and  C_2
REMARK    2  A    between atoms: C_2  and  C_38
REMARK    3  A    between atoms: C_7  and  C_11
REMARK    4  A    between atoms: C_11  and  N_12
REMARK    5  A    between atoms: C_24  and  N_30
REMARK    6  A    between atoms: C_26  and  O_28
REMARK    7  A    between atoms: O_28  and  C_29
REMARK    8  A    between atoms: C_31  and  C_33
REMARK                            x       y       z     vdW  Elec       q    Type
REMARK                         _______ _______ _______ _____ _____    ______ ____
ROOT
ATOM      1  N   UNL     1       1.753  -0.552   4.383  0.00  0.00    +0.382 N 
ATOM      2  C   UNL     1       0.547  -0.713   5.205  0.00  0.00    -0.077 C 
ATOM      3  C   UNL     1       0.712  -1.924   6.126  0.00  0.00    -0.005 C 
ATOM      4  C   UNL     1       1.934  -1.717   7.018  0.00  0.00    +0.021 C 
ATOM      5  C   UNL     1       3.172  -1.454   6.165  0.00  0.00    -0.005 C 
ATOM      6  C   UNL     1       2.907  -0.262   5.242  0.00  0.00    -0.077 C 
ATOM      7  C   UNL     1       2.149  -2.922   7.902  0.00  0.00    -0.034 A 
ATOM      8  C   UNL     1       2.101  -4.275   7.611  0.00  0.00    +0.004 A 
ATOM      9  C   UNL     1       2.335  -5.209   8.600  0.00  0.00    +0.000 A 
ATOM     10  C   UNL     1       2.619  -4.793   9.888  0.00  0.00    +0.000 A 
ATOM     11  C   UNL     1       2.669  -3.445  10.181  0.00  0.00    +0.006 A 
ATOM     12  C   UNL     1       2.435  -2.506   9.190  0.00  0.00    -0.021 A 
ATOM     13  C   UNL     1       2.434  -0.994   9.252  0.00  0.00    +0.133 C 
ATOM     14  C   UNL     1       1.694  -0.537   7.976  0.00  0.00    +0.153 C 
ATOM     15  H   UNL     1       1.923  -1.403   3.869  0.00  0.00    -0.081 HD
ENDROOT
BRANCH  13  16
ATOM     16  N   UNL     1       3.808  -0.484   9.255  0.00  0.00    -0.299 N 
ATOM     17  C   UNL     1       4.479  -0.365  10.418  0.00  0.00    +0.280 C 
ATOM     18  O   UNL     1       3.945  -0.681  11.464  0.00  0.00    -0.267 OA
ATOM     19  H   UNL     1       4.233  -0.232   8.421  0.00  0.00    +0.150 HD
BRANCH  17  20
ATOM     20  C   UNL     1       5.854   0.145  10.421  0.00  0.00    +0.189 A 
ATOM     21  C   UNL     1       6.646   0.310  11.521  0.00  0.00    +0.054 A 
ATOM     22  C   UNL     1       7.872   0.818  11.063  0.00  0.00    +0.042 A 
ATOM     23  C   UNL     1       7.776   0.939   9.721  0.00  0.00    +0.196 A 
ATOM     24  O   UNL     1       6.560   0.528   9.337  0.00  0.00    -0.458 OA
ENDBRANCH  17  20
ENDBRANCH  13  16
BRANCH  14  25
ATOM     25  O   UNL     1       0.298  -0.365   8.231  0.00  0.00    -0.377 OA
ATOM     26  C   UNL     1      -0.081   0.986   8.502  0.00  0.00    +0.194 C 
ENDBRANCH  14  25
BRANCH   1  27
ATOM     27  C   UNL     1       1.556   0.557   3.439  0.00  0.00    -0.047 C 
BRANCH  27  33
ATOM     28  C   UNL     1      -0.019   1.526   0.010  0.00  0.00    +0.012 C 
ATOM     29  C   UNL     1       0.002  -0.004   0.002  0.00  0.00    -0.025 C 
ATOM     30  C   UNL     1      -1.270  -0.649   0.589  0.00  0.00    -0.000 C 
ATOM     31  C   UNL     1      -1.865   0.229   1.699  0.00  0.00    +0.031 C 
ATOM     32  C   UNL     1      -0.787   0.593   2.691  0.00  0.00    -0.029 C 
ATOM     33  C   UNL     1       0.450   0.207   2.478  0.00  0.00    -0.086 C 
ATOM     34  C   UNL     1       0.726  -0.624   1.211  0.00  0.00    +0.019 C 
ATOM     35  C   UNL     1      -0.332  -1.750   1.110  0.00  0.00    +0.012 C 
ATOM     36  C   UNL     1       0.432  -0.590  -1.344  0.00  0.00    +0.012 C 
ENDBRANCH  27  33
ENDBRANCH   1  27
TORSDOF 5
