REMARK  Name = ZINC42399440
REMARK  7 active torsions:
REMARK  status: ('A' for Active; 'I' for Inactive)
REMARK    1  A    between atoms: C_1  and  C_2
REMARK    2  A    between atoms: C_4  and  C_21
REMARK    3  A    between atoms: C_7  and  C_8
REMARK    4  A    between atoms: N_9  and  O_10
REMARK    5  A    between atoms: N_12  and  C_13
REMARK    6  A    between atoms: N_12  and  C_14
REMARK    7  A    between atoms: C_14  and  C_15
REMARK                            x       y       z     vdW  Elec       q    Type
REMARK                         _______ _______ _______ _____ _____    ______ ____
ROOT
ATOM      1  C   UNL     1       0.035   1.501   0.046  0.00  0.00    +0.044 C 
ATOM      2  C   UNL     1       0.028  -0.006   0.019  0.00  0.00    -0.035 A 
ATOM      3  C   UNL     1      -0.040  -0.693  -1.182  0.00  0.00    +0.025 A 
ATOM      4  C   UNL     1      -0.043  -2.075  -1.175  0.00  0.00    +0.015 A 
ATOM      5  N   UNL     1       0.017  -2.753  -0.044  0.00  0.00    -0.346 N 
ATOM      6  C   UNL     1       0.083  -2.145   1.129  0.00  0.00    +0.110 A 
ATOM      7  C   UNL     1       0.097  -0.743   1.203  0.00  0.00    +0.059 A 
ATOM      8  N   UNL     1       0.144  -2.897   2.292  0.00  0.00    -0.314 N 
ATOM      9  C   UNL     1       1.441  -3.328   2.818  0.00  0.00    +0.131 C 
ATOM     10  C   UNL     1      -0.118  -2.822  -2.482  0.00  0.00    +0.063 C 
ATOM     11  H   UNL     1       0.012  -3.723  -0.074  0.00  0.00    +0.167 HD
ENDROOT
BRANCH   7  12
ATOM     12  C   UNL     1       0.178  -0.060   2.511  0.00  0.00    +0.166 C 
ATOM     13  N   UNL     1      -0.910   0.197   3.180  0.00  0.00    -0.071 NA
ATOM     14  N   UNL     1       1.410   0.307   3.026  0.00  0.00    -0.340 N 
ATOM     15  H   UNL     1       2.220   0.116   2.528  0.00  0.00    +0.144 HD
ATOM     16  H   UNL     1       1.462   0.756   3.885  0.00  0.00    +0.144 HD
BRANCH  13  17
ATOM     17  O   UNL     1      -0.833   0.852   4.433  0.00  0.00    -0.408 OA
ATOM     18  H   UNL     1      -1.691   0.999   4.853  0.00  0.00    +0.328 HD
ENDBRANCH  13  17
ENDBRANCH   7  12
BRANCH   8  19
ATOM     19  C   UNL     1      -1.089  -3.261   2.994  0.00  0.00    +0.148 C 
BRANCH  19  20
ATOM     20  C   UNL     1      -1.597  -4.579   2.468  0.00  0.00    +0.008 A 
ATOM     21  C   UNL     1      -1.323  -5.834   2.902  0.00  0.00    +0.028 A 
ATOM     22  C   UNL     1      -1.910  -6.908   2.259  0.00  0.00    +0.025 A 
ATOM     23  C   UNL     1      -2.741  -6.675   1.214  0.00  0.00    +0.060 A 
ATOM     24  S   UNL     1      -2.720  -4.892   1.116  0.00  0.00    -0.099 S 
ATOM     25 BR   UNL     1      -1.558  -8.677   2.829  0.00  0.00    -0.050 Br
ENDBRANCH  19  20
ENDBRANCH   8  19
TORSDOF 4
