REMARK  Name = ZINC63920249
REMARK  10 active torsions:
REMARK  status: ('A' for Active; 'I' for Inactive)
REMARK    1  A    between atoms: C_1  and  O_2
REMARK    2  A    between atoms: O_2  and  C_3
REMARK    3  A    between atoms: C_6  and  S_9
REMARK    4  A    between atoms: S_9  and  N_12
REMARK    5  A    between atoms: N_12  and  C_13
REMARK    6  A    between atoms: C_13  and  C_14
REMARK    7  A    between atoms: N_16  and  C_17
REMARK    8  A    between atoms: C_17  and  C_18
REMARK    9  A    between atoms: C_18  and  C_20
REMARK   10  A    between atoms: C_18  and  C_27
REMARK                            x       y       z     vdW  Elec       q    Type
REMARK                         _______ _______ _______ _____ _____    ______ ____
ROOT
ATOM      1  C   UNL     1       8.052  -5.131  -2.304  0.00  0.00    +0.116 C 
ENDROOT
BRANCH   1   4
ATOM      2  C   UNL     1       6.053  -4.026  -3.151  0.00  0.00    +0.229 C 
ATOM      3  O   UNL     1       6.730  -3.543  -4.034  0.00  0.00    -0.274 OA
ATOM      4  N   UNL     1       6.619  -4.835  -2.234  0.00  0.00    -0.313 N 
ATOM      5  H   UNL     1       6.077  -5.221  -1.528  0.00  0.00    +0.149 HD
BRANCH   2   6
ATOM      6  C   UNL     1       4.579  -3.721  -3.080  0.00  0.00    +0.201 C 
BRANCH   6   7
ATOM      7  N   UNL     1       4.211  -2.826  -4.180  0.00  0.00    -0.181 NA
ATOM      8  H   UNL     1       4.901  -2.356  -4.674  0.00  0.00    +0.149 HD
BRANCH   7   9
ATOM      9  S   UNL     1       2.618  -2.616  -4.580  0.00  0.00    +0.059 S 
ATOM     10  O   UNL     1       2.051  -3.915  -4.685  0.00  0.00    -0.153 OA
ATOM     11  O   UNL     1       2.587  -1.683  -5.651  0.00  0.00    -0.153 OA
BRANCH   9  15
ATOM     12  C   UNL     1       0.606  -0.607  -1.056  0.00  0.00    +0.120 A 
ATOM     13  C   UNL     1       1.173   0.161  -2.062  0.00  0.00    +0.047 A 
ATOM     14  C   UNL     1       1.786  -0.455  -3.136  0.00  0.00    +0.032 A 
ATOM     15  C   UNL     1       1.835  -1.835  -3.209  0.00  0.00    +0.105 A 
ATOM     16  C   UNL     1       1.270  -2.602  -2.207  0.00  0.00    +0.032 A 
ATOM     17  C   UNL     1       0.661  -1.992  -1.128  0.00  0.00    +0.047 A 
BRANCH  12  19
ATOM     18  C   UNL     1      -0.017   1.425   0.010  0.00  0.00    +0.277 C 
ATOM     19  O   UNL     1       0.002  -0.004   0.002  0.00  0.00    -0.495 OA
ENDBRANCH  12  19
ENDBRANCH   9  15
ENDBRANCH   7   9
ENDBRANCH   6   7
ENDBRANCH   2   6
ENDBRANCH   1   4
BRANCH   1  20
ATOM     20  C   UNL     1       8.436  -6.066  -1.155  0.00  0.00    +0.066 C 
BRANCH  20  21
ATOM     21  C   UNL     1       9.929  -6.272  -1.152  0.00  0.00    -0.033 C 
ATOM     22  C   UNL     1      10.789  -5.975  -0.152  0.00  0.00    -0.000 A 
ATOM     23  C   UNL     1      10.600  -5.391   1.181  0.00  0.00    +0.010 A 
ATOM     24  C   UNL     1      11.679  -5.209   1.976  0.00  0.00    +0.001 A 
ATOM     25  C   UNL     1      12.970  -5.562   1.560  0.00  0.00    +0.002 A 
ATOM     26  C   UNL     1      13.223  -6.103   0.349  0.00  0.00    +0.026 A 
ATOM     27  C   UNL     1      12.162  -6.340  -0.568  0.00  0.00    +0.043 A 
ATOM     28  N   UNL     1      12.151  -6.843  -1.779  0.00  0.00    -0.380 N 
ATOM     29  C   UNL     1      10.767  -6.860  -2.265  0.00  0.00    +0.145 C 
ATOM     30  H   UNL     1      12.927  -7.156  -2.269  0.00  0.00    +0.160 HD
ENDBRANCH  20  21
BRANCH  20  31
ATOM     31  C   UNL     1       7.745  -7.393  -1.335  0.00  0.00    -0.020 A 
ATOM     32  C   UNL     1       7.985  -8.148  -2.468  0.00  0.00    +0.006 A 
ATOM     33  C   UNL     1       7.351  -9.366  -2.634  0.00  0.00    +0.000 A 
ATOM     34  C   UNL     1       6.479  -9.829  -1.667  0.00  0.00    +0.001 A 
ATOM     35  C   UNL     1       6.239  -9.075  -0.534  0.00  0.00    +0.020 A 
ATOM     36  C   UNL     1       6.877  -7.859  -0.365  0.00  0.00    +0.045 A 
ATOM     37 CL   UNL     1       6.581  -6.914   1.062  0.00  0.00    -0.083 Cl
ENDBRANCH  20  31
ENDBRANCH   1  20
TORSDOF 9
