REMARK  Name = ZINC39631825
REMARK  14 active torsions:
REMARK  status: ('A' for Active; 'I' for Inactive)
REMARK    1  A    between atoms: C_1  and  C_2
REMARK    2  A    between atoms: C_2  and  C_4
REMARK    3  A    between atoms: C_2  and  N_11
REMARK    4  A    between atoms: C_4  and  C_5
REMARK    5  A    between atoms: C_5  and  C_6
REMARK    6  A    between atoms: C_6  and  C_7
REMARK    7  A    between atoms: C_7  and  C_8
REMARK    8  A    between atoms: C_7  and  C_9
REMARK    9  A    between atoms: C_7  and  O_10
REMARK   10  A    between atoms: C_12  and  C_14
REMARK   11  A    between atoms: C_25  and  C_27
REMARK   12  A    between atoms: C_27  and  C_28
REMARK   13  A    between atoms: C_28  and  C_29
REMARK   14  A    between atoms: C_29  and  C_30
REMARK                            x       y       z     vdW  Elec       q    Type
REMARK                         _______ _______ _______ _____ _____    ______ ____
ROOT
ATOM      1  C   UNL     1      -3.465  -1.164  -1.134  0.00  0.00    +0.100 C 
ATOM      2  C   UNL     1      -4.361  -0.271  -0.248  0.00  0.00    +0.121 C 
ATOM      3  N   UNL     1      -4.986   0.686  -1.192  0.00  0.00    -0.300 N 
ATOM      4  C   UNL     1      -5.291  -0.128  -2.393  0.00  0.00    +0.115 C 
ATOM      5  C   UNL     1      -4.080  -1.071  -2.540  0.00  0.00    -0.004 C 
ATOM      6  C   UNL     1      -4.538  -2.449  -3.009  0.00  0.00    -0.010 C 
ATOM      7  C   UNL     1      -5.093  -2.341  -4.432  0.00  0.00    -0.082 C 
ATOM      8  N   UNL     1      -4.053  -1.817  -5.326  0.00  0.00    +0.379 N 
ATOM      9  C   UNL     1      -3.685  -0.455  -4.923  0.00  0.00    -0.082 C 
ATOM     10  C   UNL     1      -3.071  -0.483  -3.521  0.00  0.00    -0.010 C 
ATOM     11  C   UNL     1      -5.223   1.999  -1.002  0.00  0.00    +0.216 C 
ATOM     12  O   UNL     1      -5.747   2.654  -1.878  0.00  0.00    -0.276 OA
ATOM     13  H   UNL     1      -3.240  -2.412  -5.278  0.00  0.00    -0.086 HD
ATOM     14  H   UNL     1      -4.401  -1.804  -6.273  0.00  0.00    -0.086 HD
ENDROOT
BRANCH   1  16
ATOM     15  N   UNL     1      -1.020  -1.493  -1.323  0.00  0.00    -0.312 N 
ATOM     16  C   UNL     1      -2.051  -0.643  -1.145  0.00  0.00    +0.218 C 
ATOM     17  O   UNL     1      -1.840   0.542  -0.993  0.00  0.00    -0.275 OA
ATOM     18  H   UNL     1      -1.188  -2.440  -1.444  0.00  0.00    +0.149 HD
BRANCH  15  20
ATOM     19  C   UNL     1       0.873  -0.889   0.103  0.00  0.00    +0.028 C 
ATOM     20  C   UNL     1       0.354  -0.986  -1.333  0.00  0.00    +0.070 C 
BRANCH  20  21
ATOM     21  C   UNL     1       1.244  -1.939  -2.133  0.00  0.00    +0.022 C 
BRANCH  21  22
ATOM     22  C   UNL     1       0.801  -1.941  -3.598  0.00  0.00    +0.005 C 
BRANCH  22  23
ATOM     23  C   UNL     1       1.691  -2.894  -4.398  0.00  0.00    +0.034 C 
BRANCH  23  24
ATOM     24  C   UNL     1       1.249  -2.895  -5.863  0.00  0.00    +0.061 C 
ATOM     25  C   UNL     1       1.373  -1.482  -6.434  0.00  0.00    +0.041 C 
ATOM     26  C   UNL     1       2.138  -3.849  -6.663  0.00  0.00    +0.041 C 
BRANCH  24  27
ATOM     27  O   UNL     1      -0.111  -3.326  -5.950  0.00  0.00    -0.389 OA
ATOM     28  H   UNL     1      -0.264  -4.217  -5.605  0.00  0.00    +0.210 HD
ENDBRANCH  24  27
ENDBRANCH  23  24
ENDBRANCH  22  23
ENDBRANCH  21  22
ENDBRANCH  20  21
ENDBRANCH  15  20
ENDBRANCH   1  16
BRANCH  11  29
ATOM     29  C   UNL     1      -4.838   2.653   0.300  0.00  0.00    +0.096 C 
BRANCH  29  30
ATOM     30  C   UNL     1      -5.214   4.136   0.257  0.00  0.00    +0.014 C 
BRANCH  30  31
ATOM     31  C   UNL     1      -4.822   4.800   1.578  0.00  0.00    +0.035 C 
BRANCH  31  32
ATOM     32  C   UNL     1      -5.192   6.260   1.535  0.00  0.00    -0.047 A 
ATOM     33  C   UNL     1      -4.286   7.189   1.060  0.00  0.00    +0.003 A 
ATOM     34  C   UNL     1      -4.626   8.529   1.020  0.00  0.00    +0.000 A 
ATOM     35  C   UNL     1      -5.872   8.939   1.456  0.00  0.00    +0.000 A 
ATOM     36  C   UNL     1      -6.779   8.009   1.931  0.00  0.00    +0.000 A 
ATOM     37  C   UNL     1      -6.441   6.670   1.966  0.00  0.00    +0.003 A 
ENDBRANCH  31  32
ENDBRANCH  30  31
ENDBRANCH  29  30
ENDBRANCH  11  29
TORSDOF 11
