REMARK  Name = ZINC45739236
REMARK  11 active torsions:
REMARK  status: ('A' for Active; 'I' for Inactive)
REMARK    1  A    between atoms: C_1  and  C_2
REMARK    2  A    between atoms: C_2  and  C_3
REMARK    3  A    between atoms: C_3  and  N_4
REMARK    4  A    between atoms: C_5  and  C_7
REMARK    5  A    between atoms: C_11  and  N_13
REMARK    6  A    between atoms: N_16  and  C_17
REMARK    7  A    between atoms: C_17  and  C_18
REMARK    8  A    between atoms: C_18  and  C_20
REMARK    9  A    between atoms: C_18  and  N_25
REMARK   10  A    between atoms: N_25  and  C_26
REMARK   11  A    between atoms: N_25  and  C_27
REMARK                            x       y       z     vdW  Elec       q    Type
REMARK                         _______ _______ _______ _____ _____    ______ ____
ROOT
ATOM      1  N   UNL     1       3.241  -6.795   4.430  0.00  0.00    -0.269 N 
ATOM      2  C   UNL     1       3.026  -8.126   4.431  0.00  0.00    +0.304 C 
ATOM      3  O   UNL     1       2.481  -8.655   3.482  0.00  0.00    -0.253 OA
ATOM      4  N   UNL     1       3.416  -8.870   5.485  0.00  0.00    -0.300 N 
ATOM      5  H   UNL     1       3.740  -6.384   5.153  0.00  0.00    +0.156 HD
ATOM      6  H   UNL     1       3.851  -8.448   6.242  0.00  0.00    +0.150 HD
ENDROOT
BRANCH   1  11
ATOM      7  C   UNL     1       1.042  -5.541   1.750  0.00  0.00    +0.038 A 
ATOM      8  C   UNL     1       1.772  -4.433   1.315  0.00  0.00    +0.013 A 
ATOM      9  C   UNL     1       2.974  -4.121   1.915  0.00  0.00    +0.003 A 
ATOM     10  C   UNL     1       3.462  -4.902   2.946  0.00  0.00    +0.023 A 
ATOM     11  C   UNL     1       2.743  -6.007   3.386  0.00  0.00    +0.035 A 
ATOM     12  C   UNL     1       1.530  -6.325   2.794  0.00  0.00    +0.036 A 
BRANCH   7  14
ATOM     13  N   UNL     1      -0.718  -5.117   0.101  0.00  0.00    -0.311 N 
ATOM     14  C   UNL     1      -0.248  -5.877   1.110  0.00  0.00    +0.244 C 
ATOM     15  O   UNL     1      -0.884  -6.840   1.493  0.00  0.00    -0.270 OA
ATOM     16  H   UNL     1      -0.210  -4.350  -0.205  0.00  0.00    +0.149 HD
BRANCH  13  17
ATOM     17  C   UNL     1      -1.995  -5.451  -0.534  0.00  0.00    +0.104 C 
BRANCH  17  19
ATOM     18  C   UNL     1      -3.629  -4.787  -2.304  0.00  0.00    +0.005 C 
ATOM     19  C   UNL     1      -2.295  -4.438  -1.641  0.00  0.00    +0.015 C 
ENDBRANCH  17  19
ENDBRANCH  13  17
ENDBRANCH   7  14
ENDBRANCH   1  11
BRANCH   4  20
ATOM     20  C   UNL     1       3.183 -10.317   5.486  0.00  0.00    +0.095 C 
BRANCH  20  21
ATOM     21  C   UNL     1       3.596 -10.898   6.840  0.00  0.00    -0.020 C 
BRANCH  21  22
ATOM     22  C   UNL     1       2.720 -10.321   7.922  0.00  0.00    -0.052 A 
ATOM     23  C   UNL     1       3.174  -9.280   8.711  0.00  0.00    +0.009 A 
ATOM     24  C   UNL     1       2.362  -8.784   9.675  0.00  0.00    +0.045 A 
ATOM     25  S   UNL     1       0.905  -9.797   9.489  0.00  0.00    -0.105 S 
ATOM     26  C   UNL     1       1.474 -10.811   8.134  0.00  0.00    +0.047 A 
ENDBRANCH  21  22
BRANCH  21  27
ATOM     27  N   UNL     1       3.441 -12.359   6.813  0.00  0.00    +0.382 N 
ATOM     28  C   UNL     1       4.343 -12.928   5.803  0.00  0.00    -0.096 C 
ATOM     29  C   UNL     1       3.774 -12.911   8.133  0.00  0.00    -0.096 C 
ATOM     30  H   UNL     1       2.487 -12.592   6.581  0.00  0.00    -0.082 HD
ENDBRANCH  21  27
ENDBRANCH  20  21
ENDBRANCH   4  20
TORSDOF 8
