REMARK  Name = ZINC13687641
REMARK  9 active torsions:
REMARK  status: ('A' for Active; 'I' for Inactive)
REMARK    1  A    between atoms: C_1  and  C_2
REMARK    2  A    between atoms: C_2  and  C_3
REMARK    3  A    between atoms: C_2  and  C_4
REMARK    4  A    between atoms: C_2  and  N_67
REMARK    5  A    between atoms: N_6  and  C_7
REMARK    6  A    between atoms: C_7  and  C_9
REMARK    7  A    between atoms: C_7  and  C_17
REMARK    8  A    between atoms: C_9  and  C_10
REMARK    9  A    between atoms: C_10  and  C_11
REMARK                            x       y       z     vdW  Elec       q    Type
REMARK                         _______ _______ _______ _____ _____    ______ ____
ROOT
ATOM      1  C   UNL     1       6.733   5.136  -2.088  0.00  0.00    +0.159 C 
ENDROOT
BRANCH   1   2
ATOM      2  C   UNL     1       6.268   4.902  -0.673  0.00  0.00    +0.236 C 
ATOM      3  O   UNL     1       7.071   4.614   0.189  0.00  0.00    -0.274 OA
ATOM      4  N   UNL     1       4.961   5.014  -0.366  0.00  0.00    -0.300 N 
ATOM      5  C   UNL     1       4.494   4.789   1.009  0.00  0.00    +0.108 C 
ATOM      6  C   UNL     1       3.383   3.733   0.985  0.00  0.00    +0.030 C 
ATOM      7  C   UNL     1       2.297   4.162   0.003  0.00  0.00    -0.001 C 
ATOM      8  C   UNL     1       1.679   5.499   0.453  0.00  0.00    +0.016 C 
ATOM      9  C   UNL     1       0.203   5.337   0.031  0.00  0.00    +0.036 C 
ATOM     10  C   UNL     1      -0.047   3.844   0.025  0.00  0.00    -0.044 A 
ATOM     11  C   UNL     1       1.161   3.168   0.008  0.00  0.00    -0.038 A 
ATOM     12  C   UNL     1       1.174   1.783   0.000  0.00  0.00    +0.004 A 
ATOM     13  C   UNL     1      -0.013   1.076   0.008  0.00  0.00    +0.000 A 
ATOM     14  C   UNL     1      -1.218   1.751   0.017  0.00  0.00    +0.000 A 
ATOM     15  C   UNL     1      -1.234   3.132   0.032  0.00  0.00    +0.004 A 
ATOM     16  C   UNL     1       2.871   4.302  -1.405  0.00  0.00    +0.030 C 
ATOM     17  C   UNL     1       3.977   5.363  -1.400  0.00  0.00    +0.108 C 
ENDBRANCH   1   2
BRANCH   1  20
ATOM     18  C   UNL     1       9.092   4.900  -1.526  0.00  0.00    +0.202 C 
ATOM     19  O   UNL     1       8.948   5.765  -0.687  0.00  0.00    -0.277 OA
ATOM     20  N   UNL     1       8.044   4.513  -2.280  0.00  0.00    -0.305 N 
ATOM     21  H   UNL     1       8.159   3.821  -2.951  0.00  0.00    +0.149 HD
BRANCH  18  23
ATOM     22  C   UNL     1      11.536   5.222  -1.260  0.00  0.00    -0.001 C 
ATOM     23  C   UNL     1      10.441   4.259  -1.724  0.00  0.00    +0.001 C 
ATOM     24  C   UNL     1      10.518   2.968  -0.906  0.00  0.00    -0.001 C 
BRANCH  23  27
ATOM     25  H   UNL     1       9.960   3.265  -3.461  0.00  0.00    -0.089 HD
ATOM     26  H   UNL     1      10.586   4.786  -3.708  0.00  0.00    -0.089 HD
ATOM     27  N   UNL     1      10.656   3.940  -3.146  0.00  0.00    +0.387 N 
ATOM     28  H   UNL     1      11.592   3.535  -3.264  0.00  0.00    -0.089 HD
ENDBRANCH  23  27
ENDBRANCH  18  23
ENDBRANCH   1  20
BRANCH   1  29
ATOM     29  C   UNL     1       6.839   6.639  -2.348  0.00  0.00    +0.036 C 
BRANCH  29  30
ATOM     30  C   UNL     1       7.189   6.879  -3.818  0.00  0.00    +0.037 C 
BRANCH  30  31
ATOM     31  C   UNL     1       7.294   8.361  -4.074  0.00  0.00    -0.047 A 
ATOM     32  C   UNL     1       6.178   9.074  -4.469  0.00  0.00    +0.003 A 
ATOM     33  C   UNL     1       6.273  10.434  -4.699  0.00  0.00    +0.000 A 
ATOM     34  C   UNL     1       7.487  11.078  -4.544  0.00  0.00    +0.000 A 
ATOM     35  C   UNL     1       8.604  10.363  -4.155  0.00  0.00    +0.000 A 
ATOM     36  C   UNL     1       8.508   9.004  -3.920  0.00  0.00    +0.003 A 
ENDBRANCH  30  31
ENDBRANCH  29  30
ENDBRANCH   1  29
TORSDOF 7
