REMARK  Name = ZINC66390328
REMARK  8 active torsions:
REMARK  status: ('A' for Active; 'I' for Inactive)
REMARK    1  A    between atoms: C_1  and  C_2
REMARK    2  A    between atoms: C_2  and  C_4
REMARK    3  A    between atoms: C_2  and  N_13
REMARK    4  A    between atoms: N_9  and  C_10
REMARK    5  A    between atoms: C_10  and  C_11
REMARK    6  A    between atoms: N_13  and  C_14
REMARK    7  A    between atoms: C_14  and  C_15
REMARK    8  A    between atoms: C_15  and  C_21
REMARK                            x       y       z     vdW  Elec       q    Type
REMARK                         _______ _______ _______ _____ _____    ______ ____
ROOT
ATOM      1  N   UNL     1       0.741  -0.598   1.185  0.00  0.00    +0.387 N 
ATOM      2  H   UNL     1       0.804  -1.605   1.180  0.00  0.00    -0.085 HD
ATOM      3  H   UNL     1       1.668  -0.202   1.215  0.00  0.00    -0.085 HD
ENDROOT
BRANCH   1   5
ATOM      4  C   UNL     1       0.067   1.384  -0.086  0.00  0.00    -0.004 C 
ATOM      5  C   UNL     1       0.054  -0.145  -0.032  0.00  0.00    +0.013 C 
BRANCH   5   6
ATOM      6  C   UNL     1       0.762  -0.696  -1.243  0.00  0.00    +0.206 C 
ATOM      7  O   UNL     1       1.742  -1.397  -1.105  0.00  0.00    -0.277 OA
ATOM      8  N   UNL     1       0.306  -0.410  -2.479  0.00  0.00    -0.242 N 
ATOM      9  C   UNL     1       0.939  -0.903  -3.561  0.00  0.00    +0.306 C 
ATOM     10  O   UNL     1       1.921  -1.606  -3.424  0.00  0.00    -0.252 OA
ATOM     11  N   UNL     1       0.483  -0.617  -4.797  0.00  0.00    -0.296 N 
ATOM     12  H   UNL     1      -0.478   0.151  -2.589  0.00  0.00    +0.159 HD
ATOM     13  H   UNL     1      -0.300  -0.056  -4.907  0.00  0.00    +0.151 HD
BRANCH  11  14
ATOM     14  C   UNL     1       1.172  -1.153  -5.974  0.00  0.00    +0.132 C 
BRANCH  14  15
ATOM     15  C   UNL     1       0.468  -0.689  -7.223  0.00  0.00    -0.016 C 
ATOM     16  C   UNL     1       1.136  -0.056  -8.155  0.00  0.00    +0.005 C 
ENDBRANCH  14  15
ENDBRANCH  11  14
ENDBRANCH   5   6
ENDBRANCH   1   5
BRANCH   1  17
ATOM     17  C   UNL     1      -0.017  -0.161   2.366  0.00  0.00    -0.070 C 
BRANCH  17  18
ATOM     18  C   UNL     1       0.633  -0.732   3.628  0.00  0.00    -0.015 C 
ATOM     19  C   UNL     1      -0.242  -0.411   4.844  0.00  0.00    +0.038 C 
ATOM     20  C   UNL     1      -1.599  -1.099   4.682  0.00  0.00    +0.160 C 
ATOM     21  O   UNL     1      -1.403  -2.507   4.532  0.00  0.00    -0.380 OA
ATOM     22  C   UNL     1      -0.632  -2.869   3.384  0.00  0.00    +0.160 C 
ATOM     23  C   UNL     1       0.764  -2.252   3.494  0.00  0.00    +0.038 C 
BRANCH  18  24
ATOM     24  C   UNL     1       1.998  -0.122   3.812  0.00  0.00    -0.043 A 
ATOM     25  C   UNL     1       2.408   0.915   2.994  0.00  0.00    +0.007 A 
ATOM     26  C   UNL     1       3.660   1.475   3.162  0.00  0.00    +0.038 A 
ATOM     27  C   UNL     1       4.504   0.998   4.150  0.00  0.00    +0.123 A 
ATOM     28  C   UNL     1       4.093  -0.040   4.969  0.00  0.00    +0.038 A 
ATOM     29  C   UNL     1       2.839  -0.595   4.803  0.00  0.00    +0.007 A 
ATOM     30  F   UNL     1       5.729   1.545   4.315  0.00  0.00    -0.205 F 
ENDBRANCH  18  24
ENDBRANCH  17  18
ENDBRANCH   1  17
TORSDOF 7
