REMARK  Name = ZINC09906778
REMARK  2 active torsions:
REMARK  status: ('A' for Active; 'I' for Inactive)
REMARK    1  A    between atoms: C_15  and  N_51
REMARK    2  A    between atoms: N_20  and  C_23
REMARK                            x       y       z     vdW  Elec       q    Type
REMARK                         _______ _______ _______ _____ _____    ______ ____
ROOT
ATOM      1  C   UNL     1      -4.760   4.215   0.002  0.00  0.00    +0.029 C 
ATOM      2  C   UNL     1      -4.012   5.557   0.136  0.00  0.00    +0.090 C 
ATOM      3  C   UNL     1      -2.554   5.151   0.157  0.00  0.00    +0.225 C 
ATOM      4  O   UNL     1      -1.615   5.910   0.256  0.00  0.00    -0.275 OA
ATOM      5  N   UNL     1      -2.467   3.819   0.046  0.00  0.00    -0.212 N 
ATOM      6  C   UNL     1      -3.647   3.192  -0.044  0.00  0.00    +0.213 C 
ATOM      7  O   UNL     1      -3.798   1.993  -0.147  0.00  0.00    -0.277 OA
ENDROOT
BRANCH   1  22
ATOM      8  C   UNL     1     -11.207   1.545   7.198  0.00  0.00    +0.002 A 
ATOM      9  C   UNL     1     -10.410   1.594   8.331  0.00  0.00    +0.001 A 
ATOM     10  C   UNL     1      -9.053   1.828   8.195  0.00  0.00    +0.017 A 
ATOM     11  C   UNL     1      -8.519   2.007   6.944  0.00  0.00    +0.041 A 
ATOM     12  C   UNL     1      -9.300   1.964   5.768  0.00  0.00    +0.080 A 
ATOM     13  C   UNL     1     -10.682   1.723   5.944  0.00  0.00    +0.029 A 
ATOM     14  N   UNL     1      -8.630   2.164   4.612  0.00  0.00    -0.225 NA
ATOM     15  C   UNL     1      -7.334   2.376   4.576  0.00  0.00    +0.162 A 
ATOM     16  S   UNL     1      -6.891   2.323   6.307  0.00  0.00    -0.052 S 
ATOM     17  N   UNL     1      -6.522   2.591   3.481  0.00  0.00    -0.313 N 
ATOM     18  C   UNL     1      -7.298   2.554   2.234  0.00  0.00    +0.088 C 
ATOM     19  C   UNL     1      -6.352   2.716   1.042  0.00  0.00    -0.058 C 
ATOM     20  C   UNL     1      -4.848   4.024   2.415  0.00  0.00    -0.058 C 
ATOM     21  C   UNL     1      -5.794   3.862   3.607  0.00  0.00    +0.088 C 
ATOM     22  N   UNL     1      -5.643   4.007   1.169  0.00  0.00    +0.390 N 
ATOM     23  H   UNL     1      -6.334   4.766   1.204  0.00  0.00    -0.081 HD
ENDBRANCH   1  22
BRANCH   5  24
ATOM     24  C   UNL     1      -1.241   3.137   0.031  0.00  0.00    +0.048 A 
ATOM     25  C   UNL     1      -0.820   2.491  -1.123  0.00  0.00    +0.028 A 
ATOM     26  C   UNL     1       0.384   1.814  -1.138  0.00  0.00    +0.051 A 
ATOM     27  C   UNL     1       1.181   1.788  -0.005  0.00  0.00    +0.166 A 
ATOM     28  C   UNL     1       0.764   2.441   1.153  0.00  0.00    +0.168 A 
ATOM     29  C   UNL     1      -0.446   3.114   1.168  0.00  0.00    +0.073 A 
ATOM     30  O   UNL     1       1.715   2.268   2.117  0.00  0.00    -0.453 OA
ATOM     31  C   UNL     1       2.523   1.165   1.668  0.00  0.00    +0.466 C 
ATOM     32  O   UNL     1       2.394   1.207   0.235  0.00  0.00    -0.453 OA
ENDBRANCH   5  24
TORSDOF 2
