REMARK  Name = ZINC33662071
REMARK  7 active torsions:
REMARK  status: ('A' for Active; 'I' for Inactive)
REMARK    1  A    between atoms: C_1  and  C_2
REMARK    2  A    between atoms: C_5  and  C_33
REMARK    3  A    between atoms: C_6  and  C_8
REMARK    4  A    between atoms: C_8  and  C_9
REMARK    5  A    between atoms: C_10  and  C_23
REMARK    6  A    between atoms: C_20  and  C_22
REMARK    7  A    between atoms: C_26  and  N_29
REMARK                            x       y       z     vdW  Elec       q    Type
REMARK                         _______ _______ _______ _____ _____    ______ ____
ROOT
ATOM      1  C   UNL     1      -1.113   2.832   6.043  0.00  0.00    +0.077 C 
ATOM      2  C   UNL     1      -0.694   3.192   7.450  0.00  0.00    +0.152 C 
ATOM      3  N   UNL     1      -1.919   3.537   8.177  0.00  0.00    -0.230 N 
ATOM      4  C   UNL     1      -2.970   3.404   7.351  0.00  0.00    +0.293 C 
ATOM      5  O   UNL     1      -4.126   3.611   7.658  0.00  0.00    -0.266 OA
ATOM      6  C   UNL     1      -2.511   2.965   6.007  0.00  0.00    +0.250 C 
ATOM      7  O   UNL     1      -3.224   2.756   5.042  0.00  0.00    -0.282 OA
ATOM      8  C   UNL     1      -1.983   3.930   9.508  0.00  0.00    +0.191 A 
ATOM      9  N   UNL     1      -1.013   4.090  10.398  0.00  0.00    -0.125 NA
ATOM     10  N   UNL     1      -1.250   4.459  11.581  0.00  0.00    -0.145 NA
ATOM     11  C   UNL     1      -2.473   4.708  12.007  0.00  0.00    +0.101 A 
ATOM     12  S   UNL     1      -3.398   4.375  10.510  0.00  0.00    -0.035 S 
ATOM     13  C   UNL     1      -2.954   5.152  13.364  0.00  0.00    +0.075 C 
ENDROOT
BRANCH   2  14
ATOM     14  C   UNL     1      -0.015   2.017   8.104  0.00  0.00    -0.022 A 
ATOM     15  C   UNL     1      -0.772   0.993   8.642  0.00  0.00    +0.008 A 
ATOM     16  C   UNL     1      -0.149  -0.088   9.237  0.00  0.00    +0.033 A 
ATOM     17  C   UNL     1       1.230  -0.141   9.304  0.00  0.00    +0.126 A 
ATOM     18  C   UNL     1       1.987   0.886   8.770  0.00  0.00    +0.033 A 
ATOM     19  C   UNL     1       1.365   1.964   8.170  0.00  0.00    +0.008 A 
BRANCH  17  20
ATOM     20  N   UNL     1       1.897  -1.296   9.945  0.00  0.00    +0.056 N 
ATOM     21  O   UNL     1       3.113  -1.342  10.004  0.00  0.00    -0.126 OA
ATOM     22  O   UNL     1       1.230  -2.200  10.415  0.00  0.00    -0.126 OA
ENDBRANCH  17  20
ENDBRANCH   2  14
BRANCH   1  23
ATOM     23  C   UNL     1      -0.290   2.445   5.007  0.00  0.00    +0.195 C 
ATOM     24  O   UNL     1       1.051   2.471   5.163  0.00  0.00    -0.287 OA
BRANCH  23  30
ATOM     25  C   UNL     1      -3.016   3.410   0.944  0.00  0.00    +0.044 C 
ATOM     26  C   UNL     1      -2.186   2.462   1.769  0.00  0.00    -0.050 A 
ATOM     27  C   UNL     1      -1.975   1.166   1.328  0.00  0.00    +0.003 A 
ATOM     28  C   UNL     1      -1.209   0.289   2.076  0.00  0.00    +0.004 A 
ATOM     29  C   UNL     1      -0.660   0.696   3.273  0.00  0.00    -0.040 A 
ATOM     30  C   UNL     1      -0.873   2.001   3.729  0.00  0.00    +0.025 A 
ATOM     31  C   UNL     1      -1.644   2.884   2.964  0.00  0.00    +0.015 A 
ATOM     32  C   UNL     1       0.169  -0.262   4.089  0.00  0.00    +0.044 C 
ENDBRANCH  23  30
ENDBRANCH   1  23
TORSDOF 4
