REMARK  Name = ZINC39227626
REMARK  12 active torsions:
REMARK  status: ('A' for Active; 'I' for Inactive)
REMARK    1  A    between atoms: C_1  and  C_2
REMARK    2  A    between atoms: C_2  and  C_4
REMARK    3  A    between atoms: C_2  and  O_37
REMARK    4  A    between atoms: C_4  and  N_5
REMARK    5  A    between atoms: N_5  and  C_6
REMARK    6  A    between atoms: C_6  and  C_7
REMARK    7  A    between atoms: C_7  and  C_9
REMARK    8  A    between atoms: C_7  and  O_10
REMARK    9  A    between atoms: C_11  and  C_13
REMARK   10  A    between atoms: C_16  and  C_19
REMARK   11  A    between atoms: C_25  and  O_36
REMARK   12  A    between atoms: N_32  and  C_35
REMARK                            x       y       z     vdW  Elec       q    Type
REMARK                         _______ _______ _______ _____ _____    ______ ____
ROOT
ATOM      1  C   UNL     1       1.218  -4.228  -0.739  0.00  0.00    +0.037 A 
ATOM      2  C   UNL     1       0.154  -4.822  -1.422  0.00  0.00    +0.013 A 
ATOM      3  C   UNL     1       0.021  -6.192  -1.431  0.00  0.00    +0.009 A 
ATOM      4  C   UNL     1       0.949  -6.987  -0.758  0.00  0.00    -0.018 A 
ATOM      5  C   UNL     1       2.013  -6.395  -0.076  0.00  0.00    +0.009 A 
ATOM      6  C   UNL     1       2.150  -5.026  -0.071  0.00  0.00    +0.013 A 
ENDROOT
BRANCH   4   7
ATOM      7  C   UNL     1       0.805  -8.462  -0.768  0.00  0.00    -0.017 A 
ATOM      8  C   UNL     1      -0.254  -9.058  -1.453  0.00  0.00    +0.012 A 
ATOM      9  C   UNL     1      -0.380 -10.429  -1.460  0.00  0.00    +0.046 A 
ATOM     10  C   UNL     1       0.543 -11.225  -0.785  0.00  0.00    +0.127 A 
ATOM     11  C   UNL     1       1.593 -10.636  -0.100  0.00  0.00    +0.023 A 
ATOM     12  C   UNL     1       1.730  -9.260  -0.098  0.00  0.00    +0.018 A 
ATOM     13  C   UNL     1       2.604 -11.464   0.652  0.00  0.00    +0.152 C 
ATOM     14  C   UNL     1       2.549 -12.914   0.166  0.00  0.00    +0.084 C 
ATOM     15  C   UNL     1       1.082 -13.359   0.139  0.00  0.00    +0.110 C 
ATOM     16  O   UNL     1       0.383 -12.573  -0.824  0.00  0.00    -0.485 OA
ATOM     17  C   UNL     1       0.461 -13.159   1.523  0.00  0.00    +0.029 C 
ATOM     18  C   UNL     1      -0.978 -13.681   1.510  0.00  0.00    -0.075 C 
ATOM     19  N   UNL     1      -0.981 -15.109   1.168  0.00  0.00    +0.378 N 
ATOM     20  C   UNL     1      -0.455 -15.297  -0.189  0.00  0.00    -0.075 C 
ATOM     21  C   UNL     1       1.004 -14.838  -0.242  0.00  0.00    +0.029 C 
ATOM     22  C   UNL     1      -2.355 -15.623   1.235  0.00  0.00    -0.096 C 
ATOM     23  H   UNL     1      -0.404 -15.612   1.825  0.00  0.00    -0.082 HD
BRANCH  13  24
ATOM     24  O   UNL     1       3.913 -10.937   0.426  0.00  0.00    -0.387 OA
ATOM     25  H   UNL     1       4.024 -10.021   0.713  0.00  0.00    +0.210 HD
ENDBRANCH  13  24
ENDBRANCH   4   7
BRANCH   1  27
ATOM     26  N   UNL     1       0.266  -1.974  -0.733  0.00  0.00    -0.293 N 
ATOM     27  C   UNL     1       1.362  -2.758  -0.730  0.00  0.00    +0.247 C 
ATOM     28  O   UNL     1       2.469  -2.256  -0.719  0.00  0.00    -0.270 OA
BRANCH  26  29
ATOM     29  C   UNL     1      -1.067  -2.578  -0.661  0.00  0.00    +0.139 C 
BRANCH  29  31
ATOM     30  C   UNL     1      -3.351  -2.595  -1.675  0.00  0.00    +0.039 C 
ATOM     31  C   UNL     1      -1.923  -2.062  -1.819  0.00  0.00    +0.129 C 
BRANCH  31  32
ATOM     32  O   UNL     1      -1.370  -2.513  -3.058  0.00  0.00    -0.391 OA
ATOM     33  H   UNL     1      -1.863  -2.223  -3.837  0.00  0.00    +0.210 HD
ENDBRANCH  31  32
ENDBRANCH  29  31
ENDBRANCH  26  29
BRANCH  26  34
ATOM     34  C   UNL     1       0.407  -0.518  -0.808  0.00  0.00    +0.139 C 
BRANCH  34  35
ATOM     35  C   UNL     1       0.363   0.072   0.603  0.00  0.00    +0.129 C 
ATOM     36  C   UNL     1       0.387   1.600   0.518  0.00  0.00    +0.039 C 
BRANCH  35  37
ATOM     37  O   UNL     1       1.497  -0.381   1.345  0.00  0.00    -0.391 OA
ATOM     38  H   UNL     1       2.343  -0.057   1.007  0.00  0.00    +0.210 HD
ENDBRANCH  35  37
ENDBRANCH  34  35
ENDBRANCH  26  34
ENDBRANCH   1  27
TORSDOF 9
