REMARK  Name = ZINC39532636
REMARK  11 active torsions:
REMARK  status: ('A' for Active; 'I' for Inactive)
REMARK    1  A    between atoms: C_1  and  C_2
REMARK    2  A    between atoms: C_2  and  C_3
REMARK    3  A    between atoms: C_3  and  C_4
REMARK    4  A    between atoms: C_7  and  C_10
REMARK    5  A    between atoms: C_10  and  C_12
REMARK    6  A    between atoms: C_10  and  N_16
REMARK    7  A    between atoms: C_12  and  N_13
REMARK    8  A    between atoms: N_13  and  O_14
REMARK    9  A    between atoms: O_14  and  C_15
REMARK   10  A    between atoms: C_20  and  C_23
REMARK   11  A    between atoms: C_28  and  O_29
REMARK                            x       y       z     vdW  Elec       q    Type
REMARK                         _______ _______ _______ _____ _____    ______ ____
ROOT
ATOM      1  N   UNL     1      -2.183  -6.835   1.008  0.00  0.00    -0.297 NA
ATOM      2  C   UNL     1      -1.458  -6.824   2.287  0.00  0.00    +0.066 C 
ATOM      3  C   UNL     1      -2.389  -7.309   3.401  0.00  0.00    -0.066 C 
ATOM      4  N   UNL     1      -2.853  -8.668   3.094  0.00  0.00    +0.385 N 
ATOM      5  C   UNL     1      -3.596  -8.659   1.826  0.00  0.00    -0.023 C 
ATOM      6  C   UNL     1      -2.675  -8.185   0.699  0.00  0.00    +0.074 C 
ATOM      7  H   UNL     1      -2.059  -9.285   3.013  0.00  0.00    -0.085 HD
ATOM      8  H   UNL     1      -3.457  -8.993   3.834  0.00  0.00    -0.085 HD
ENDROOT
BRANCH   5   9
ATOM      9  C   UNL     1      -4.087 -10.051   1.522  0.00  0.00    -0.019 A 
ATOM     10  C   UNL     1      -3.497 -11.141   2.131  0.00  0.00    +0.005 A 
ATOM     11  C   UNL     1      -3.946 -12.418   1.852  0.00  0.00    +0.000 A 
ATOM     12  C   UNL     1      -4.988 -12.608   0.962  0.00  0.00    +0.004 A 
ATOM     13  C   UNL     1      -5.582 -11.521   0.350  0.00  0.00    +0.045 A 
ATOM     14  C   UNL     1      -5.136 -10.238   0.633  0.00  0.00    +0.118 A 
BRANCH  14  15
ATOM     15  O   UNL     1      -5.722  -9.166   0.037  0.00  0.00    -0.507 OA
ATOM     16  H   UNL     1      -5.316  -8.913  -0.803  0.00  0.00    +0.292 HD
ENDBRANCH  14  15
ENDBRANCH   5   9
BRANCH   1  17
ATOM     17  C   UNL     1      -1.339  -6.321  -0.079  0.00  0.00    +0.103 C 
BRANCH  17  21
ATOM     18  C   UNL     1      -1.579  -2.057  -0.172  0.00  0.00    -0.047 A 
ATOM     19  C   UNL     1      -1.139  -2.749  -1.285  0.00  0.00    +0.004 A 
ATOM     20  C   UNL     1      -1.062  -4.129  -1.255  0.00  0.00    +0.005 A 
ATOM     21  C   UNL     1      -1.423  -4.817  -0.111  0.00  0.00    -0.029 A 
ATOM     22  C   UNL     1      -1.861  -4.125   1.002  0.00  0.00    +0.005 A 
ATOM     23  C   UNL     1      -1.935  -2.745   0.973  0.00  0.00    +0.004 A 
BRANCH  18  24
ATOM     24  C   UNL     1      -1.663  -0.553  -0.204  0.00  0.00    +0.035 C 
BRANCH  24  26
ATOM     25  C   UNL     1      -0.419   1.570   0.226  0.00  0.00    +0.004 C 
ATOM     26  C   UNL     1      -0.333   0.043   0.260  0.00  0.00    +0.001 C 
ENDBRANCH  24  26
ENDBRANCH  18  24
ENDBRANCH  17  21
BRANCH  17  27
ATOM     27  C   UNL     1       0.112  -6.746   0.157  0.00  0.00    +0.134 C 
BRANCH  27  28
ATOM     28  N   UNL     1       0.194  -8.212   0.183  0.00  0.00    -0.200 NA
ATOM     29  H   UNL     1      -0.332  -8.590   0.956  0.00  0.00    +0.154 HD
BRANCH  28  30
ATOM     30  O   UNL     1       1.587  -8.658   0.229  0.00  0.00    -0.303 OA
ATOM     31  C   UNL     1       1.742 -10.079   0.256  0.00  0.00    +0.221 C 
ENDBRANCH  28  30
ENDBRANCH  27  28
ENDBRANCH  17  27
ENDBRANCH   1  17
TORSDOF 9
