REMARK  Name = ZINC15271769
REMARK  7 active torsions:
REMARK  status: ('A' for Active; 'I' for Inactive)
REMARK    1  A    between atoms: C_5  and  N_7
REMARK    2  A    between atoms: N_7  and  S_8
REMARK    3  A    between atoms: S_8  and  C_11
REMARK    4  A    between atoms: C_14  and  C_17
REMARK    5  A    between atoms: C_18  and  C_19
REMARK    6  A    between atoms: N_21  and  C_22
REMARK    7  A    between atoms: C_22  and  C_23
REMARK                            x       y       z     vdW  Elec       q    Type
REMARK                         _______ _______ _______ _____ _____    ______ ____
ROOT
ATOM      1  C   UNL     1       1.267   8.518   7.422  0.00  0.00    +0.109 A 
ATOM      2  C   UNL     1       1.313   9.386   6.345  0.00  0.00    +0.029 A 
ATOM      3  C   UNL     1       1.389   8.892   5.060  0.00  0.00    +0.010 A 
ATOM      4  C   UNL     1       1.420   7.510   4.846  0.00  0.00    -0.025 A 
ATOM      5  C   UNL     1       1.367   6.640   5.939  0.00  0.00    +0.010 A 
ATOM      6  C   UNL     1       1.296   7.149   7.219  0.00  0.00    +0.029 A 
ENDROOT
BRANCH   1   7
ATOM      7  S   UNL     1       1.169   9.159   9.060  0.00  0.00    +0.072 S 
ATOM      8  O   UNL     1       1.689   8.154   9.921  0.00  0.00    -0.150 OA
ATOM      9  O   UNL     1       1.705  10.474   9.014  0.00  0.00    -0.150 OA
BRANCH   7  10
ATOM     10  N   UNL     1      -0.437   9.315   9.431  0.00  0.00    -0.215 N 
ATOM     11  H   UNL     1      -0.802  10.187   9.647  0.00  0.00    +0.174 HD
BRANCH  10  16
ATOM     12  C   UNL     1      -1.597   5.854   9.860  0.00  0.00    +0.002 A 
ATOM     13  C   UNL     1      -2.909   5.962   9.433  0.00  0.00    +0.002 A 
ATOM     14  C   UNL     1      -3.401   7.181   9.005  0.00  0.00    +0.022 A 
ATOM     15  C   UNL     1      -2.584   8.296   9.003  0.00  0.00    +0.063 A 
ATOM     16  C   UNL     1      -1.266   8.190   9.431  0.00  0.00    +0.066 A 
ATOM     17  C   UNL     1      -0.774   6.963   9.855  0.00  0.00    +0.026 A 
ATOM     18 CL   UNL     1      -3.203   9.826   8.465  0.00  0.00    -0.082 Cl
ENDBRANCH  10  16
ENDBRANCH   7  10
ENDBRANCH   1   7
BRANCH   4  19
ATOM     19  C   UNL     1       1.500   6.975   3.477  0.00  0.00    +0.013 C 
ATOM     20  C   UNL     1       1.530   5.642   3.276  0.00  0.00    +0.068 C 
BRANCH  20  21
ATOM     21  C   UNL     1       1.610   5.109   1.914  0.00  0.00    +0.237 C 
ATOM     22  O   UNL     1       1.650   5.870   0.965  0.00  0.00    -0.271 OA
ATOM     23  N   UNL     1       1.640   3.777   1.712  0.00  0.00    -0.308 N 
ATOM     24  H   UNL     1       1.608   3.171   2.469  0.00  0.00    +0.149 HD
BRANCH  23  25
ATOM     25  C   UNL     1       1.720   3.244   0.350  0.00  0.00    +0.140 C 
BRANCH  25  26
ATOM     26  C   UNL     1       1.738   1.738   0.400  0.00  0.00    -0.027 A 
ATOM     27  C   UNL     1       2.943   1.066   0.488  0.00  0.00    +0.009 A 
ATOM     28  C   UNL     1       2.965  -0.316   0.533  0.00  0.00    +0.050 A 
ATOM     29  C   UNL     1       1.779  -1.030   0.492  0.00  0.00    +0.166 A 
ATOM     30  C   UNL     1       0.565  -0.352   0.405  0.00  0.00    +0.167 A 
ATOM     31  C   UNL     1       0.551   1.032   0.359  0.00  0.00    +0.054 A 
ATOM     32  O   UNL     1      -0.446  -1.270   0.379  0.00  0.00    -0.453 OA
ATOM     33  C   UNL     1       0.180  -2.522   0.040  0.00  0.00    +0.466 C 
ATOM     34  O   UNL     1       1.529  -2.372   0.521  0.00  0.00    -0.453 OA
ENDBRANCH  25  26
ENDBRANCH  23  25
ENDBRANCH  20  21
ENDBRANCH   4  19
TORSDOF 7
