REMARK  Name = ZINC39689679
REMARK  8 active torsions:
REMARK  status: ('A' for Active; 'I' for Inactive)
REMARK    1  A    between atoms: C_1  and  C_2
REMARK    2  A    between atoms: C_2  and  O_3
REMARK    3  A    between atoms: O_3  and  C_4
REMARK    4  A    between atoms: C_9  and  C_10
REMARK    5  A    between atoms: C_14  and  C_23
REMARK    6  A    between atoms: N_25  and  C_26
REMARK    7  A    between atoms: C_26  and  C_27
REMARK    8  A    between atoms: N_31  and  C_33
REMARK                            x       y       z     vdW  Elec       q    Type
REMARK                         _______ _______ _______ _____ _____    ______ ____
ROOT
ATOM      1  C   UNL     1       2.216  -1.214   3.525  0.00  0.00    +0.250 C 
ATOM      2  O   UNL     1       2.274  -0.003   3.433  0.00  0.00    -0.270 OA
ATOM      3  N   UNL     1       2.711  -1.831   4.617  0.00  0.00    -0.296 N 
ATOM      4  C   UNL     1       2.828  -3.288   4.861  0.00  0.00    +0.121 C 
ATOM      5  C   UNL     1       4.189  -3.455   5.574  0.00  0.00    +0.100 C 
ATOM      6  C   UNL     1       4.466  -2.086   6.218  0.00  0.00    -0.004 C 
ATOM      7  C   UNL     1       3.266  -1.205   5.841  0.00  0.00    +0.115 C 
ATOM      8  C   UNL     1       5.751  -1.488   5.654  0.00  0.00    -0.010 C 
ATOM      9  C   UNL     1       6.035  -0.154   6.350  0.00  0.00    -0.082 C 
ATOM     10  N   UNL     1       6.167  -0.373   7.795  0.00  0.00    +0.379 N 
ATOM     11  C   UNL     1       4.898  -0.862   8.346  0.00  0.00    -0.082 C 
ATOM     12  C   UNL     1       4.565  -2.225   7.734  0.00  0.00    -0.010 C 
ATOM     13  H   UNL     1       6.891  -1.055   7.966  0.00  0.00    -0.086 HD
ATOM     14  H   UNL     1       6.415   0.496   8.245  0.00  0.00    -0.086 HD
ENDROOT
BRANCH   1  20
ATOM     15  C   UNL     1       1.726  -1.593   1.110  0.00  0.00    +0.133 A 
ATOM     16  C   UNL     1       1.152  -2.350   0.099  0.00  0.00    +0.046 A 
ATOM     17  C   UNL     1       0.458  -3.503   0.408  0.00  0.00    +0.004 A 
ATOM     18  C   UNL     1       0.329  -3.913   1.725  0.00  0.00    +0.001 A 
ATOM     19  C   UNL     1       0.894  -3.173   2.741  0.00  0.00    +0.017 A 
ATOM     20  C   UNL     1       1.604  -2.007   2.443  0.00  0.00    +0.078 A 
BRANCH  15  21
ATOM     21  O   UNL     1       2.409  -0.460   0.808  0.00  0.00    -0.491 OA
BRANCH  21  23
ATOM     22  C   UNL     1       3.292   1.195  -0.715  0.00  0.00    +0.048 C 
ATOM     23  C   UNL     1       2.491  -0.101  -0.573  0.00  0.00    +0.226 C 
ENDBRANCH  21  23
ENDBRANCH  15  21
ENDBRANCH   1  20
BRANCH   5  24
ATOM     24  C   UNL     1       5.265  -3.796   4.576  0.00  0.00    +0.218 C 
ATOM     25  O   UNL     1       5.184  -3.393   3.435  0.00  0.00    -0.275 OA
ATOM     26  N   UNL     1       6.319  -4.548   4.952  0.00  0.00    -0.315 N 
ATOM     27  H   UNL     1       6.383  -4.871   5.864  0.00  0.00    +0.149 HD
BRANCH  26  28
ATOM     28  C   UNL     1       7.365  -4.880   3.981  0.00  0.00    +0.105 C 
BRANCH  28  29
ATOM     29  C   UNL     1       8.436  -5.737   4.659  0.00  0.00    -0.012 C 
ATOM     30  C   UNL     1       7.879  -7.137   5.004  0.00  0.00    -0.016 C 
ATOM     31  C   UNL     1       9.027  -8.115   4.690  0.00  0.00    -0.079 C 
ATOM     32  N   UNL     1      10.173  -7.303   4.226  0.00  0.00    +0.378 N 
ATOM     33  C   UNL     1       9.591  -6.051   3.675  0.00  0.00    -0.074 C 
ATOM     34  C   UNL     1      10.912  -8.023   3.180  0.00  0.00    -0.096 C 
ATOM     35  H   UNL     1      10.784  -7.089   5.000  0.00  0.00    -0.082 HD
ENDBRANCH  28  29
ENDBRANCH  26  28
ENDBRANCH   5  24
TORSDOF 6
