REMARK  Name = ZINC48952818
REMARK  7 active torsions:
REMARK  status: ('A' for Active; 'I' for Inactive)
REMARK    1  A    between atoms: C_1  and  C_2
REMARK    2  A    between atoms: C_5  and  S_9
REMARK    3  A    between atoms: C_7  and  N_8
REMARK    4  A    between atoms: S_9  and  N_12
REMARK    5  A    between atoms: N_12  and  C_13
REMARK    6  A    between atoms: N_12  and  C_19
REMARK    7  A    between atoms: C_13  and  C_14
REMARK                            x       y       z     vdW  Elec       q    Type
REMARK                         _______ _______ _______ _____ _____    ______ ____
ROOT
ATOM      1  S   UNL     1       0.206  -4.188  -0.193  0.00  0.00    +0.061 S 
ATOM      2  O   UNL     1      -0.554  -4.483   0.971  0.00  0.00    -0.153 OA
ATOM      3  O   UNL     1      -0.270  -4.461  -1.504  0.00  0.00    -0.153 OA
ENDROOT
BRANCH   1   8
ATOM      4  C   UNL     1       1.433   1.722  -0.015  0.00  0.00    +0.045 C 
ATOM      5  C   UNL     1       1.127   0.247  -0.057  0.00  0.00    -0.030 A 
ATOM      6  C   UNL     1       1.123  -0.424  -1.265  0.00  0.00    +0.007 A 
ATOM      7  C   UNL     1       0.841  -1.777  -1.305  0.00  0.00    +0.029 A 
ATOM      8  C   UNL     1       0.564  -2.464  -0.137  0.00  0.00    +0.107 A 
ATOM      9  C   UNL     1       0.568  -1.800   1.074  0.00  0.00    +0.051 A 
ATOM     10  C   UNL     1       0.855  -0.441   1.118  0.00  0.00    +0.029 A 
BRANCH  10  11
ATOM     11  N   UNL     1       0.864   0.233   2.342  0.00  0.00    -0.358 N 
ATOM     12  H   UNL     1       1.061   1.182   2.371  0.00  0.00    +0.142 HD
ATOM     13  H   UNL     1       0.674  -0.248   3.162  0.00  0.00    +0.142 HD
ENDBRANCH  10  11
ENDBRANCH   1   8
BRANCH   1  14
ATOM     14  N   UNL     1       1.645  -4.992  -0.035  0.00  0.00    -0.169 NA
BRANCH  14  15
ATOM     15  C   UNL     1       2.426  -5.337  -1.226  0.00  0.00    +0.080 C 
ATOM     16  C   UNL     1       3.718  -6.129  -1.018  0.00  0.00    +0.022 C 
ATOM     17  C   UNL     1       3.781  -4.650  -1.405  0.00  0.00    +0.022 C 
ENDBRANCH  14  15
BRANCH  14  18
ATOM     18  C   UNL     1       2.136  -5.360   1.295  0.00  0.00    +0.145 C 
BRANCH  18  19
ATOM     19  C   UNL     1       1.704  -6.766   1.620  0.00  0.00    -0.025 A 
ATOM     20  C   UNL     1       0.451  -7.010   2.150  0.00  0.00    +0.012 A 
ATOM     21  C   UNL     1       0.093  -8.287   2.431  0.00  0.00    +0.045 A 
ATOM     22  S   UNL     1       1.550  -9.195   1.942  0.00  0.00    -0.105 S 
ATOM     23  C   UNL     1       2.535  -7.812   1.391  0.00  0.00    +0.050 A 
ENDBRANCH  18  19
ENDBRANCH  14  18
ENDBRANCH   1  14
TORSDOF 6
