REMARK  Name = ZINC36850435
REMARK  9 active torsions:
REMARK  status: ('A' for Active; 'I' for Inactive)
REMARK    1  A    between atoms: C_1  and  O_2
REMARK    2  A    between atoms: O_2  and  C_3
REMARK    3  A    between atoms: C_6  and  C_13
REMARK    4  A    between atoms: C_7  and  O_11
REMARK    5  A    between atoms: C_8  and  O_9
REMARK    6  A    between atoms: O_9  and  C_10
REMARK    7  A    between atoms: O_11  and  C_12
REMARK    8  A    between atoms: C_13  and  C_15
REMARK    9  A    between atoms: C_13  and  N_22
REMARK                            x       y       z     vdW  Elec       q    Type
REMARK                         _______ _______ _______ _____ _____    ______ ____
ROOT
ATOM      1  C   UNL     1       0.280  -0.585  -1.223  0.00  0.00    +0.165 A 
ATOM      2  C   UNL     1       0.740   0.164  -2.296  0.00  0.00    +0.050 A 
ATOM      3  C   UNL     1       1.448  -0.447  -3.314  0.00  0.00    +0.009 A 
ATOM      4  C   UNL     1       1.700  -1.805  -3.267  0.00  0.00    -0.012 A 
ATOM      5  C   UNL     1       1.244  -2.561  -2.198  0.00  0.00    +0.167 A 
ATOM      6  C   UNL     1       0.537  -1.949  -1.169  0.00  0.00    +0.204 A 
ENDROOT
BRANCH   1   8
ATOM      7  C   UNL     1      -0.644   1.423  -0.343  0.00  0.00    +0.277 C 
ATOM      8  O   UNL     1      -0.417   0.017  -0.222  0.00  0.00    -0.491 OA
ENDBRANCH   1   8
BRANCH   6   9
ATOM      9  O   UNL     1       0.092  -2.687  -0.115  0.00  0.00    -0.488 OA
ATOM     10  C   UNL     1      -1.209  -3.267  -0.233  0.00  0.00    +0.277 C 
ENDBRANCH   6   9
BRANCH   5  11
ATOM     11  O   UNL     1       1.492  -3.897  -2.154  0.00  0.00    -0.491 OA
ATOM     12  C   UNL     1       2.634  -4.321  -1.407  0.00  0.00    +0.277 C 
ENDBRANCH   5  11
BRANCH   4  13
ATOM     13  C   UNL     1       2.472  -2.466  -4.380  0.00  0.00    -0.008 C 
BRANCH  13  14
ATOM     14  C   UNL     1       3.189  -1.414  -5.188  0.00  0.00    -0.035 A 
ATOM     15  C   UNL     1       2.612  -0.893  -6.331  0.00  0.00    +0.026 A 
ATOM     16  C   UNL     1       3.284   0.052  -7.034  0.00  0.00    +0.056 A 
ATOM     17  S   UNL     1       4.780   0.232  -6.076  0.00  0.00    -0.074 S 
ATOM     18  C   UNL     1       4.407  -0.960  -4.800  0.00  0.00    +0.058 A 
ATOM     19 BR   UNL     1       5.442  -1.461  -3.299  0.00  0.00    -0.042 Br
ATOM     20 BR   UNL     1       2.771   0.947  -8.619  0.00  0.00    -0.043 Br
ENDBRANCH  13  14
BRANCH  13  21
ATOM     21  N   UNL     1       1.544  -3.202  -5.249  0.00  0.00    +0.385 N 
ATOM     22  H   UNL     1       2.061  -3.644  -5.995  0.00  0.00    -0.089 HD
ATOM     23  H   UNL     1       1.065  -3.906  -4.709  0.00  0.00    -0.089 HD
ATOM     24  H   UNL     1       0.871  -2.562  -5.641  0.00  0.00    -0.089 HD
ENDBRANCH  13  21
ENDBRANCH   4  13
TORSDOF 6
