REMARK  Name = ZINC65188793
REMARK  5 active torsions:
REMARK  status: ('A' for Active; 'I' for Inactive)
REMARK    1  A    between atoms: C_1  and  N_2
REMARK    2  A    between atoms: N_10  and  C_14
REMARK    3  A    between atoms: C_14  and  N_15
REMARK    4  A    between atoms: C_19  and  C_21
REMARK    5  A    between atoms: N_23  and  C_24
REMARK                            x       y       z     vdW  Elec       q    Type
REMARK                         _______ _______ _______ _____ _____    ______ ____
ROOT
ATOM      1  C   UNL     1      -0.018   1.465   0.010  0.00  0.00    -0.096 C 
ATOM      2  N   UNL     1       0.002  -0.004   0.002  0.00  0.00    +0.378 N 
ATOM      3  C   UNL     1      -1.376  -0.510   0.001  0.00  0.00    -0.077 C 
ATOM      4  C   UNL     1      -1.360  -2.038  -0.100  0.00  0.00    +0.017 C 
ATOM      5  C   UNL     1      -0.586  -2.614   1.081  0.00  0.00    +0.109 C 
ATOM      6  C   UNL     1       0.816  -2.015   1.141  0.00  0.00    +0.017 C 
ATOM      7  C   UNL     1       0.712  -0.488   1.192  0.00  0.00    -0.077 C 
ATOM      8  C   UNL     1      -0.515  -4.120   0.984  0.00  0.00    +0.247 C 
ATOM      9  O   UNL     1      -0.004  -4.775   0.101  0.00  0.00    -0.273 OA
ATOM     10  N   UNL     1      -1.139  -4.581   2.088  0.00  0.00    -0.211 N 
ATOM     11  C   UNL     1      -1.587  -3.580   2.856  0.00  0.00    +0.310 C 
ATOM     12  O   UNL     1      -2.183  -3.745   3.902  0.00  0.00    -0.252 OA
ATOM     13  N   UNL     1      -1.305  -2.369   2.337  0.00  0.00    -0.285 N 
ATOM     14  H   UNL     1      -1.531  -1.507   2.719  0.00  0.00    +0.151 HD
ATOM     15  H   UNL     1       0.477  -0.328  -0.827  0.00  0.00    -0.082 HD
ENDROOT
BRANCH  10  16
ATOM     16  C   UNL     1      -1.307  -6.002   2.406  0.00  0.00    +0.205 C 
BRANCH  16  17
ATOM     17  N   UNL     1      -0.159  -6.465   3.198  0.00  0.00    -0.286 NA
ATOM     18  C   UNL     1      -0.313  -6.097   4.611  0.00  0.00    +0.086 C 
ATOM     19  C   UNL     1       0.960  -6.464   5.377  0.00  0.00    +0.016 C 
ATOM     20  C   UNL     1       1.213  -7.969   5.245  0.00  0.00    +0.015 C 
ATOM     21  C   UNL     1       1.321  -8.333   3.762  0.00  0.00    +0.089 C 
ATOM     22  C   UNL     1       0.037  -7.912   3.043  0.00  0.00    +0.098 C 
BRANCH  21  23
ATOM     23  C   UNL     1       1.511  -9.821   3.622  0.00  0.00    +0.218 C 
ATOM     24  O   UNL     1       0.701 -10.480   3.004  0.00  0.00    -0.275 OA
ATOM     25  N   UNL     1       2.580 -10.420   4.182  0.00  0.00    -0.312 N 
ATOM     26  H   UNL     1       3.228  -9.893   4.676  0.00  0.00    +0.149 HD
BRANCH  25  27
ATOM     27  C   UNL     1       2.765 -11.867   4.046  0.00  0.00    +0.073 C 
ATOM     28  C   UNL     1       4.171 -12.372   3.718  0.00  0.00    +0.024 C 
ATOM     29  C   UNL     1       3.592 -12.578   5.119  0.00  0.00    +0.024 C 
ENDBRANCH  25  27
ENDBRANCH  21  23
ENDBRANCH  16  17
ENDBRANCH  10  16
TORSDOF 4
