REMARK  Name = ZINC40755525
REMARK  7 active torsions:
REMARK  status: ('A' for Active; 'I' for Inactive)
REMARK    1  A    between atoms: C_1  and  C_2
REMARK    2  A    between atoms: C_5  and  N_9
REMARK    3  A    between atoms: C_6  and  C_8
REMARK    4  A    between atoms: C_11  and  N_30
REMARK    5  A    between atoms: C_12  and  N_16
REMARK    6  A    between atoms: N_16  and  C_17
REMARK    7  A    between atoms: C_17  and  C_18
REMARK                            x       y       z     vdW  Elec       q    Type
REMARK                         _______ _______ _______ _____ _____    ______ ____
ROOT
ATOM      1  N   UNL     1       0.019  -4.263   0.135  0.00  0.00    -0.299 N 
ATOM      2  C   UNL     1      -0.055  -4.909  -1.094  0.00  0.00    +0.126 A 
ATOM      3  C   UNL     1      -0.162  -6.300  -1.158  0.00  0.00    +0.104 A 
ATOM      4  C   UNL     1      -0.235  -6.898  -2.417  0.00  0.00    +0.153 A 
ATOM      5  N   UNL     1      -0.199  -6.126  -3.501  0.00  0.00    -0.220 NA
ATOM      6  C   UNL     1      -0.098  -4.817  -3.396  0.00  0.00    +0.200 A 
ATOM      7  N   UNL     1      -0.032  -4.212  -2.227  0.00  0.00    -0.333 N 
ATOM      8  H   UNL     1       0.070  -4.781   0.953  0.00  0.00    +0.154 HD
ATOM      9  H   UNL     1       0.038  -3.245  -2.192  0.00  0.00    +0.168 HD
ENDROOT
BRANCH   1  14
ATOM     10  C   UNL     1       0.031   1.404   0.360  0.00  0.00    +0.044 C 
ATOM     11  C   UNL     1       0.028  -0.102   0.300  0.00  0.00    -0.050 A 
ATOM     12  C   UNL     1       1.199  -0.803   0.521  0.00  0.00    +0.005 A 
ATOM     13  C   UNL     1       1.200  -2.183   0.467  0.00  0.00    +0.024 A 
ATOM     14  C   UNL     1       0.022  -2.867   0.191  0.00  0.00    +0.035 A 
ATOM     15  C   UNL     1      -1.152  -2.159  -0.030  0.00  0.00    -0.029 A 
ATOM     16  C   UNL     1      -1.147  -0.779   0.031  0.00  0.00    +0.008 A 
ATOM     17  C   UNL     1      -2.432  -2.896  -0.331  0.00  0.00    +0.045 C 
ENDBRANCH   1  14
BRANCH   4  18
ATOM     18  N   UNL     1      -0.342  -8.280  -2.538  0.00  0.00    -0.264 N 
ATOM     19  C   UNL     1       0.799  -9.052  -2.734  0.00  0.00    +0.127 A 
ATOM     20  C   UNL     1       2.055  -8.460  -2.647  0.00  0.00    +0.044 A 
ATOM     21  C   UNL     1       3.181  -9.239  -2.844  0.00  0.00    +0.005 A 
ATOM     22  C   UNL     1       3.013 -10.589  -3.121  0.00  0.00    +0.020 A 
ATOM     23  C   UNL     1       1.736 -11.110  -3.192  0.00  0.00    +0.113 A 
ATOM     24  N   UNL     1       0.680 -10.344  -2.995  0.00  0.00    -0.240 NA
BRANCH  18  25
ATOM     25  C   UNL     1      -1.656  -8.923  -2.459  0.00  0.00    +0.149 C 
BRANCH  25  26
ATOM     26  C   UNL     1      -2.257  -9.009  -3.838  0.00  0.00    -0.030 A 
ATOM     27  C   UNL     1      -3.042  -7.976  -4.315  0.00  0.00    +0.005 A 
ATOM     28  C   UNL     1      -3.593  -8.054  -5.580  0.00  0.00    +0.000 A 
ATOM     29  C   UNL     1      -3.359  -9.166  -6.368  0.00  0.00    +0.000 A 
ATOM     30  C   UNL     1      -2.574 -10.198  -5.891  0.00  0.00    +0.000 A 
ATOM     31  C   UNL     1      -2.019 -10.118  -4.628  0.00  0.00    +0.005 A 
ENDBRANCH  25  26
ENDBRANCH  18  25
ENDBRANCH   4  18
BRANCH   3  32
ATOM     32  N   UNL     1      -0.196  -7.076   0.012  0.00  0.00    -0.353 N 
ATOM     33  H   UNL     1      -0.221  -6.644   0.880  0.00  0.00    +0.143 HD
ATOM     34  H   UNL     1      -0.194  -8.044  -0.048  0.00  0.00    +0.143 HD
ENDBRANCH   3  32
TORSDOF 5
