REMARK  Name = ZINC36014004
REMARK  13 active torsions:
REMARK  status: ('A' for Active; 'I' for Inactive)
REMARK    1  A    between atoms: C_1  and  C_2
REMARK    2  A    between atoms: C_2  and  N_3
REMARK    3  A    between atoms: C_4  and  C_23
REMARK    4  A    between atoms: C_5  and  C_18
REMARK    5  A    between atoms: C_6  and  C_11
REMARK    6  A    between atoms: C_18  and  O_20
REMARK    7  A    between atoms: O_20  and  C_21
REMARK    8  A    between atoms: C_21  and  C_22
REMARK    9  A    between atoms: C_23  and  N_24
REMARK   10  A    between atoms: N_33  and  C_34
REMARK   11  A    between atoms: C_34  and  C_35
REMARK   12  A    between atoms: C_34  and  C_36
REMARK   13  A    between atoms: C_34  and  C_37
REMARK                            x       y       z     vdW  Elec       q    Type
REMARK                         _______ _______ _______ _____ _____    ______ ____
ROOT
ATOM      1  N   UNL     1       0.660   0.033  -1.689  0.00  0.00    -0.261 N 
ATOM      2  C   UNL     1      -0.233  -0.848  -2.228  0.00  0.00    +0.010 C 
ATOM      3  C   UNL     1       0.187  -1.929  -2.921  0.00  0.00    +0.076 C 
ATOM      4  C   UNL     1       1.681  -2.128  -3.080  0.00  0.00    +0.143 C 
ATOM      5  N   UNL     1       2.558  -1.120  -2.461  0.00  0.00    -0.288 N 
ATOM      6  C   UNL     1       1.988  -0.092  -1.803  0.00  0.00    +0.307 C 
ATOM      7  O   UNL     1       2.704   0.748  -1.292  0.00  0.00    -0.252 OA
ATOM      8  H   UNL     1       3.523  -1.194  -2.528  0.00  0.00    +0.151 HD
ENDROOT
BRANCH   4   9
ATOM      9  C   UNL     1       1.990  -2.169  -4.554  0.00  0.00    -0.022 A 
ATOM     10  C   UNL     1       2.092  -0.992  -5.272  0.00  0.00    +0.007 A 
ATOM     11  C   UNL     1       2.375  -1.029  -6.624  0.00  0.00    +0.020 A 
ATOM     12  C   UNL     1       2.557  -2.245  -7.260  0.00  0.00    +0.041 A 
ATOM     13  C   UNL     1       2.455  -3.423  -6.541  0.00  0.00    +0.020 A 
ATOM     14  C   UNL     1       2.177  -3.384  -5.188  0.00  0.00    +0.007 A 
ATOM     15 CL   UNL     1       2.913  -2.292  -8.958  0.00  0.00    -0.084 Cl
ENDBRANCH   4   9
BRANCH   1  17
ATOM     16  C   UNL     1      -0.084   2.352  -1.912  0.00  0.00    +0.025 C 
ATOM     17  C   UNL     1       0.135   1.184  -0.949  0.00  0.00    +0.111 C 
ENDBRANCH   1  17
BRANCH   3  18
ATOM     18  C   UNL     1      -0.736  -2.843  -3.480  0.00  0.00    +0.339 C 
ATOM     19  O   UNL     1      -1.930  -2.618  -3.416  0.00  0.00    -0.245 OA
BRANCH  18  20
ATOM     20  O   UNL     1      -0.293  -3.965  -4.084  0.00  0.00    -0.462 OA
BRANCH  20  21
ATOM     21  C   UNL     1      -1.281  -4.844  -4.626  0.00  0.00    +0.229 C 
ATOM     22  C   UNL     1      -0.594  -6.052  -5.265  0.00  0.00    +0.048 C 
ENDBRANCH  20  21
ENDBRANCH  18  20
ENDBRANCH   3  18
BRANCH   2  23
ATOM     23  C   UNL     1      -1.710  -0.612  -2.047  0.00  0.00    -0.026 C 
BRANCH  23  24
ATOM     24  N   UNL     1      -2.214  -1.470  -0.966  0.00  0.00    +0.384 N 
ATOM     25  C   UNL     1      -3.674  -1.420  -0.981  0.00  0.00    -0.077 C 
ATOM     26  C   UNL     1      -4.224  -2.727  -0.454  0.00  0.00    +0.000 C 
ATOM     27  C   UNL     1      -4.487  -2.601   1.058  0.00  0.00    +0.107 C 
ATOM     28  N   UNL     1      -3.412  -1.835   1.721  0.00  0.00    -0.287 N 
ATOM     29  C   UNL     1      -2.014  -2.016   1.392  0.00  0.00    +0.091 C 
ATOM     30  C   UNL     1      -1.616  -1.058   0.246  0.00  0.00    -0.059 C 
ATOM     31  C   UNL     1      -3.745  -0.935   2.667  0.00  0.00    +0.303 C 
ATOM     32  O   UNL     1      -4.902  -0.830   3.027  0.00  0.00    -0.253 OA
ATOM     33  N   UNL     1      -2.796  -0.150   3.215  0.00  0.00    -0.294 N 
ATOM     34  H   UNL     1      -1.887  -0.182   2.878  0.00  0.00    +0.151 HD
ATOM     35  H   UNL     1      -1.928  -2.419  -1.155  0.00  0.00    -0.081 HD
BRANCH  33  36
ATOM     36  C   UNL     1      -3.137   0.750   4.319  0.00  0.00    +0.028 C 
ATOM     37  C   UNL     1      -3.667  -0.068   5.499  0.00  0.00    +0.031 C 
ATOM     38  C   UNL     1      -1.889   1.521   4.753  0.00  0.00    +0.031 C 
ATOM     39  C   UNL     1      -4.212   1.737   3.860  0.00  0.00    +0.031 C 
ENDBRANCH  33  36
ENDBRANCH  23  24
ENDBRANCH   2  23
TORSDOF 8
