REMARK  Name = ZINC42562561
REMARK  9 active torsions:
REMARK  status: ('A' for Active; 'I' for Inactive)
REMARK    1  A    between atoms: C_1  and  C_2
REMARK    2  A    between atoms: C_2  and  C_3
REMARK    3  A    between atoms: C_2  and  N_4
REMARK    4  A    between atoms: N_4  and  C_5
REMARK    5  A    between atoms: N_4  and  C_9
REMARK    6  A    between atoms: C_5  and  C_6
REMARK    7  A    between atoms: C_9  and  C_10
REMARK    8  A    between atoms: N_12  and  C_13
REMARK    9  A    between atoms: C_16  and  N_20
REMARK                            x       y       z     vdW  Elec       q    Type
REMARK                         _______ _______ _______ _____ _____    ______ ____
ROOT
ATOM      1  C   UNL     1      -3.616   1.688  -0.608  0.00  0.00    +0.201 C 
ATOM      2  O   UNL     1      -3.527   2.128   0.519  0.00  0.00    -0.278 OA
ATOM      3  N   UNL     1      -3.862   2.522  -1.638  0.00  0.00    -0.285 N 
ATOM      4  H   UNL     1      -3.974   2.166  -2.534  0.00  0.00    +0.155 HD
ENDROOT
BRANCH   3   5
ATOM      5  C   UNL     1      -3.958   3.903  -1.415  0.00  0.00    +0.070 A 
ATOM      6  C   UNL     1      -2.909   4.584  -0.811  0.00  0.00    +0.065 A 
ATOM      7  C   UNL     1      -3.004   5.945  -0.592  0.00  0.00    +0.044 A 
ATOM      8  C   UNL     1      -4.148   6.632  -0.976  0.00  0.00    +0.027 A 
ATOM      9  C   UNL     1      -5.197   5.952  -1.579  0.00  0.00    +0.044 A 
ATOM     10  C   UNL     1      -5.100   4.592  -1.804  0.00  0.00    +0.065 A 
ATOM     11 CL   UNL     1      -6.409   3.743  -2.566  0.00  0.00    -0.082 Cl
ATOM     12 CL   UNL     1      -1.479   3.725  -0.331  0.00  0.00    -0.082 Cl
BRANCH   8  13
ATOM     13  N   UNL     1      -4.243   8.010  -0.753  0.00  0.00    -0.358 N 
ATOM     14  H   UNL     1      -3.511   8.485  -0.332  0.00  0.00    +0.142 HD
ATOM     15  H   UNL     1      -5.043   8.490  -1.022  0.00  0.00    +0.142 HD
ENDBRANCH   8  13
ENDBRANCH   3   5
BRANCH   1  16
ATOM     16  C   UNL     1      -3.450   0.211  -0.856  0.00  0.00    +0.019 C 
BRANCH  16  17
ATOM     17  N   UNL     1      -3.148  -0.468   0.411  0.00  0.00    +0.387 N 
ATOM     18  H   UNL     1      -3.852  -0.231   1.095  0.00  0.00    -0.081 HD
BRANCH  17  20
ATOM     19  C   UNL     1      -1.590  -0.606   2.296  0.00  0.00    -0.014 C 
ATOM     20  C   UNL     1      -1.830  -0.037   0.895  0.00  0.00    -0.074 C 
ATOM     21  C   UNL     1      -0.746  -0.548  -0.055  0.00  0.00    -0.014 C 
ENDBRANCH  17  20
BRANCH  17  22
ATOM     22  C   UNL     1      -3.141  -1.921   0.198  0.00  0.00    -0.074 C 
BRANCH  22  23
ATOM     23  C   UNL     1      -3.081  -2.634   1.551  0.00  0.00    -0.028 C 
ATOM     24  C   UNL     1      -1.855  -3.505   1.836  0.00  0.00    +0.002 C 
ATOM     25  C   UNL     1      -3.209  -4.159   1.552  0.00  0.00    +0.002 C 
ENDBRANCH  22  23
ENDBRANCH  17  22
ENDBRANCH  16  17
ENDBRANCH   1  16
TORSDOF 7
