REMARK  Name = ZINC01122781
REMARK  8 active torsions:
REMARK  status: ('A' for Active; 'I' for Inactive)
REMARK    1  A    between atoms: C_1  and  C_2
REMARK    2  A    between atoms: C_2  and  O_3
REMARK    3  A    between atoms: O_3  and  C_4
REMARK    4  A    between atoms: C_10  and  C_27
REMARK    5  A    between atoms: N_16  and  C_17
REMARK    6  A    between atoms: C_17  and  N_19
REMARK    7  A    between atoms: N_19  and  C_20
REMARK    8  A    between atoms: C_24  and  C_26
REMARK                            x       y       z     vdW  Elec       q    Type
REMARK                         _______ _______ _______ _____ _____    ______ ____
ROOT
ATOM      1  C   UNL     1       9.047   9.008  -1.237  0.00  0.00    +0.121 A 
ATOM      2  C   UNL     1       8.611   7.684  -1.139  0.00  0.00    +0.048 A 
ATOM      3  C   UNL     1       7.293   7.390  -0.962  0.00  0.00    +0.032 A 
ATOM      4  C   UNL     1       6.355   8.430  -0.877  0.00  0.00    +0.077 A 
ATOM      5  C   UNL     1       6.797   9.775  -0.976  0.00  0.00    +0.025 A 
ATOM      6  C   UNL     1       8.160  10.046  -1.158  0.00  0.00    +0.057 A 
ATOM      7  C   UNL     1       5.838  10.801  -0.888  0.00  0.00    +0.051 A 
ATOM      8  N   UNL     1       4.575  10.468  -0.723  0.00  0.00    -0.217 NA
ATOM      9  C   UNL     1       4.197   9.195  -0.629  0.00  0.00    +0.231 A 
ATOM     10  N   UNL     1       5.049   8.193  -0.704  0.00  0.00    -0.212 NA
ATOM     11  N   UNL     1       2.850   8.913  -0.450  0.00  0.00    -0.298 N 
ATOM     12  C   UNL     1       2.443   7.617  -0.219  0.00  0.00    +0.172 C 
ATOM     13  N   UNL     1       3.381   6.622  -0.030  0.00  0.00    -0.269 N 
ATOM     14  C   UNL     1       6.247  12.248  -0.987  0.00  0.00    +0.066 C 
ATOM     15  H   UNL     1       2.195   9.627  -0.487  0.00  0.00    +0.171 HD
ATOM     16  H   UNL     1       0.439   7.970  -0.231  0.00  0.00    +0.158 HD
ATOM     17  H   UNL     1       4.321   6.850   0.043  0.00  0.00    +0.157 HD
ATOM     18  N   UNL     1       1.169   7.260  -0.172  0.00  0.00    -0.373 N 
ATOM     19  H   UNL     1       0.917   6.270  -0.076  0.00  0.00    +0.158 HD
ENDROOT
BRANCH  13  20
ATOM     20  C   UNL     1       2.991   5.335   0.054  0.00  0.00    +0.141 C 
ATOM     21  S   UNL     1       1.331   4.933  -0.075  0.00  0.00    -0.018 S 
BRANCH  20  22
ATOM     22  N   UNL     1       3.907   4.364   0.238  0.00  0.00    -0.297 N 
ATOM     23  H   UNL     1       4.836   4.596   0.391  0.00  0.00    +0.154 HD
BRANCH  22  24
ATOM     24  C   UNL     1       3.517   3.020   0.209  0.00  0.00    +0.033 A 
ATOM     25  C   UNL     1       2.601   2.581  -0.738  0.00  0.00    +0.023 A 
ATOM     26  C   UNL     1       2.219   1.255  -0.764  0.00  0.00    +0.002 A 
ATOM     27  C   UNL     1       2.748   0.363   0.152  0.00  0.00    +0.003 A 
ATOM     28  C   UNL     1       3.655   0.798   1.100  0.00  0.00    -0.049 A 
ATOM     29  C   UNL     1       4.046   2.123   1.128  0.00  0.00    +0.026 A 
ATOM     30  C   UNL     1       4.224  -0.175   2.100  0.00  0.00    +0.044 C 
ENDBRANCH  22  24
ENDBRANCH  20  22
ENDBRANCH  13  20
BRANCH   1  31
ATOM     31  O   UNL     1      10.370   9.268  -1.413  0.00  0.00    -0.492 OA
BRANCH  31  33
ATOM     32  C   UNL     1      12.684   8.629  -1.685  0.00  0.00    +0.048 C 
ATOM     33  C   UNL     1      11.247   8.143  -1.488  0.00  0.00    +0.225 C 
ENDBRANCH  31  33
ENDBRANCH   1  31
TORSDOF 5
