REMARK  Name = ZINC67625047
REMARK  8 active torsions:
REMARK  status: ('A' for Active; 'I' for Inactive)
REMARK    1  A    between atoms: C_1  and  N_2
REMARK    2  A    between atoms: C_3  and  C_5
REMARK    3  A    between atoms: C_9  and  C_11
REMARK    4  A    between atoms: C_11  and  N_12
REMARK    5  A    between atoms: N_15  and  C_16
REMARK    6  A    between atoms: C_16  and  C_17
REMARK    7  A    between atoms: C_17  and  C_19
REMARK    8  A    between atoms: C_17  and  O_29
REMARK                            x       y       z     vdW  Elec       q    Type
REMARK                         _______ _______ _______ _____ _____    ______ ____
ROOT
ATOM      1  N   UNL     1      -4.011  -5.304   1.379  0.00  0.00    -0.295 N 
ATOM      2  C   UNL     1      -5.146  -5.988   1.626  0.00  0.00    +0.300 C 
ATOM      3  O   UNL     1      -5.827  -6.390   0.703  0.00  0.00    -0.253 OA
ATOM      4  N   UNL     1      -5.525  -6.227   2.897  0.00  0.00    -0.297 N 
ATOM      5  H   UNL     1      -3.468  -4.984   2.116  0.00  0.00    +0.151 HD
ATOM      6  H   UNL     1      -4.982  -5.906   3.634  0.00  0.00    +0.150 HD
ENDROOT
BRANCH   1   7
ATOM      7  C   UNL     1      -3.599  -5.045  -0.003  0.00  0.00    +0.141 C 
BRANCH   7  12
ATOM      8  C   UNL     1      -1.136  -2.172   0.001  0.00  0.00    +0.037 A 
ATOM      9  C   UNL     1       0.081  -2.857  -0.008  0.00  0.00    +0.013 A 
ATOM     10  C   UNL     1       0.092  -4.236  -0.015  0.00  0.00    +0.001 A 
ATOM     11  C   UNL     1      -1.098  -4.941  -0.013  0.00  0.00    +0.005 A 
ATOM     12  C   UNL     1      -2.307  -4.269  -0.004  0.00  0.00    -0.030 A 
ATOM     13  C   UNL     1      -2.333  -2.889   0.009  0.00  0.00    +0.018 A 
BRANCH   8  16
ATOM     14  C   UNL     1      -0.018   1.461   0.010  0.00  0.00    +0.128 C 
ATOM     15  N   UNL     1       0.002  -0.004   0.002  0.00  0.00    -0.314 N 
ATOM     16  C   UNL     1      -1.156  -0.694   0.009  0.00  0.00    +0.244 C 
ATOM     17  O   UNL     1      -2.217  -0.100   0.023  0.00  0.00    -0.270 OA
ATOM     18  H   UNL     1       0.849  -0.478  -0.009  0.00  0.00    +0.149 HD
ENDBRANCH   8  16
ENDBRANCH   7  12
ENDBRANCH   1   7
BRANCH   4  19
ATOM     19  C   UNL     1      -6.759  -6.970   3.166  0.00  0.00    +0.141 C 
BRANCH  19  20
ATOM     20  C   UNL     1      -6.956  -7.101   4.678  0.00  0.00    +0.162 C 
BRANCH  20  21
ATOM     21  C   UNL     1      -8.156  -7.969   4.955  0.00  0.00    -0.017 A 
ATOM     22  C   UNL     1      -9.435  -7.423   4.861  0.00  0.00    +0.007 A 
ATOM     23  C   UNL     1     -10.540  -8.179   5.104  0.00  0.00    +0.009 A 
ATOM     24  C   UNL     1     -10.393  -9.532   5.456  0.00  0.00    -0.018 A 
ATOM     25  C   UNL     1     -11.510 -10.344   5.715  0.00  0.00    +0.008 A 
ATOM     26  C   UNL     1     -11.330 -11.650   6.052  0.00  0.00    +0.001 A 
ATOM     27  C   UNL     1     -10.051 -12.197   6.146  0.00  0.00    +0.001 A 
ATOM     28  C   UNL     1      -8.946 -11.440   5.902  0.00  0.00    +0.008 A 
ATOM     29  C   UNL     1      -9.093 -10.088   5.551  0.00  0.00    -0.018 A 
ATOM     30  C   UNL     1      -7.976  -9.277   5.287  0.00  0.00    +0.014 A 
ENDBRANCH  20  21
BRANCH  20  31
ATOM     31  O   UNL     1      -7.163  -5.806   5.245  0.00  0.00    -0.386 OA
ATOM     32  H   UNL     1      -7.937  -5.343   4.896  0.00  0.00    +0.210 HD
ENDBRANCH  20  31
ENDBRANCH  19  20
ENDBRANCH   4  19
TORSDOF 7
