REMARK  Name = ZINC43261884
REMARK  8 active torsions:
REMARK  status: ('A' for Active; 'I' for Inactive)
REMARK    1  A    between atoms: C_1  and  C_2
REMARK    2  A    between atoms: C_2  and  C_4
REMARK    3  A    between atoms: C_2  and  N_22
REMARK    4  A    between atoms: C_4  and  C_6
REMARK    5  A    between atoms: C_4  and  N_12
REMARK    6  A    between atoms: N_12  and  C_13
REMARK    7  A    between atoms: N_12  and  C_14
REMARK    8  A    between atoms: C_14  and  C_15
REMARK                            x       y       z     vdW  Elec       q    Type
REMARK                         _______ _______ _______ _____ _____    ______ ____
ROOT
ATOM      1  C   UNL     1       0.742  -0.511   1.242  0.00  0.00    +0.079 C 
ENDROOT
BRANCH   1   2
ATOM      2  C   UNL     1       2.188  -0.092   1.170  0.00  0.00    +0.006 A 
ATOM      3  C   UNL     1       3.268  -0.816   0.786  0.00  0.00    +0.014 A 
ATOM      4  C   UNL     1       4.514  -0.218   0.800  0.00  0.00    +0.023 A 
ATOM      5  C   UNL     1       4.619   1.075   1.196  0.00  0.00    +0.055 A 
ATOM      6  S   UNL     1       2.921   1.488   1.560  0.00  0.00    -0.085 S 
ATOM      7 BR   UNL     1       6.163   2.160   1.322  0.00  0.00    -0.043 Br
ENDBRANCH   1   2
BRANCH   1   9
ATOM      8  C   UNL     1      -0.019   1.526   0.010  0.00  0.00    -0.012 C 
ATOM      9  C   UNL     1       0.002  -0.004   0.002  0.00  0.00    -0.056 C 
BRANCH   9  10
ATOM     10  N   UNL     1       0.690  -0.478  -1.207  0.00  0.00    +0.381 N 
ATOM     11  H   UNL     1       0.703  -1.487  -1.212  0.00  0.00    -0.090 HD
ATOM     12  H   UNL     1       0.202  -0.144  -2.024  0.00  0.00    -0.090 HD
ATOM     13  H   UNL     1       1.636  -0.129  -1.214  0.00  0.00    -0.090 HD
ENDBRANCH   9  10
ENDBRANCH   1   9
BRANCH   1  14
ATOM     14  N   UNL     1       0.126   0.060   2.447  0.00  0.00    -0.291 NA
ATOM     15  C   UNL     1       0.869  -0.330   3.653  0.00  0.00    +0.106 C 
BRANCH  14  16
ATOM     16  C   UNL     1      -1.287  -0.328   2.550  0.00  0.00    +0.180 C 
BRANCH  16  17
ATOM     17  C   UNL     1      -1.946   0.464   3.650  0.00  0.00    +0.230 C 
ATOM     18  O   UNL     1      -1.302   1.273   4.285  0.00  0.00    -0.274 OA
ATOM     19  N   UNL     1      -3.251   0.275   3.928  0.00  0.00    -0.300 N 
ATOM     20  C   UNL     1      -4.144  -0.673   3.244  0.00  0.00    +0.108 C 
ATOM     21  C   UNL     1      -5.543  -0.524   3.879  0.00  0.00    +0.020 C 
ATOM     22  C   UNL     1      -5.494   0.898   4.498  0.00  0.00    +0.020 C 
ATOM     23  C   UNL     1      -4.019   0.978   4.971  0.00  0.00    +0.108 C 
ENDBRANCH  16  17
ENDBRANCH  14  16
ENDBRANCH   1  14
TORSDOF 6
