REMARK  Name = ZINC27062319
REMARK  6 active torsions:
REMARK  status: ('A' for Active; 'I' for Inactive)
REMARK    1  A    between atoms: C_1  and  C_2
REMARK    2  A    between atoms: C_2  and  C_4
REMARK    3  A    between atoms: C_2  and  N_14
REMARK    4  A    between atoms: C_7  and  S_10
REMARK    5  A    between atoms: S_10  and  N_13
REMARK    6  A    between atoms: N_14  and  C_15
REMARK                            x       y       z     vdW  Elec       q    Type
REMARK                         _______ _______ _______ _____ _____    ______ ____
ROOT
ATOM      1  N   UNL     1      -2.249   3.801   5.821  0.00  0.00    -0.342 N 
ATOM      2  H   UNL     1      -1.760   4.729   5.491  0.00  0.00    +0.146 HD
ENDROOT
BRANCH   1   3
ATOM      3  C   UNL     1      -2.046   3.353   7.019  0.00  0.00    +0.081 C 
ATOM      4  C   UNL     1      -1.159   4.087   7.939  0.00  0.00    +0.051 C 
ATOM      5  C   UNL     1      -0.937   3.612   9.225  0.00  0.00    +0.024 C 
ATOM      6  C   UNL     1      -0.083   4.349  10.064  0.00  0.00    -0.003 A 
ATOM      7  C   UNL     1       0.188   3.927  11.377  0.00  0.00    +0.010 A 
ATOM      8  C   UNL     1       1.020   4.664  12.163  0.00  0.00    +0.001 A 
ATOM      9  C   UNL     1       1.608   5.832  11.682  0.00  0.00    +0.002 A 
ATOM     10  C   UNL     1       1.367   6.270  10.416  0.00  0.00    +0.024 A 
ATOM     11  C   UNL     1       0.514   5.537   9.573  0.00  0.00    +0.041 A 
ATOM     12  N   UNL     1       0.266   5.951   8.325  0.00  0.00    -0.281 N 
ATOM     13  C   UNL     1      -0.524   5.277   7.520  0.00  0.00    +0.249 C 
ATOM     14  O   UNL     1      -0.737   5.736   6.263  0.00  0.00    -0.270 OA
ATOM     15  H   UNL     1       0.727   6.876   7.950  0.00  0.00    +0.155 HD
ENDBRANCH   1   3
BRANCH   1  17
ATOM     16  C   UNL     1      -4.294   3.974   4.490  0.00  0.00    +0.033 C 
ATOM     17  C   UNL     1      -3.131   3.072   4.906  0.00  0.00    +0.097 C 
BRANCH  17  18
ATOM     18  C   UNL     1      -2.353   2.659   3.683  0.00  0.00    -0.027 A 
ATOM     19  C   UNL     1      -2.559   1.412   3.122  0.00  0.00    +0.007 A 
ATOM     20  C   UNL     1      -1.846   1.033   2.000  0.00  0.00    +0.029 A 
ATOM     21  C   UNL     1      -0.927   1.900   1.439  0.00  0.00    +0.105 A 
ATOM     22  C   UNL     1      -0.717   3.145   2.004  0.00  0.00    +0.029 A 
ATOM     23  C   UNL     1      -1.434   3.526   3.123  0.00  0.00    +0.007 A 
BRANCH  21  24
ATOM     24  S   UNL     1      -0.017   1.417   0.010  0.00  0.00    +0.056 S 
ATOM     25  O   UNL     1       0.002  -0.004   0.002  0.00  0.00    -0.153 OA
ATOM     26  O   UNL     1       1.172   2.195   0.003  0.00  0.00    -0.153 OA
BRANCH  24  27
ATOM     27  N   UNL     1      -0.897   1.885  -1.312  0.00  0.00    -0.204 NA
ATOM     28  H   UNL     1      -0.361   1.601  -2.229  0.00  0.00    +0.144 HD
ATOM     29  H   UNL     1      -1.036   2.977  -1.292  0.00  0.00    +0.144 HD
ENDBRANCH  24  27
ENDBRANCH  21  24
ENDBRANCH  17  18
ENDBRANCH   1  17
TORSDOF 5
