REMARK  Name = ZINC66906084
REMARK  9 active torsions:
REMARK  status: ('A' for Active; 'I' for Inactive)
REMARK    1  A    between atoms: C_1  and  C_2
REMARK    2  A    between atoms: C_2  and  C_4
REMARK    3  A    between atoms: C_2  and  O_6
REMARK    4  A    between atoms: O_6  and  C_7
REMARK    5  A    between atoms: C_10  and  C_13
REMARK    6  A    between atoms: C_13  and  N_14
REMARK    7  A    between atoms: N_14  and  C_15
REMARK    8  A    between atoms: C_15  and  C_16
REMARK    9  A    between atoms: C_16  and  O_26
REMARK                            x       y       z     vdW  Elec       q    Type
REMARK                         _______ _______ _______ _____ _____    ______ ____
ROOT
ATOM      1  N   UNL     1      -2.420   0.369  -6.575  0.00  0.00    +0.384 N 
ATOM      2  H   UNL     1      -2.818   1.111  -6.019  0.00  0.00    -0.085 HD
ATOM      3  H   UNL     1      -1.460   0.591  -6.793  0.00  0.00    -0.085 HD
ENDROOT
BRANCH   1   4
ATOM      4  C   UNL     1      -2.474  -0.891  -5.823  0.00  0.00    -0.047 C 
BRANCH   4   8
ATOM      5  C   UNL     1      -0.250  -0.481  -2.196  0.00  0.00    +0.122 A 
ATOM      6  C   UNL     1      -1.602  -0.169  -2.222  0.00  0.00    +0.046 A 
ATOM      7  C   UNL     1      -2.318  -0.302  -3.396  0.00  0.00    +0.005 A 
ATOM      8  C   UNL     1      -1.690  -0.746  -4.544  0.00  0.00    -0.064 A 
ATOM      9  C   UNL     1      -0.343  -1.059  -4.521  0.00  0.00    +0.005 A 
ATOM     10  C   UNL     1       0.379  -0.922  -3.352  0.00  0.00    +0.046 A 
BRANCH   5  11
ATOM     11  O   UNL     1       0.457  -0.351  -1.043  0.00  0.00    -0.475 OA
BRANCH  11  13
ATOM     12  C   UNL     1       2.153  -2.071  -0.983  0.00  0.00    +0.068 C 
ATOM     13  C   UNL     1       1.866  -0.575  -1.118  0.00  0.00    +0.271 C 
BRANCH  13  14
ATOM     14  C   UNL     1       2.537   0.154  -0.028  0.00  0.00    +0.107 C 
ATOM     15  N   UNL     1       3.054   0.716   0.813  0.00  0.00    -0.193 NA
ENDBRANCH  13  14
ENDBRANCH  11  13
ENDBRANCH   5  11
ENDBRANCH   4   8
ENDBRANCH   1   4
BRANCH   1  16
ATOM     16  C   UNL     1      -3.185   0.229  -7.822  0.00  0.00    -0.042 C 
BRANCH  16  17
ATOM     17  C   UNL     1      -3.025   1.496  -8.664  0.00  0.00    +0.076 C 
ATOM     18  C   UNL     1      -3.468   2.705  -7.843  0.00  0.00    +0.038 C 
ATOM     19  C   UNL     1      -3.509   3.928  -8.767  0.00  0.00    +0.008 C 
ATOM     20  C   UNL     1      -4.673   3.758  -9.741  0.00  0.00    +0.035 C 
ATOM     21  C   UNL     1      -4.611   2.410 -10.410  0.00  0.00    -0.042 A 
ATOM     22  C   UNL     1      -3.857   1.370  -9.914  0.00  0.00    -0.015 A 
ATOM     23  C   UNL     1      -3.848   0.150 -10.576  0.00  0.00    +0.006 A 
ATOM     24  C   UNL     1      -4.585  -0.028 -11.729  0.00  0.00    +0.000 A 
ATOM     25  C   UNL     1      -5.339   1.017 -12.229  0.00  0.00    +0.000 A 
ATOM     26  C   UNL     1      -5.350   2.230 -11.571  0.00  0.00    +0.004 A 
BRANCH  17  27
ATOM     27  O   UNL     1      -1.651   1.651  -9.026  0.00  0.00    -0.386 OA
ATOM     28  H   UNL     1      -1.295   0.915  -9.543  0.00  0.00    +0.211 HD
ENDBRANCH  17  27
ENDBRANCH  16  17
ENDBRANCH   1  16
TORSDOF 8
