REMARK  Name = ZINC35034943
REMARK  6 active torsions:
REMARK  status: ('A' for Active; 'I' for Inactive)
REMARK    1  A    between atoms: C_1  and  C_2
REMARK    2  A    between atoms: N_5  and  C_19
REMARK    3  A    between atoms: N_11  and  C_12
REMARK    4  A    between atoms: C_19  and  C_21
REMARK    5  A    between atoms: C_19  and  C_22
REMARK    6  A    between atoms: N_32  and  C_33
REMARK                            x       y       z     vdW  Elec       q    Type
REMARK                         _______ _______ _______ _____ _____    ______ ____
ROOT
ATOM      1  C   UNL     1       2.219   0.729  -0.398  0.00  0.00    +0.026 C 
ATOM      2  C   UNL     1       1.313  -0.503  -0.354  0.00  0.00    +0.058 C 
ATOM      3  C   UNL     1       1.831  -1.559  -1.336  0.00  0.00    -0.055 C 
ATOM      4  N   UNL     1       1.042  -2.789  -1.192  0.00  0.00    +0.388 N 
ATOM      5  C   UNL     1       1.245  -3.360   0.145  0.00  0.00    -0.058 C 
ATOM      6  C   UNL     1       0.698  -2.393   1.201  0.00  0.00    +0.091 C 
ATOM      7  N   UNL     1       1.323  -1.076   1.001  0.00  0.00    -0.286 N 
ATOM      8  C   UNL     1       1.893  -0.415   2.028  0.00  0.00    +0.307 C 
ATOM      9  O   UNL     1       2.348   0.699   1.857  0.00  0.00    -0.252 OA
ATOM     10  N   UNL     1       1.959  -0.990   3.245  0.00  0.00    -0.269 N 
ATOM     11  H   UNL     1       1.567  -1.865   3.390  0.00  0.00    +0.156 HD
ATOM     12  H   UNL     1       0.064  -2.577  -1.321  0.00  0.00    -0.081 HD
ENDROOT
BRANCH  10  13
ATOM     13  C   UNL     1       2.594  -0.325   4.300  0.00  0.00    +0.036 A 
ATOM     14  C   UNL     1       2.522   1.059   4.394  0.00  0.00    +0.023 A 
ATOM     15  C   UNL     1       3.149   1.713   5.436  0.00  0.00    +0.003 A 
ATOM     16  C   UNL     1       3.849   0.992   6.386  0.00  0.00    +0.015 A 
ATOM     17  C   UNL     1       3.924  -0.386   6.295  0.00  0.00    +0.020 A 
ATOM     18  C   UNL     1       3.293  -1.047   5.258  0.00  0.00    +0.038 A 
ATOM     19 BR   UNL     1       4.883  -1.368   7.596  0.00  0.00    -0.050 Br
ENDBRANCH  10  13
BRANCH   4  20
ATOM     20  C   UNL     1       1.466  -3.763  -2.208  0.00  0.00    -0.004 C 
ATOM     21  C   UNL     1       0.600  -5.019  -2.102  0.00  0.00    -0.005 C 
BRANCH  20  22
ATOM     22  C   UNL     1       1.309  -3.158  -3.579  0.00  0.00    +0.099 A 
ATOM     23  N   UNL     1       0.254  -2.439  -3.819  0.00  0.00    -0.235 NA
ATOM     24  C   UNL     1       0.046  -1.864  -5.029  0.00  0.00    +0.079 A 
ATOM     25  C   UNL     1      -1.086  -1.091  -5.289  0.00  0.00    +0.048 A 
ATOM     26  C   UNL     1      -1.252  -0.526  -6.535  0.00  0.00    +0.043 A 
ATOM     27  C   UNL     1      -0.306  -0.719  -7.535  0.00  0.00    +0.021 A 
ATOM     28  C   UNL     1       0.811  -1.472  -7.304  0.00  0.00    +0.017 A 
ATOM     29  C   UNL     1       1.003  -2.053  -6.052  0.00  0.00    +0.065 A 
ATOM     30  C   UNL     1       2.185  -2.872  -5.747  0.00  0.00    +0.262 A 
ATOM     31  O   UNL     1       3.047  -3.074  -6.583  0.00  0.00    -0.267 OA
ATOM     32  N   UNL     1       2.281  -3.388  -4.500  0.00  0.00    -0.301 N 
ATOM     33  C   UNL     1       3.441  -4.208  -4.141  0.00  0.00    +0.153 C 
ATOM     34 CL   UNL     1      -2.660   0.436  -6.861  0.00  0.00    -0.083 Cl
ENDBRANCH  20  22
ENDBRANCH   4  20
TORSDOF 3
