REMARK  Name = ZINC50516346
REMARK  6 active torsions:
REMARK  status: ('A' for Active; 'I' for Inactive)
REMARK    1  A    between atoms: C_3  and  N_20
REMARK    2  A    between atoms: C_4  and  O_9
REMARK    3  A    between atoms: C_6  and  C_7
REMARK    4  A    between atoms: C_7  and  N_8
REMARK    5  A    between atoms: O_9  and  C_10
REMARK    6  A    between atoms: C_17  and  O_19
REMARK                            x       y       z     vdW  Elec       q    Type
REMARK                         _______ _______ _______ _____ _____    ______ ____
ROOT
ATOM      1  C   UNL     1       0.019   1.323  -0.729  0.00  0.00    +0.004 A 
ATOM      2  C   UNL     1       1.173   2.051  -0.499  0.00  0.00    +0.036 A 
ATOM      3  C   UNL     1       2.368   1.399  -0.267  0.00  0.00    +0.168 A 
ATOM      4  C   UNL     1       2.411   0.012  -0.265  0.00  0.00    +0.151 A 
ATOM      5  C   UNL     1       1.253  -0.716  -0.495  0.00  0.00    +0.049 A 
ATOM      6  C   UNL     1       0.060  -0.059  -0.727  0.00  0.00    -0.061 A 
ENDROOT
BRANCH   3   7
ATOM      7  N   UNL     1       3.602   2.179  -0.022  0.00  0.00    +0.060 N 
ATOM      8  O   UNL     1       3.564   3.387  -0.024  0.00  0.00    -0.126 OA
ATOM      9  O   UNL     1       4.647   1.607   0.181  0.00  0.00    -0.126 OA
ENDBRANCH   3   7
BRANCH   6  10
ATOM     10  C   UNL     1      -1.199  -0.849  -0.978  0.00  0.00    -0.050 C 
BRANCH  10  11
ATOM     11  N   UNL     1      -1.340  -1.099  -2.419  0.00  0.00    +0.381 N 
ATOM     12  H   UNL     1      -1.392  -0.220  -2.910  0.00  0.00    -0.090 HD
ATOM     13  H   UNL     1      -0.543  -1.623  -2.749  0.00  0.00    -0.090 HD
ATOM     14  H   UNL     1      -2.183  -1.629  -2.587  0.00  0.00    -0.090 HD
ENDBRANCH  10  11
ENDBRANCH   6  10
BRANCH   4  15
ATOM     15  O   UNL     1       3.586  -0.632  -0.037  0.00  0.00    -0.482 OA
BRANCH  15  16
ATOM     16  C   UNL     1       3.535  -2.056   0.066  0.00  0.00    +0.224 C 
ATOM     17  C   UNL     1       3.576  -2.677  -1.358  0.00  0.00    +0.213 C 
ATOM     18  S   UNL     1       4.134  -4.386  -0.933  0.00  0.00    -0.025 S 
ATOM     19  O   UNL     1       4.953  -4.884  -1.982  0.00  0.00    -0.174 OA
ATOM     20  O   UNL     1       3.017  -5.146  -0.491  0.00  0.00    -0.174 OA
ATOM     21  C   UNL     1       5.192  -3.965   0.514  0.00  0.00    +0.201 C 
ATOM     22  C   UNL     1       4.725  -2.546   0.890  0.00  0.00    +0.177 C 
BRANCH  22  23
ATOM     23  O   UNL     1       5.814  -1.640   0.705  0.00  0.00    -0.386 OA
ATOM     24  H   UNL     1       6.612  -1.879   1.196  0.00  0.00    +0.210 HD
ENDBRANCH  22  23
ENDBRANCH  15  16
ENDBRANCH   4  15
TORSDOF 6
