REMARK  Name = ZINC24754418
REMARK  7 active torsions:
REMARK  status: ('A' for Active; 'I' for Inactive)
REMARK    1  A    between atoms: C_1  and  C_2
REMARK    2  A    between atoms: C_2  and  C_4
REMARK    3  A    between atoms: C_2  and  N_16
REMARK    4  A    between atoms: N_6  and  C_7
REMARK    5  A    between atoms: C_12  and  O_13
REMARK    6  A    between atoms: O_13  and  C_14
REMARK    7  A    between atoms: N_16  and  C_17
REMARK                            x       y       z     vdW  Elec       q    Type
REMARK                         _______ _______ _______ _____ _____    ______ ____
ROOT
ATOM      1  C   UNL     1      -1.427   2.818   1.251  0.00  0.00    -0.004 C 
ATOM      2  C   UNL     1      -1.330   1.943  -0.001  0.00  0.00    +0.014 C 
ENDROOT
BRANCH   2   3
ATOM      3  C   UNL     1      -0.014   1.208   0.001  0.00  0.00    +0.203 C 
ATOM      4  O   UNL     1       0.003  -0.005  -0.002  0.00  0.00    -0.277 OA
ATOM      5  N   UNL     1       1.143   1.898   0.001  0.00  0.00    -0.284 N 
ATOM      6  H   UNL     1       1.129   2.996  -0.070  0.00  0.00    +0.155 HD
BRANCH   5   7
ATOM      7  C   UNL     1       2.365   1.218   0.092  0.00  0.00    +0.077 A 
ATOM      8  C   UNL     1       2.515  -0.025  -0.507  0.00  0.00    +0.047 A 
ATOM      9  C   UNL     1       3.721  -0.694  -0.417  0.00  0.00    +0.043 A 
ATOM     10  C   UNL     1       4.781  -0.128   0.270  0.00  0.00    +0.024 A 
ATOM     11  C   UNL     1       4.638   1.110   0.870  0.00  0.00    +0.049 A 
ATOM     12  C   UNL     1       3.434   1.790   0.778  0.00  0.00    +0.141 A 
ATOM     13 CL   UNL     1       3.908  -2.249  -1.166  0.00  0.00    -0.083 Cl
BRANCH  12  14
ATOM     14  O   UNL     1       3.294   3.010   1.362  0.00  0.00    -0.493 OA
ATOM     15  C   UNL     1       4.432   3.534   2.049  0.00  0.00    +0.277 C 
ENDBRANCH  12  14
ENDBRANCH   5   7
ENDBRANCH   2   3
BRANCH   2  16
ATOM     16  N   UNL     1      -2.433   0.973  -0.007  0.00  0.00    +0.391 N 
ATOM     17  H   UNL     1      -2.145   0.095  -0.604  0.00  0.00    -0.084 HD
ATOM     18  H   UNL     1      -2.652   0.660   1.024  0.00  0.00    -0.084 HD
BRANCH  16  19
ATOM     19  C   UNL     1      -3.647   1.560  -0.589  0.00  0.00    -0.039 C 
ATOM     20  C   UNL     1      -4.901   0.838  -0.053  0.00  0.00    -0.007 C 
ATOM     21  C   UNL     1      -5.847   0.868  -1.272  0.00  0.00    +0.034 C 
ATOM     22  C   UNL     1      -4.936   0.942  -2.479  0.00  0.00    -0.046 A 
ATOM     23  C   UNL     1      -3.672   1.340  -2.086  0.00  0.00    -0.058 A 
ATOM     24  C   UNL     1      -2.668   1.476  -3.030  0.00  0.00    +0.002 A 
ATOM     25  C   UNL     1      -2.926   1.215  -4.362  0.00  0.00    +0.000 A 
ATOM     26  C   UNL     1      -4.190   0.818  -4.755  0.00  0.00    +0.000 A 
ATOM     27  C   UNL     1      -5.193   0.682  -3.815  0.00  0.00    +0.004 A 
ENDBRANCH  16  19
ENDBRANCH   2  16
TORSDOF 5
