REMARK  Name = ZINC15082908
REMARK  8 active torsions:
REMARK  status: ('A' for Active; 'I' for Inactive)
REMARK    1  A    between atoms: C_1  and  N_2
REMARK    2  A    between atoms: C_14  and  C_22
REMARK    3  A    between atoms: C_16  and  C_20
REMARK    4  A    between atoms: C_17  and  N_19
REMARK    5  A    between atoms: C_26  and  O_30
REMARK    6  A    between atoms: C_27  and  O_28
REMARK    7  A    between atoms: O_28  and  C_29
REMARK    8  A    between atoms: O_30  and  C_31
REMARK                            x       y       z     vdW  Elec       q    Type
REMARK                         _______ _______ _______ _____ _____    ______ ____
ROOT
ATOM      1  C   UNL     1       7.186   4.123  -7.075  0.00  0.00    +0.127 C 
ATOM      2  N   UNL     1       7.539   4.144  -5.654  0.00  0.00    -0.326 N 
ATOM      3  C   UNL     1       6.881   3.319  -4.768  0.00  0.00    +0.161 A 
ATOM      4  N   UNL     1       5.917   2.453  -5.012  0.00  0.00    -0.207 NA
ATOM      5  C   UNL     1       5.363   1.712  -4.054  0.00  0.00    +0.154 A 
ATOM      6  C   UNL     1       5.879   1.919  -2.770  0.00  0.00    +0.100 A 
ATOM      7  S   UNL     1       7.115   3.162  -3.054  0.00  0.00    -0.047 S 
ATOM      8  C   UNL     1       5.415   1.229  -1.656  0.00  0.00    +0.157 A 
ATOM      9  C   UNL     1       4.403   0.299  -1.831  0.00  0.00    +0.073 A 
ATOM     10  C   UNL     1       3.888   0.092  -3.112  0.00  0.00    +0.258 A 
ATOM     11  O   UNL     1       2.995  -0.727  -3.269  0.00  0.00    -0.267 OA
ATOM     12  N   UNL     1       4.347   0.768  -4.175  0.00  0.00    -0.306 N 
ATOM     13  H   UNL     1       3.962   0.595  -5.048  0.00  0.00    +0.170 HD
ATOM     14  C   UNL     1       3.863  -0.478  -0.662  0.00  0.00    +0.107 C 
ATOM     15  C   UNL     1       4.811  -0.392   0.501  0.00  0.00    +0.098 C 
ATOM     16  C   UNL     1       5.778   0.554   0.550  0.00  0.00    +0.199 C 
ATOM     17  O   UNL     1       5.939   1.458  -0.432  0.00  0.00    -0.440 OA
ATOM     18  H   UNL     1       8.236   4.739  -5.336  0.00  0.00    +0.148 HD
ENDROOT
BRANCH  14  19
ATOM     19  C   UNL     1       2.526   0.089  -0.260  0.00  0.00    +0.011 A 
ATOM     20  C   UNL     1       1.365  -0.602  -0.554  0.00  0.00    +0.008 A 
ATOM     21  C   UNL     1       0.138  -0.084  -0.186  0.00  0.00    +0.004 A 
ATOM     22  C   UNL     1       0.065   1.127   0.477  0.00  0.00    +0.049 A 
ATOM     23  C   UNL     1       1.224   1.825   0.774  0.00  0.00    +0.162 A 
ATOM     24  C   UNL     1       2.461   1.304   0.404  0.00  0.00    +0.166 A 
BRANCH  24  25
ATOM     25  O   UNL     1       3.602   1.984   0.693  0.00  0.00    -0.491 OA
ATOM     26  C   UNL     1       4.032   1.979   2.056  0.00  0.00    +0.277 C 
ENDBRANCH  24  25
BRANCH  23  27
ATOM     27  O   UNL     1       1.155   3.016   1.426  0.00  0.00    -0.491 OA
ATOM     28  C   UNL     1      -0.147   3.489   1.776  0.00  0.00    +0.277 C 
ENDBRANCH  23  27
ENDBRANCH  14  19
BRANCH  16  29
ATOM     29  N   UNL     1       6.620   0.592   1.633  0.00  0.00    -0.328 N 
ATOM     30  H   UNL     1       6.516  -0.053   2.350  0.00  0.00    +0.145 HD
ATOM     31  H   UNL     1       7.317   1.264   1.683  0.00  0.00    +0.145 HD
ENDBRANCH  16  29
BRANCH  15  32
ATOM     32  C   UNL     1       4.690  -1.329   1.578  0.00  0.00    +0.101 C 
ATOM     33  N   UNL     1       4.593  -2.072   2.432  0.00  0.00    -0.191 NA
ENDBRANCH  15  32
TORSDOF 5
