REMARK  Name = ZINC20831990
REMARK  10 active torsions:
REMARK  status: ('A' for Active; 'I' for Inactive)
REMARK    1  A    between atoms: C_1  and  C_2
REMARK    2  A    between atoms: C_2  and  C_30
REMARK    3  A    between atoms: C_4  and  N_10
REMARK    4  A    between atoms: C_6  and  C_8
REMARK    5  A    between atoms: C_6  and  C_9
REMARK    6  A    between atoms: C_11  and  C_13
REMARK    7  A    between atoms: C_13  and  S_14
REMARK    8  A    between atoms: S_14  and  C_15
REMARK    9  A    between atoms: N_20  and  N_21
REMARK   10  A    between atoms: C_22  and  C_23
REMARK                            x       y       z     vdW  Elec       q    Type
REMARK                         _______ _______ _______ _____ _____    ______ ____
ROOT
ATOM      1  S   UNL     1       5.230  10.900   0.005  0.00  0.00    -0.075 S 
ENDROOT
BRANCH   1   2
ATOM      2  C   UNL     1       4.219   9.457   0.009  0.00  0.00    +0.211 A 
ATOM      3  N   UNL     1       4.663   8.166  -0.001  0.00  0.00    -0.186 NA
ATOM      4  C   UNL     1       3.571   7.343   0.005  0.00  0.00    +0.232 A 
ATOM      5  N   UNL     1       2.498   8.095   0.014  0.00  0.00    -0.245 N 
ATOM      6  N   UNL     1       2.908   9.435   0.021  0.00  0.00    -0.144 NA
ATOM      7  N   UNL     1       3.595   5.956  -0.002  0.00  0.00    -0.205 N 
ATOM      8  H   UNL     1       4.557   5.423  -0.014  0.00  0.00    +0.177 HD
ATOM      9  H   UNL     1       1.501   7.631   0.014  0.00  0.00    +0.192 HD
BRANCH   7  10
ATOM     10  N   UNL     1       2.394   5.234   0.006  0.00  0.00    -0.188 NA
ATOM     11  C   UNL     1       2.417   3.936  -0.001  0.00  0.00    +0.138 C 
BRANCH  11  12
ATOM     12  C   UNL     1       1.153   3.177   0.008  0.00  0.00    -0.004 A 
ATOM     13  C   UNL     1       1.173   1.780   0.000  0.00  0.00    +0.009 A 
ATOM     14  C   UNL     1      -0.013   1.076   0.008  0.00  0.00    +0.002 A 
ATOM     15  C   UNL     1      -1.221   1.750   0.017  0.00  0.00    +0.015 A 
ATOM     16  C   UNL     1      -1.250   3.134   0.030  0.00  0.00    +0.018 A 
ATOM     17  C   UNL     1      -0.070   3.851   0.022  0.00  0.00    +0.024 A 
ATOM     18 BR   UNL     1      -2.907   4.043   0.049  0.00  0.00    -0.050 Br
ENDBRANCH  11  12
ENDBRANCH   7  10
ENDBRANCH   1   2
BRANCH   1  19
ATOM     19  C   UNL     1       4.041  12.270   0.023  0.00  0.00    +0.173 C 
BRANCH  19  21
ATOM     20  N   UNL     1       4.101  14.743   0.033  0.00  0.00    -0.312 N 
ATOM     21  C   UNL     1       4.784  13.581   0.021  0.00  0.00    +0.224 C 
ATOM     22  O   UNL     1       5.997  13.590   0.010  0.00  0.00    -0.275 OA
ATOM     23  H   UNL     1       3.001  14.734   0.044  0.00  0.00    +0.149 HD
BRANCH  20  27
ATOM     24  C   UNL     1       5.706  18.472  -1.672  0.00  0.00    -0.010 C 
ATOM     25  C   UNL     1       4.651  18.451  -0.559  0.00  0.00    -0.072 C 
ATOM     26  C   UNL     1       3.930  17.106  -0.565  0.00  0.00    +0.009 C 
ATOM     27  C   UNL     1       4.825  16.020   0.032  0.00  0.00    +0.070 C 
ATOM     28  C   UNL     1       5.165  16.407   1.470  0.00  0.00    +0.009 C 
ATOM     29  C   UNL     1       5.900  17.745   1.502  0.00  0.00    -0.072 C 
ATOM     30  N   UNL     1       5.238  18.772   0.725  0.00  0.00    +0.386 N 
ATOM     31  C   UNL     1       7.348  17.546   1.037  0.00  0.00    -0.010 C 
ATOM     32  C   UNL     1       5.952  18.213   2.973  0.00  0.00    -0.010 C 
ATOM     33  C   UNL     1       3.608  19.539  -0.899  0.00  0.00    -0.010 C 
ATOM     34  H   UNL     1       6.013  19.542   0.591  0.00  0.00    -0.084 HD
ATOM     35  H   UNL     1       4.457  19.151   1.400  0.00  0.00    -0.084 HD
ENDBRANCH  20  27
ENDBRANCH  19  21
ENDBRANCH   1  19
TORSDOF 6
