REMARK  Name = ZINC59438098
REMARK  8 active torsions:
REMARK  status: ('A' for Active; 'I' for Inactive)
REMARK    1  A    between atoms: C_1  and  C_2
REMARK    2  A    between atoms: C_9  and  C_11
REMARK    3  A    between atoms: C_14  and  N_17
REMARK    4  A    between atoms: N_17  and  C_18
REMARK    5  A    between atoms: C_18  and  N_20
REMARK    6  A    between atoms: C_21  and  C_23
REMARK    7  A    between atoms: C_26  and  O_30
REMARK    8  A    between atoms: O_30  and  C_31
REMARK                            x       y       z     vdW  Elec       q    Type
REMARK                         _______ _______ _______ _____ _____    ______ ____
ROOT
ATOM      1  N   UNL     1       0.158 -10.274   2.434  0.00  0.00    -0.297 N 
ATOM      2  H   UNL     1       0.850 -10.839   2.057  0.00  0.00    +0.154 HD
ENDROOT
BRANCH   1   6
ATOM      3  C   UNL     1       0.115  -6.192   1.595  0.00  0.00    +0.007 A 
ATOM      4  C   UNL     1      -0.146  -6.643   2.891  0.00  0.00    +0.012 A 
ATOM      5  C   UNL     1      -0.132  -7.993   3.165  0.00  0.00    +0.024 A 
ATOM      6  C   UNL     1       0.143  -8.906   2.153  0.00  0.00    +0.033 A 
ATOM      7  C   UNL     1       0.403  -8.460   0.862  0.00  0.00    +0.024 A 
ATOM      8  C   UNL     1       0.384  -7.112   0.580  0.00  0.00    +0.012 A 
BRANCH   3  17
ATOM      9  C   UNL     1       0.021   1.519   0.089  0.00  0.00    +0.044 C 
ATOM     10  C   UNL     1       0.104   0.015   0.077  0.00  0.00    -0.049 A 
ATOM     11  C   UNL     1       0.395  -0.662  -1.099  0.00  0.00    +0.005 A 
ATOM     12  C   UNL     1       0.478  -2.019  -1.141  0.00  0.00    +0.029 A 
ATOM     13  C   UNL     1       0.269  -2.795   0.025  0.00  0.00    +0.079 A 
ATOM     14  C   UNL     1      -0.026  -2.076   1.208  0.00  0.00    +0.040 A 
ATOM     15  C   UNL     1      -0.102  -0.705   1.240  0.00  0.00    +0.020 A 
ATOM     16  S   UNL     1      -0.213  -3.376   2.404  0.00  0.00    -0.067 S 
ATOM     17  C   UNL     1       0.100  -4.745   1.298  0.00  0.00    +0.109 A 
ATOM     18  N   UNL     1       0.314  -4.135   0.152  0.00  0.00    -0.239 NA
ENDBRANCH   3  17
ENDBRANCH   1   6
BRANCH   1  19
ATOM     19  C   UNL     1      -0.790 -10.808   3.229  0.00  0.00    +0.141 C 
ATOM     20  S   UNL     1      -2.091  -9.842   3.779  0.00  0.00    -0.018 S 
BRANCH  19  21
ATOM     21  N   UNL     1      -0.713 -12.104   3.591  0.00  0.00    -0.264 N 
ATOM     22  C   UNL     1      -1.661 -12.639   4.386  0.00  0.00    +0.250 C 
ATOM     23  O   UNL     1      -2.585 -11.953   4.777  0.00  0.00    -0.270 OA
ATOM     24  H   UNL     1       0.024 -12.652   3.279  0.00  0.00    +0.157 HD
BRANCH  22  25
ATOM     25  C   UNL     1      -1.577 -14.058   4.783  0.00  0.00    +0.040 A 
ATOM     26  C   UNL     1      -0.512 -14.847   4.339  0.00  0.00    +0.036 A 
ATOM     27  C   UNL     1      -0.437 -16.172   4.712  0.00  0.00    +0.085 A 
ATOM     28  C   UNL     1      -1.419 -16.724   5.527  0.00  0.00    +0.157 A 
ATOM     29  C   UNL     1      -2.480 -15.941   5.970  0.00  0.00    +0.085 A 
ATOM     30  C   UNL     1      -2.558 -14.614   5.607  0.00  0.00    +0.036 A 
ATOM     31 CL   UNL     1      -3.704 -16.636   6.987  0.00  0.00    -0.080 Cl
ATOM     32 CL   UNL     1       0.885 -17.153   4.161  0.00  0.00    -0.080 Cl
BRANCH  28  33
ATOM     33  O   UNL     1      -1.342 -18.029   5.891  0.00  0.00    -0.492 OA
ATOM     34  C   UNL     1      -0.633 -18.326   7.096  0.00  0.00    +0.277 C 
ENDBRANCH  28  33
ENDBRANCH  22  25
ENDBRANCH  19  21
ENDBRANCH   1  19
TORSDOF 6
