REMARK  Name = ZINC22011026
REMARK  9 active torsions:
REMARK  status: ('A' for Active; 'I' for Inactive)
REMARK    1  A    between atoms: C_1  and  C_2
REMARK    2  A    between atoms: C_2  and  C_4
REMARK    3  A    between atoms: C_2  and  N_18
REMARK    4  A    between atoms: N_10  and  C_11
REMARK    5  A    between atoms: N_18  and  C_19
REMARK    6  A    between atoms: N_18  and  C_20
REMARK    7  A    between atoms: C_20  and  C_21
REMARK    8  A    between atoms: N_23  and  C_24
REMARK    9  A    between atoms: C_29  and  C_30
REMARK                            x       y       z     vdW  Elec       q    Type
REMARK                         _______ _______ _______ _____ _____    ______ ____
ROOT
ATOM      1  C   UNL     1      -7.755   0.476   0.977  0.00  0.00    -0.005 C 
ATOM      2  C   UNL     1      -7.374  -0.634  -0.004  0.00  0.00    -0.002 C 
ENDROOT
BRANCH   2   3
ATOM      3  C   UNL     1      -8.562  -1.532  -0.233  0.00  0.00    +0.123 A 
ATOM      4  N   UNL     1      -8.945  -2.373   0.713  0.00  0.00    -0.201 NA
ATOM      5  C   UNL     1      -9.994  -3.168   0.514  0.00  0.00    +0.217 A 
ATOM      6  N   UNL     1     -10.657  -3.115  -0.636  0.00  0.00    -0.181 NA
ATOM      7  C   UNL     1     -10.269  -2.268  -1.584  0.00  0.00    +0.224 A 
ATOM      8  N   UNL     1      -9.222  -1.473  -1.376  0.00  0.00    -0.201 NA
ATOM      9  N   UNL     1     -10.955  -2.210  -2.782  0.00  0.00    -0.284 N 
ATOM     10  N   UNL     1     -10.393  -4.045   1.502  0.00  0.00    -0.327 N 
ATOM     11  H   UNL     1     -10.692  -1.447  -3.529  0.00  0.00    +0.155 HD
ATOM     12  H   UNL     1     -11.260  -4.702   1.337  0.00  0.00    +0.145 HD
ATOM     13  H   UNL     1      -9.843  -4.089   2.454  0.00  0.00    +0.145 HD
BRANCH   9  14
ATOM     14  C   UNL     1     -11.983  -3.121  -3.044  0.00  0.00    +0.034 A 
ATOM     15  C   UNL     1     -11.904  -4.419  -2.554  0.00  0.00    +0.023 A 
ATOM     16  C   UNL     1     -12.924  -5.315  -2.811  0.00  0.00    +0.002 A 
ATOM     17  C   UNL     1     -14.016  -4.924  -3.564  0.00  0.00    +0.000 A 
ATOM     18  C   UNL     1     -14.094  -3.635  -4.058  0.00  0.00    +0.002 A 
ATOM     19  C   UNL     1     -13.081  -2.732  -3.800  0.00  0.00    +0.023 A 
ENDBRANCH   9  14
ENDBRANCH   2   3
BRANCH   2  20
ATOM     20  N   UNL     1      -6.266  -1.421   0.554  0.00  0.00    +0.390 N 
ATOM     21  C   UNL     1      -5.102  -0.569   0.833  0.00  0.00    -0.095 C 
ATOM     22  H   UNL     1      -6.604  -1.853   1.508  0.00  0.00    -0.081 HD
BRANCH  20  23
ATOM     23  C   UNL     1      -5.905  -2.530  -0.340  0.00  0.00    +0.019 C 
BRANCH  23  24
ATOM     24  C   UNL     1      -4.945  -3.452   0.366  0.00  0.00    +0.201 C 
ATOM     25  O   UNL     1      -4.596  -3.210   1.502  0.00  0.00    -0.278 OA
ATOM     26  N   UNL     1      -4.474  -4.546  -0.265  0.00  0.00    -0.287 N 
ATOM     27  H   UNL     1      -4.720  -4.719  -1.323  0.00  0.00    +0.155 HD
BRANCH  26  28
ATOM     28  C   UNL     1      -3.672  -5.461   0.426  0.00  0.00    +0.045 A 
ATOM     29  C   UNL     1      -3.687  -5.491   1.814  0.00  0.00    +0.024 A 
ATOM     30  C   UNL     1      -2.894  -6.395   2.493  0.00  0.00    +0.002 A 
ATOM     31  C   UNL     1      -2.085  -7.271   1.791  0.00  0.00    +0.001 A 
ATOM     32  C   UNL     1      -2.072  -7.247   0.409  0.00  0.00    +0.014 A 
ATOM     33  C   UNL     1      -2.858  -6.341  -0.276  0.00  0.00    +0.076 A 
BRANCH  33  34
ATOM     34  C   UNL     1      -2.838  -6.312  -1.782  0.00  0.00    +0.419 C 
ATOM     35  F   UNL     1      -1.950  -7.283  -2.256  0.00  0.00    -0.166 F 
ATOM     36  F   UNL     1      -4.122  -6.577  -2.271  0.00  0.00    -0.166 F 
ATOM     37  F   UNL     1      -2.425  -5.049  -2.219  0.00  0.00    -0.166 F 
ENDBRANCH  33  34
ENDBRANCH  26  28
ENDBRANCH  23  24
ENDBRANCH  20  23
ENDBRANCH   2  20
TORSDOF 7
