REMARK  Name = ZINC12240537
REMARK  7 active torsions:
REMARK  status: ('A' for Active; 'I' for Inactive)
REMARK    1  A    between atoms: C_7  and  C_15
REMARK    2  A    between atoms: N_9  and  C_10
REMARK    3  A    between atoms: C_10  and  C_11
REMARK    4  A    between atoms: C_11  and  C_12
REMARK    5  A    between atoms: C_15  and  N_55
REMARK    6  A    between atoms: C_18  and  C_21
REMARK    7  A    between atoms: C_18  and  O_28
REMARK                            x       y       z     vdW  Elec       q    Type
REMARK                         _______ _______ _______ _____ _____    ______ ____
ROOT
ATOM      1  C   UNL     1      -2.545   1.335   0.020  0.00  0.00    -0.041 C 
ENDROOT
BRANCH   1   8
ATOM      2  C   UNL     1      -0.644   5.620   0.038  0.00  0.00    +0.001 A 
ATOM      3  C   UNL     1       0.744   5.595   0.024  0.00  0.00    +0.002 A 
ATOM      4  C   UNL     1       1.426   4.399   0.012  0.00  0.00    +0.026 A 
ATOM      5  C   UNL     1       0.719   3.200   0.012  0.00  0.00    +0.049 A 
ATOM      6  C   UNL     1      -0.687   3.230   0.026  0.00  0.00    +0.001 A 
ATOM      7  C   UNL     1      -1.358   4.455   0.038  0.00  0.00    +0.010 A 
ATOM      8  C   UNL     1      -1.122   1.831   0.017  0.00  0.00    -0.039 A 
ATOM      9  C   UNL     1      -0.013   1.076   0.008  0.00  0.00    +0.088 A 
ATOM     10  N   UNL     1       1.097   1.877   0.002  0.00  0.00    -0.346 N 
BRANCH  10  11
ATOM     11  C   UNL     1       2.481   1.397  -0.014  0.00  0.00    +0.131 C 
BRANCH  11  12
ATOM     12  C   UNL     1       3.018   1.340   1.418  0.00  0.00    +0.117 C 
BRANCH  12  13
ATOM     13  C   UNL     1       4.441   0.846   1.401  0.00  0.00    +0.212 C 
ATOM     14  O   UNL     1       4.974   0.567   0.348  0.00  0.00    -0.276 OA
ATOM     15  N   UNL     1       5.122   0.715   2.557  0.00  0.00    -0.329 N 
ATOM     16  H   UNL     1       4.696   0.938   3.399  0.00  0.00    +0.145 HD
ATOM     17  H   UNL     1       6.039   0.397   2.546  0.00  0.00    +0.145 HD
ENDBRANCH  12  13
ENDBRANCH  11  12
ENDBRANCH  10  11
ENDBRANCH   1   8
BRANCH   1  23
ATOM     18  C   UNL     1      -3.204   2.802  -1.790  0.00  0.00    -0.075 C 
ATOM     19  C   UNL     1      -3.637   2.834  -3.257  0.00  0.00    +0.021 C 
ATOM     20  C   UNL     1      -4.985   2.122  -3.402  0.00  0.00    +0.090 C 
ATOM     21  C   UNL     1      -4.853   0.687  -2.884  0.00  0.00    +0.021 C 
ATOM     22  C   UNL     1      -4.385   0.717  -1.427  0.00  0.00    -0.075 C 
ATOM     23  N   UNL     1      -3.072   1.394  -1.359  0.00  0.00    +0.383 N 
ATOM     24  H   UNL     1      -2.417   0.913  -1.987  0.00  0.00    -0.081 HD
BRANCH  20  25
ATOM     25  C   UNL     1      -5.388   2.098  -4.854  0.00  0.00    +0.019 A 
ATOM     26  C   UNL     1      -6.569   2.694  -5.253  0.00  0.00    +0.009 A 
ATOM     27  C   UNL     1      -6.939   2.673  -6.585  0.00  0.00    +0.001 A 
ATOM     28  C   UNL     1      -6.128   2.055  -7.519  0.00  0.00    +0.003 A 
ATOM     29  C   UNL     1      -4.946   1.459  -7.122  0.00  0.00    +0.039 A 
ATOM     30  C   UNL     1      -4.572   1.484  -5.789  0.00  0.00    +0.129 A 
ATOM     31  F   UNL     1      -3.415   0.906  -5.401  0.00  0.00    -0.205 F 
ENDBRANCH  20  25
BRANCH  20  32
ATOM     32  O   UNL     1      -5.976   2.816  -2.642  0.00  0.00    -0.384 OA
ATOM     33  H   UNL     1      -6.111   3.733  -2.916  0.00  0.00    +0.211 HD
ENDBRANCH  20  32
ENDBRANCH   1  23
TORSDOF 7
