REMARK  Name = ZINC00744157
REMARK  12 active torsions:
REMARK  status: ('A' for Active; 'I' for Inactive)
REMARK    1  A    between atoms: C_1  and  C_2
REMARK    2  A    between atoms: C_2  and  C_37
REMARK    3  A    between atoms: C_7  and  C_11
REMARK    4  A    between atoms: C_11  and  N_12
REMARK    5  A    between atoms: N_12  and  C_13
REMARK    6  A    between atoms: C_13  and  C_14
REMARK    7  A    between atoms: C_14  and  N_78
REMARK    8  A    between atoms: N_22  and  C_23
REMARK    9  A    between atoms: C_23  and  C_24
REMARK   10  A    between atoms: C_23  and  C_25
REMARK   11  A    between atoms: C_23  and  C_26
REMARK   12  A    between atoms: N_29  and  C_30
REMARK                            x       y       z     vdW  Elec       q    Type
REMARK                         _______ _______ _______ _____ _____    ______ ____
ROOT
ATOM      1  N   UNL     1       1.109   1.825  -0.185  0.00  0.00    -0.283 N 
ATOM      2  C   UNL     1      -0.034   1.112  -0.163  0.00  0.00    +0.307 C 
ATOM      3  O   UNL     1      -0.009  -0.085  -0.374  0.00  0.00    -0.252 OA
ATOM      4  N   UNL     1      -1.207   1.727   0.086  0.00  0.00    -0.269 N 
ATOM      5  H   UNL     1      -1.221   2.669   0.318  0.00  0.00    +0.156 HD
ENDROOT
BRANCH   4   6
ATOM      6  C   UNL     1      -2.405   1.008   0.011  0.00  0.00    +0.036 A 
ATOM      7  C   UNL     1      -2.445  -0.321   0.415  0.00  0.00    +0.023 A 
ATOM      8  C   UNL     1      -3.628  -1.029   0.340  0.00  0.00    +0.003 A 
ATOM      9  C   UNL     1      -4.773  -0.417  -0.137  0.00  0.00    +0.020 A 
ATOM     10  C   UNL     1      -4.737   0.906  -0.540  0.00  0.00    +0.043 A 
ATOM     11  C   UNL     1      -3.557   1.621  -0.463  0.00  0.00    +0.043 A 
ATOM     12 CL   UNL     1      -6.176   1.670  -1.139  0.00  0.00    -0.083 Cl
ENDBRANCH   4   6
BRANCH   1  13
ATOM     13  C   UNL     1       1.078   3.267   0.068  0.00  0.00    +0.140 C 
BRANCH  13  19
ATOM     14  C   UNL     1      -1.201   5.017   4.146  0.00  0.00    +0.012 C 
ATOM     15  C   UNL     1       0.099   4.753   3.382  0.00  0.00    -0.025 C 
ATOM     16  C   UNL     1       1.155   3.987   4.196  0.00  0.00    -0.000 C 
ATOM     17  C   UNL     1       2.546   4.022   3.549  0.00  0.00    +0.031 C 
ATOM     18  C   UNL     1       2.422   3.780   2.064  0.00  0.00    -0.025 C 
ATOM     19  C   UNL     1       1.244   3.522   1.544  0.00  0.00    -0.053 C 
ATOM     20  C   UNL     1       0.054   3.495   2.488  0.00  0.00    +0.022 C 
ATOM     21  C   UNL     1       0.387   2.716   3.778  0.00  0.00    +0.012 C 
ATOM     22  C   UNL     1       0.643   5.995   2.674  0.00  0.00    +0.012 C 
ENDBRANCH  13  19
ENDBRANCH   1  13
BRANCH   1  23
ATOM     23  C   UNL     1       2.384   1.157  -0.462  0.00  0.00    +0.091 C 
BRANCH  23  24
ATOM     24  C   UNL     1       2.648   1.168  -1.969  0.00  0.00    -0.059 C 
BRANCH  24  34
ATOM     25  C   UNL     1       5.051   1.255  -1.682  0.00  0.00    -0.059 C 
ATOM     26  C   UNL     1       6.339   0.439  -1.833  0.00  0.00    +0.091 C 
ATOM     27  N   UNL     1       6.490   0.063  -3.247  0.00  0.00    -0.289 N 
ATOM     28  C   UNL     1       5.351  -0.578  -3.922  0.00  0.00    +0.091 C 
ATOM     29  C   UNL     1       4.102   0.279  -3.689  0.00  0.00    -0.059 C 
ATOM     30  C   UNL     1       7.641   0.299  -3.906  0.00  0.00    +0.302 C 
ATOM     31  O   UNL     1       8.603   0.743  -3.309  0.00  0.00    -0.253 OA
ATOM     32  N   UNL     1       7.727   0.044  -5.227  0.00  0.00    -0.295 N 
ATOM     33  H   UNL     1       6.940  -0.240  -5.718  0.00  0.00    +0.151 HD
ATOM     34  N   UNL     1       3.924   0.471  -2.233  0.00  0.00    +0.383 N 
ATOM     35  H   UNL     1       3.903  -0.448  -1.776  0.00  0.00    -0.082 HD
BRANCH  32  36
ATOM     36  C   UNL     1       9.008   0.195  -5.921  0.00  0.00    +0.028 C 
ATOM     37  C   UNL     1      10.041  -0.744  -5.295  0.00  0.00    +0.031 C 
ATOM     38  C   UNL     1       8.831  -0.154  -7.400  0.00  0.00    +0.031 C 
ATOM     39  C   UNL     1       9.489   1.642  -5.793  0.00  0.00    +0.031 C 
ENDBRANCH  32  36
ENDBRANCH  24  34
ENDBRANCH  23  24
ENDBRANCH   1  23
TORSDOF 7
