REMARK  Name = ZINC37261921
REMARK  7 active torsions:
REMARK  status: ('A' for Active; 'I' for Inactive)
REMARK    1  A    between atoms: C_1  and  C_2
REMARK    2  A    between atoms: C_2  and  C_4
REMARK    3  A    between atoms: C_2  and  N_12
REMARK    4  A    between atoms: N_12  and  C_13
REMARK    5  A    between atoms: C_13  and  C_14
REMARK    6  A    between atoms: C_14  and  S_15
REMARK    7  A    between atoms: S_15  and  N_18
REMARK                            x       y       z     vdW  Elec       q    Type
REMARK                         _______ _______ _______ _____ _____    ______ ____
ROOT
ATOM      1  N   UNL     1       0.713  -0.491   1.192  0.00  0.00    +0.384 N 
ATOM      2  H   UNL     1       0.290  -0.099   2.020  0.00  0.00    -0.085 HD
ATOM      3  H   UNL     1       0.655  -1.497   1.230  0.00  0.00    -0.085 HD
ENDROOT
BRANCH   1   5
ATOM      4  C   UNL     1      -0.019   1.526   0.010  0.00  0.00    -0.009 C 
ATOM      5  C   UNL     1       0.002  -0.004   0.002  0.00  0.00    -0.044 C 
BRANCH   5   6
ATOM      6  C   UNL     1      -1.412  -0.526   0.013  0.00  0.00    -0.060 A 
ATOM      7  C   UNL     1      -2.122  -0.571   1.198  0.00  0.00    +0.005 A 
ATOM      8  C   UNL     1      -3.419  -1.048   1.209  0.00  0.00    +0.040 A 
ATOM      9  C   UNL     1      -4.007  -1.482   0.033  0.00  0.00    +0.137 A 
ATOM     10  C   UNL     1      -3.295  -1.437  -1.154  0.00  0.00    +0.053 A 
ATOM     11  C   UNL     1      -1.999  -0.953  -1.163  0.00  0.00    +0.020 A 
ATOM     12 BR   UNL     1      -4.095  -2.029  -2.761  0.00  0.00    -0.047 Br
ATOM     13  F   UNL     1      -5.275  -1.950   0.044  0.00  0.00    -0.204 F 
ENDBRANCH   5   6
ENDBRANCH   1   5
BRANCH   1  14
ATOM     14  C   UNL     1       2.122  -0.083   1.122  0.00  0.00    -0.057 C 
BRANCH  14  15
ATOM     15  C   UNL     1       2.862  -0.589   2.361  0.00  0.00    +0.166 C 
BRANCH  15  16
ATOM     16  S   UNL     1       4.602  -0.085   2.275  0.00  0.00    +0.025 S 
ATOM     17  O   UNL     1       5.258  -0.770   1.217  0.00  0.00    -0.158 OA
ATOM     18  O   UNL     1       4.710   1.326   2.401  0.00  0.00    -0.158 OA
BRANCH  16  19
ATOM     19  N   UNL     1       5.289  -0.687   3.657  0.00  0.00    -0.208 NA
ATOM     20  H   UNL     1       4.748  -1.185   4.290  0.00  0.00    +0.144 HD
ATOM     21  H   UNL     1       6.231  -0.540   3.834  0.00  0.00    +0.144 HD
ENDBRANCH  16  19
ENDBRANCH  15  16
ENDBRANCH  14  15
ENDBRANCH   1  14
TORSDOF 6
