REMARK  Name = ZINC33019057
REMARK  10 active torsions:
REMARK  status: ('A' for Active; 'I' for Inactive)
REMARK    1  A    between atoms: C_1  and  C_2
REMARK    2  A    between atoms: C_5  and  C_34
REMARK    3  A    between atoms: C_6  and  N_8
REMARK    4  A    between atoms: N_11  and  C_12
REMARK    5  A    between atoms: C_19  and  S_21
REMARK    6  A    between atoms: S_21  and  C_22
REMARK    7  A    between atoms: C_22  and  C_23
REMARK    8  A    between atoms: N_25  and  C_26
REMARK    9  A    between atoms: C_30  and  O_32
REMARK   10  A    between atoms: O_32  and  C_33
REMARK                            x       y       z     vdW  Elec       q    Type
REMARK                         _______ _______ _______ _____ _____    ______ ____
ROOT
ATOM      1  C   UNL     1      -0.992   0.565  -0.002  0.00  0.00    +0.036 A 
ATOM      2  C   UNL     1      -0.785  -0.813  -0.020  0.00  0.00    +0.025 A 
ATOM      3  C   UNL     1       0.476  -1.345  -0.050  0.00  0.00    +0.031 A 
ATOM      4  C   UNL     1       1.616  -0.509  -0.064  0.00  0.00    +0.080 A 
ATOM      5  C   UNL     1       1.372   0.883  -0.045  0.00  0.00    +0.042 A 
ATOM      6  C   UNL     1       0.107   1.414  -0.014  0.00  0.00    +0.040 A 
ATOM      7  S   UNL     1       3.016   1.557  -0.070  0.00  0.00    -0.061 S 
ATOM      8  C   UNL     1       3.896   0.002  -0.102  0.00  0.00    +0.136 A 
ATOM      9  N   UNL     1       2.918  -0.874  -0.092  0.00  0.00    -0.233 NA
ENDROOT
BRANCH   1  13
ATOM     10  N   UNL     1      -3.773   2.783   0.639  0.00  0.00    -0.269 N 
ATOM     11  C   UNL     1      -2.550   2.222   0.703  0.00  0.00    +0.308 C 
ATOM     12  O   UNL     1      -1.678   2.739   1.375  0.00  0.00    -0.252 OA
ATOM     13  N   UNL     1      -2.292   1.087   0.023  0.00  0.00    -0.269 N 
ATOM     14  H   UNL     1      -4.580   2.281   0.086  0.00  0.00    +0.156 HD
ATOM     15  H   UNL     1      -3.102   0.571  -0.513  0.00  0.00    +0.156 HD
BRANCH  10  21
ATOM     16  C   UNL     1      -2.657   6.006   4.179  0.00  0.00    +0.044 C 
ATOM     17  C   UNL     1      -3.490   5.593   2.994  0.00  0.00    -0.049 A 
ATOM     18  C   UNL     1      -4.497   6.422   2.534  0.00  0.00    +0.004 A 
ATOM     19  C   UNL     1      -5.264   6.045   1.448  0.00  0.00    +0.005 A 
ATOM     20  C   UNL     1      -5.024   4.842   0.814  0.00  0.00    -0.029 A 
ATOM     21  C   UNL     1      -4.017   4.005   1.276  0.00  0.00    +0.038 A 
ATOM     22  C   UNL     1      -3.248   4.386   2.368  0.00  0.00    +0.027 A 
ATOM     23  C   UNL     1      -5.856   4.435  -0.375  0.00  0.00    +0.045 C 
ENDBRANCH  10  21
ENDBRANCH   1  13
BRANCH   8  24
ATOM     24  S   UNL     1       5.635  -0.282  -0.139  0.00  0.00    -0.089 S 
BRANCH  24  25
ATOM     25  C   UNL     1       5.656  -2.092  -0.158  0.00  0.00    +0.172 C 
BRANCH  25  26
ATOM     26  C   UNL     1       7.083  -2.577  -0.191  0.00  0.00    +0.227 C 
ATOM     27  O   UNL     1       7.995  -1.778  -0.201  0.00  0.00    -0.275 OA
ATOM     28  N   UNL     1       7.345  -3.899  -0.210  0.00  0.00    -0.285 N 
ATOM     29  H   UNL     1       6.520  -4.622  -0.291  0.00  0.00    +0.155 HD
BRANCH  28  30
ATOM     30  C   UNL     1       8.666  -4.351  -0.126  0.00  0.00    +0.037 A 
ATOM     31  C   UNL     1       9.055  -5.495  -0.813  0.00  0.00    +0.023 A 
ATOM     32  C   UNL     1      10.361  -5.939  -0.734  0.00  0.00    +0.005 A 
ATOM     33  C   UNL     1      11.281  -5.253   0.036  0.00  0.00    +0.046 A 
ATOM     34  C   UNL     1      10.897  -4.113   0.729  0.00  0.00    +0.122 A 
ATOM     35  C   UNL     1       9.589  -3.662   0.648  0.00  0.00    +0.069 A 
BRANCH  34  36
ATOM     36  O   UNL     1      11.803  -3.441   1.486  0.00  0.00    -0.495 OA
ATOM     37  C   UNL     1      13.133  -3.962   1.523  0.00  0.00    +0.277 C 
ENDBRANCH  34  36
ENDBRANCH  28  30
ENDBRANCH  25  26
ENDBRANCH  24  25
ENDBRANCH   8  24
TORSDOF 7
