REMARK  Name = ZINC44560521
REMARK  7 active torsions:
REMARK  status: ('A' for Active; 'I' for Inactive)
REMARK    1  A    between atoms: C_1  and  C_2
REMARK    2  A    between atoms: C_2  and  C_3
REMARK    3  A    between atoms: C_2  and  C_10
REMARK    4  A    between atoms: C_2  and  N_13
REMARK    5  A    between atoms: N_13  and  C_14
REMARK    6  A    between atoms: C_14  and  C_15
REMARK    7  A    between atoms: N_20  and  C_22
REMARK                            x       y       z     vdW  Elec       q    Type
REMARK                         _______ _______ _______ _____ _____    ______ ____
ROOT
ATOM      1  C   UNL     1       0.103   1.434  -0.271  0.00  0.00    +0.006 C 
ATOM      2  C   UNL     1      -0.002  -0.076  -0.051  0.00  0.00    +0.058 C 
ENDROOT
BRANCH   2   3
ATOM      3  C   UNL     1       0.609  -0.434   1.280  0.00  0.00    -0.048 A 
ATOM      4  C   UNL     1      -0.160  -1.049   2.250  0.00  0.00    +0.004 A 
ATOM      5  C   UNL     1       0.400  -1.377   3.470  0.00  0.00    +0.015 A 
ATOM      6  C   UNL     1       1.730  -1.091   3.720  0.00  0.00    +0.018 A 
ATOM      7  C   UNL     1       2.499  -0.475   2.749  0.00  0.00    +0.015 A 
ATOM      8  C   UNL     1       1.939  -0.152   1.527  0.00  0.00    +0.004 A 
ATOM      9 BR   UNL     1       2.497  -1.539   5.390  0.00  0.00    -0.050 Br
ENDBRANCH   2   3
BRANCH   2  10
ATOM     10  C   UNL     1       0.734  -0.796  -1.151  0.00  0.00    +0.349 C 
ATOM     11  O   UNL     1       1.887  -0.499  -1.409  0.00  0.00    -0.248 OA
ATOM     12  O   UNL     1       0.175  -1.676  -1.784  0.00  0.00    -0.248 OA
ENDBRANCH   2  10
BRANCH   2  13
ATOM     13  N   UNL     1      -1.416  -0.476  -0.064  0.00  0.00    +0.393 N 
ATOM     14  H   UNL     1      -1.481  -1.482  -0.018  0.00  0.00    -0.084 HD
ATOM     15  H   UNL     1      -1.887  -0.072   0.732  0.00  0.00    -0.084 HD
BRANCH  13  16
ATOM     16  C   UNL     1      -2.048   0.000  -1.301  0.00  0.00    -0.079 C 
BRANCH  16  17
ATOM     17  C   UNL     1      -3.528  -0.387  -1.299  0.00  0.00    -0.045 C 
ATOM     18  C   UNL     1      -4.249   0.353  -0.168  0.00  0.00    -0.002 C 
ATOM     19  C   UNL     1      -5.742   0.019  -0.224  0.00  0.00    -0.018 C 
ATOM     20  C   UNL     1      -6.292   0.392  -1.603  0.00  0.00    -0.079 C 
ATOM     21  N   UNL     1      -5.580  -0.367  -2.638  0.00  0.00    +0.378 N 
ATOM     22  C   UNL     1      -4.159   0.000  -2.639  0.00  0.00    -0.078 C 
ATOM     23  C   UNL     1      -6.163  -0.065  -3.952  0.00  0.00    -0.096 C 
ATOM     24  H   UNL     1      -5.671  -1.355  -2.452  0.00  0.00    -0.082 HD
ENDBRANCH  16  17
ENDBRANCH  13  16
ENDBRANCH   2  13
TORSDOF 5
