REMARK  Name = ZINC07981361
REMARK  8 active torsions:
REMARK  status: ('A' for Active; 'I' for Inactive)
REMARK    1  A    between atoms: C_4  and  N_11
REMARK    2  A    between atoms: C_5  and  C_7
REMARK    3  A    between atoms: N_11  and  N_12
REMARK    4  A    between atoms: N_12  and  C_13
REMARK    5  A    between atoms: C_13  and  N_15
REMARK    6  A    between atoms: N_15  and  C_16
REMARK    7  A    between atoms: C_16  and  C_17
REMARK    8  A    between atoms: C_17  and  N_42
REMARK                            x       y       z     vdW  Elec       q    Type
REMARK                         _______ _______ _______ _____ _____    ______ ____
ROOT
ATOM      1  N   UNL     1      -0.011   0.966   0.007  0.00  0.00    -0.248 N 
ATOM      2  H   UNL     1       0.002  -0.004   0.002  0.00  0.00    +0.172 HD
ENDROOT
BRANCH   1   3
ATOM      3  N   UNL     1      -1.234   1.650   0.017  0.00  0.00    -0.265 N 
ATOM      4  H   UNL     1      -1.247   2.620   0.022  0.00  0.00    +0.170 HD
BRANCH   3   8
ATOM      5  C   UNL     1      -4.811  -0.481   0.022  0.00  0.00    +0.001 A 
ATOM      6  C   UNL     1      -3.605  -1.158   0.013  0.00  0.00    +0.002 A 
ATOM      7  C   UNL     1      -2.417  -0.454   0.005  0.00  0.00    +0.025 A 
ATOM      8  C   UNL     1      -2.434   0.935   0.019  0.00  0.00    +0.056 A 
ATOM      9  C   UNL     1      -3.647   1.611   0.028  0.00  0.00    +0.077 A 
ATOM     10  C   UNL     1      -4.832   0.902   0.030  0.00  0.00    +0.014 A 
BRANCH   9  11
ATOM     11  C   UNL     1      -3.670   3.118   0.036  0.00  0.00    +0.419 C 
ATOM     12  F   UNL     1      -4.996   3.564   0.045  0.00  0.00    -0.166 F 
ATOM     13  F   UNL     1      -3.012   3.589   1.177  0.00  0.00    -0.166 F 
ATOM     14  F   UNL     1      -3.024   3.601  -1.107  0.00  0.00    -0.166 F 
ENDBRANCH   9  11
ENDBRANCH   3   8
ENDBRANCH   1   3
BRANCH   1  15
ATOM     15  C   UNL     1       1.147   1.655   0.000  0.00  0.00    +0.147 C 
ATOM     16  S   UNL     1       2.641   0.820  -0.019  0.00  0.00    -0.017 S 
BRANCH  15  17
ATOM     17  N   UNL     1       1.129   3.003   0.007  0.00  0.00    -0.327 N 
ATOM     18  H   UNL     1       0.282   3.477   0.018  0.00  0.00    +0.148 HD
BRANCH  17  19
ATOM     19  C   UNL     1       2.387   3.753  -0.001  0.00  0.00    +0.085 C 
BRANCH  19  20
ATOM     20  C   UNL     1       2.087   5.253   0.010  0.00  0.00    -0.060 C 
BRANCH  20  26
ATOM     21  C   UNL     1       4.096   5.795   1.252  0.00  0.00    -0.050 C 
ATOM     22  C   UNL     1       5.427   6.546   1.176  0.00  0.00    +0.141 C 
ATOM     23  O   UNL     1       5.174   7.931   0.923  0.00  0.00    -0.383 OA
ATOM     24  C   UNL     1       4.450   8.172  -0.286  0.00  0.00    +0.141 C 
ATOM     25  C   UNL     1       3.108   7.437  -0.226  0.00  0.00    -0.050 C 
ATOM     26  N   UNL     1       3.365   5.997  -0.018  0.00  0.00    +0.384 N 
ATOM     27  H   UNL     1       3.939   5.644  -0.793  0.00  0.00    -0.082 HD
ENDBRANCH  20  26
ENDBRANCH  19  20
ENDBRANCH  17  19
ENDBRANCH  15  17
ENDBRANCH   1  15
TORSDOF 8
