REMARK  Name = ZINC16609919
REMARK  13 active torsions:
REMARK  status: ('A' for Active; 'I' for Inactive)
REMARK    1  A    between atoms: C_1  and  C_2
REMARK    2  A    between atoms: C_2  and  N_3
REMARK    3  A    between atoms: C_4  and  C_36
REMARK    4  A    between atoms: C_5  and  C_30
REMARK    5  A    between atoms: C_6  and  C_11
REMARK    6  A    between atoms: C_15  and  N_17
REMARK    7  A    between atoms: C_18  and  C_20
REMARK    8  A    between atoms: C_23  and  C_29
REMARK    9  A    between atoms: C_24  and  N_26
REMARK   10  A    between atoms: C_30  and  O_32
REMARK   11  A    between atoms: O_32  and  C_33
REMARK   12  A    between atoms: C_33  and  C_34
REMARK   13  A    between atoms: C_33  and  C_35
REMARK                            x       y       z     vdW  Elec       q    Type
REMARK                         _______ _______ _______ _____ _____    ______ ____
ROOT
ATOM      1  C   UNL     1      -3.357   1.807   0.450  0.00  0.00    -0.021 A 
ATOM      2  C   UNL     1      -3.272   3.186   0.515  0.00  0.00    +0.006 A 
ATOM      3  C   UNL     1      -2.045   3.813   0.403  0.00  0.00    +0.002 A 
ATOM      4  C   UNL     1      -0.899   3.063   0.226  0.00  0.00    +0.023 A 
ATOM      5  C   UNL     1      -0.980   1.678   0.160  0.00  0.00    +0.034 A 
ATOM      6  C   UNL     1      -2.215   1.052   0.268  0.00  0.00    +0.029 A 
ENDROOT
BRANCH   1  10
ATOM      7  N   UNL     1      -6.987   2.228   1.663  0.00  0.00    -0.286 N 
ATOM      8  C   UNL     1      -6.152   1.549   2.503  0.00  0.00    +0.021 C 
ATOM      9  C   UNL     1      -5.015   0.983   2.046  0.00  0.00    +0.078 C 
ATOM     10  C   UNL     1      -4.697   1.128   0.571  0.00  0.00    +0.141 C 
ATOM     11  N   UNL     1      -5.662   1.880  -0.248  0.00  0.00    -0.315 N 
ATOM     12  C   UNL     1      -6.756   2.387   0.354  0.00  0.00    +0.138 C 
ATOM     13  S   UNL     1      -7.888   3.263  -0.586  0.00  0.00    -0.018 S 
ATOM     14  C   UNL     1      -6.506   1.428   3.962  0.00  0.00    +0.061 C 
ATOM     15  H   UNL     1      -5.515   2.007  -1.198  0.00  0.00    +0.149 HD
BRANCH   7  17
ATOM     16  C   UNL     1      -9.305   1.754   2.285  0.00  0.00    +0.025 C 
ATOM     17  C   UNL     1      -8.205   2.816   2.227  0.00  0.00    +0.109 C 
ENDBRANCH   7  17
BRANCH   9  18
ATOM     18  C   UNL     1      -4.149   0.279   2.915  0.00  0.00    +0.339 C 
ATOM     19  O   UNL     1      -4.424   0.175   4.095  0.00  0.00    -0.245 OA
BRANCH  18  20
ATOM     20  O   UNL     1      -3.017  -0.277   2.434  0.00  0.00    -0.459 OA
BRANCH  20  21
ATOM     21  C   UNL     1      -2.189  -0.973   3.369  0.00  0.00    +0.171 C 
ATOM     22  C   UNL     1      -1.445  -2.100   2.650  0.00  0.00    +0.052 C 
ATOM     23  C   UNL     1      -1.177   0.000   3.977  0.00  0.00    +0.052 C 
ENDBRANCH  20  21
ENDBRANCH  18  20
ENDBRANCH   9  18
ENDBRANCH   1  10
BRANCH   5  24
ATOM     24  N   UNL     1       0.179   0.916  -0.020  0.00  0.00    -0.281 N 
ATOM     25  C   UNL     1       1.338   1.308   0.545  0.00  0.00    +0.248 C 
ATOM     26  O   UNL     1       1.399   2.371   1.133  0.00  0.00    -0.270 OA
ATOM     27  H   UNL     1       0.149   0.107  -0.554  0.00  0.00    +0.155 HD
BRANCH  25  28
ATOM     28  C   UNL     1       2.536   0.447   0.450  0.00  0.00    +0.039 A 
ATOM     29  C   UNL     1       2.468  -0.776  -0.220  0.00  0.00    +0.013 A 
ATOM     30  C   UNL     1       3.590  -1.573  -0.309  0.00  0.00    +0.006 A 
ATOM     31  C   UNL     1       4.779  -1.167   0.271  0.00  0.00    -0.020 A 
ATOM     32  C   UNL     1       4.851   0.042   0.941  0.00  0.00    +0.130 A 
ATOM     33  C   UNL     1       3.737   0.851   1.033  0.00  0.00    +0.046 A 
ATOM     34  C   UNL     1       6.000  -2.045   0.174  0.00  0.00    +0.046 C 
BRANCH  32  35
ATOM     35  N   UNL     1       6.127   0.468   1.559  0.00  0.00    +0.057 N 
ATOM     36  O   UNL     1       6.181   1.511   2.186  0.00  0.00    -0.126 OA
ATOM     37  O   UNL     1       7.122  -0.224   1.441  0.00  0.00    -0.126 OA
ENDBRANCH  32  35
ENDBRANCH  25  28
ENDBRANCH   5  24
TORSDOF 8
