REMARK  Name = ZINC24767380
REMARK  6 active torsions:
REMARK  status: ('A' for Active; 'I' for Inactive)
REMARK    1  A    between atoms: C_1  and  C_2
REMARK    2  A    between atoms: C_2  and  C_4
REMARK    3  A    between atoms: C_2  and  N_14
REMARK    4  A    between atoms: N_14  and  C_15
REMARK    5  A    between atoms: C_15  and  C_16
REMARK    6  A    between atoms: N_18  and  N_19
REMARK                            x       y       z     vdW  Elec       q    Type
REMARK                         _______ _______ _______ _____ _____    ______ ____
ROOT
ATOM      1  C   UNL     1       2.893   9.765   2.320  0.00  0.00    +0.213 C 
ATOM      2  O   UNL     1       3.859   9.059   2.519  0.00  0.00    -0.276 OA
ATOM      3  N   UNL     1       2.813  10.978   2.903  0.00  0.00    -0.225 N 
ATOM      4  H   UNL     1       1.937  11.618   2.722  0.00  0.00    +0.173 HD
ENDROOT
BRANCH   3   5
ATOM      5  N   UNL     1       3.845  11.422   3.739  0.00  0.00    -0.137 N 
ATOM      6  C   UNL     1       4.759  12.351   3.388  0.00  0.00    +0.263 C 
ATOM      7  O   UNL     1       4.840  12.937   2.330  0.00  0.00    -0.271 OA
ATOM      8  C   UNL     1       5.659  12.506   4.593  0.00  0.00    +0.114 C 
ATOM      9  C   UNL     1       5.595  13.934   5.123  0.00  0.00    +0.035 C 
ATOM     10  C   UNL     1       6.491  14.064   6.357  0.00  0.00    +0.003 C 
ATOM     11  C   UNL     1       7.930  13.706   5.981  0.00  0.00    +0.000 C 
ATOM     12  C   UNL     1       7.982  12.263   5.475  0.00  0.00    +0.003 C 
ATOM     13  C   UNL     1       7.092  12.126   4.237  0.00  0.00    +0.035 C 
ATOM     14  N   UNL     1       5.106  11.566   5.575  0.00  0.00    -0.284 N 
ATOM     15  C   UNL     1       4.044  10.983   4.988  0.00  0.00    +0.326 C 
ATOM     16  O   UNL     1       3.345  10.148   5.530  0.00  0.00    -0.251 OA
ATOM     17  H   UNL     1       5.576  11.465   6.565  0.00  0.00    +0.151 HD
ENDBRANCH   3   5
BRANCH   1  18
ATOM     18  C   UNL     1       1.783   9.287   1.420  0.00  0.00    +0.017 C 
BRANCH  18  19
ATOM     19  N   UNL     1       2.106   7.947   0.913  0.00  0.00    +0.389 N 
ATOM     20  H   UNL     1       2.223   7.265   1.769  0.00  0.00    -0.084 HD
ATOM     21  H   UNL     1       3.053   7.999   0.355  0.00  0.00    -0.084 HD
BRANCH  19  23
ATOM     22  C   UNL     1       1.274   7.968  -1.390  0.00  0.00    -0.009 C 
ATOM     23  C   UNL     1       1.044   7.447   0.030  0.00  0.00    -0.043 C 
BRANCH  23  24
ATOM     24  C   UNL     1       1.064   5.940   0.022  0.00  0.00    -0.061 A 
ATOM     25  C   UNL     1       2.286   5.270   0.008  0.00  0.00    +0.002 A 
ATOM     26  C   UNL     1       2.340   3.910   0.001  0.00  0.00    +0.009 A 
ATOM     27  C   UNL     1       1.147   3.167   0.008  0.00  0.00    -0.018 A 
ATOM     28  C   UNL     1       1.163   1.762   0.000  0.00  0.00    +0.008 A 
ATOM     29  C   UNL     1      -0.013   1.076   0.008  0.00  0.00    +0.001 A 
ATOM     30  C   UNL     1      -1.235   1.746   0.017  0.00  0.00    +0.001 A 
ATOM     31  C   UNL     1      -1.288   3.106   0.031  0.00  0.00    +0.008 A 
ATOM     32  C   UNL     1      -0.096   3.849   0.023  0.00  0.00    -0.018 A 
ATOM     33  C   UNL     1      -0.111   5.254   0.030  0.00  0.00    +0.010 A 
ENDBRANCH  23  24
ENDBRANCH  19  23
ENDBRANCH  18  19
ENDBRANCH   1  18
TORSDOF 5
