REMARK  Name = ZINC37014352
REMARK  3 active torsions:
REMARK  status: ('A' for Active; 'I' for Inactive)
REMARK    1  A    between atoms: C_1  and  C_2
REMARK    2  A    between atoms: C_2  and  N_9
REMARK    3  A    between atoms: C_10  and  C_12
REMARK                            x       y       z     vdW  Elec       q    Type
REMARK                         _______ _______ _______ _____ _____    ______ ____
ROOT
ATOM      1  N   UNL     1       0.731  -0.456  -1.186  0.00  0.00    -0.310 N 
ATOM      2  C   UNL     1       0.300  -0.105  -2.414  0.00  0.00    +0.199 C 
ATOM      3  O   UNL     1      -0.690   0.584  -2.536  0.00  0.00    -0.278 OA
ATOM      4  H   UNL     1       1.523  -1.007  -1.089  0.00  0.00    +0.149 HD
ENDROOT
BRANCH   2   5
ATOM      5  C   UNL     1       1.050  -0.570  -3.636  0.00  0.00    +0.017 C 
ATOM      6  C   UNL     1       2.485  -0.009  -3.617  0.00  0.00    -0.005 C 
ATOM      7  C   UNL     1       2.589   0.868  -4.897  0.00  0.00    -0.026 C 
ATOM      8  C   UNL     1       2.216   2.293  -4.483  0.00  0.00    +0.002 C 
ATOM      9  C   UNL     1       1.904   3.149  -5.708  0.00  0.00    +0.000 C 
ATOM     10  C   UNL     1       0.694   2.547  -6.429  0.00  0.00    -0.002 C 
ATOM     11  C   UNL     1       1.076   1.153  -6.926  0.00  0.00    -0.015 C 
ATOM     12  C   UNL     1       1.502   0.245  -5.792  0.00  0.00    -0.068 C 
ATOM     13  N   UNL     1       0.392  -0.051  -4.860  0.00  0.00    +0.389 N 
ATOM     14  H   UNL     1      -0.221  -0.750  -5.251  0.00  0.00    -0.084 HD
ATOM     15  H   UNL     1      -0.123   0.791  -4.651  0.00  0.00    -0.084 HD
ENDBRANCH   2   5
BRANCH   1  17
ATOM     16  C   UNL     1      -0.019   1.526   0.010  0.00  0.00    +0.033 C 
ATOM     17  C   UNL     1       0.002  -0.004   0.002  0.00  0.00    +0.052 C 
ATOM     18  C   UNL     1      -1.436  -0.513  -0.087  0.00  0.00    +0.049 C 
ATOM     19  C   UNL     1      -1.556  -1.909   0.586  0.00  0.00    +0.168 C 
ATOM     20  S   UNL     1      -0.454  -1.644   2.043  0.00  0.00    -0.029 S 
ATOM     21  O   UNL     1       0.203  -2.864   2.360  0.00  0.00    -0.174 OA
ATOM     22  O   UNL     1      -1.173  -0.950   3.053  0.00  0.00    -0.174 OA
ATOM     23  C   UNL     1       0.751  -0.495   1.257  0.00  0.00    +0.191 C 
ENDBRANCH   1  17
TORSDOF 2
