REMARK  Name = ZINC04917193
REMARK  16 active torsions:
REMARK  status: ('A' for Active; 'I' for Inactive)
REMARK    1  A    between atoms: C_1  and  C_2
REMARK    2  A    between atoms: C_2  and  C_3
REMARK    3  A    between atoms: C_2  and  C_4
REMARK    4  A    between atoms: C_4  and  N_64
REMARK    5  A    between atoms: C_5  and  C_6
REMARK    6  A    between atoms: C_5  and  N_64
REMARK    7  A    between atoms: N_8  and  C_9
REMARK    8  A    between atoms: C_12  and  S_15
REMARK    9  A    between atoms: S_15  and  C_18
REMARK   10  A    between atoms: C_21  and  N_24
REMARK   11  A    between atoms: C_25  and  C_27
REMARK   12  A    between atoms: C_27  and  N_67
REMARK   13  A    between atoms: C_28  and  C_29
REMARK   14  A    between atoms: C_28  and  C_30
REMARK   15  A    between atoms: C_28  and  C_31
REMARK   16  A    between atoms: C_28  and  N_67
REMARK                            x       y       z     vdW  Elec       q    Type
REMARK                         _______ _______ _______ _____ _____    ______ ____
ROOT
ATOM      1  S   UNL     1      -5.207   3.271   0.257  0.00  0.00    +0.025 S 
ATOM      2  O   UNL     1      -5.082   4.522  -0.405  0.00  0.00    -0.164 OA
ATOM      3  O   UNL     1      -6.170   2.299  -0.126  0.00  0.00    -0.164 OA
ENDROOT
BRANCH   1   7
ATOM      4  C   UNL     1      -1.159   1.256  -0.007  0.00  0.00    +0.033 A 
ATOM      5  C   UNL     1      -1.255   2.639  -0.095  0.00  0.00    +0.025 A 
ATOM      6  C   UNL     1      -2.492   3.250  -0.019  0.00  0.00    +0.029 A 
ATOM      7  C   UNL     1      -3.632   2.487   0.154  0.00  0.00    +0.094 A 
ATOM      8  C   UNL     1      -3.539   1.110   0.248  0.00  0.00    +0.029 A 
ATOM      9  C   UNL     1      -2.306   0.493   0.168  0.00  0.00    +0.025 A 
BRANCH   4  12
ATOM     10  C   UNL     1       1.054   1.157  -0.874  0.00  0.00    +0.200 C 
ATOM     11  O   UNL     1       0.810   2.116  -1.576  0.00  0.00    -0.278 OA
ATOM     12  N   UNL     1       0.091   0.634  -0.089  0.00  0.00    -0.287 N 
ATOM     13  H   UNL     1       0.264  -0.177   0.415  0.00  0.00    +0.155 HD
BRANCH  10  14
ATOM     14  C   UNL     1       2.434   0.551  -0.878  0.00  0.00    +0.015 C 
BRANCH  14  15
ATOM     15  N   UNL     1       3.290   1.306  -1.814  0.00  0.00    +0.385 N 
ATOM     16  H   UNL     1       2.885   1.258  -2.756  0.00  0.00    -0.085 HD
ATOM     17  H   UNL     1       3.341   2.285  -1.512  0.00  0.00    -0.085 HD
BRANCH  15  18
ATOM     18  C   UNL     1       4.649   0.734  -1.839  0.00  0.00    -0.079 C 
BRANCH  18  20
ATOM     19  C   UNL     1       5.680   2.963  -2.295  0.00  0.00    +0.005 C 
ATOM     20  C   UNL     1       5.513   1.535  -2.816  0.00  0.00    -0.034 C 
ATOM     21  C   UNL     1       6.887   0.874  -2.942  0.00  0.00    +0.005 C 
ENDBRANCH  18  20
ENDBRANCH  15  18
ENDBRANCH  14  15
ENDBRANCH  10  14
ENDBRANCH   4  12
ENDBRANCH   1   7
BRANCH   1  22
ATOM     22  C   UNL     1      -5.501   3.628   1.957  0.00  0.00    +0.094 A 
ATOM     23  C   UNL     1      -6.145   2.700   2.756  0.00  0.00    +0.029 A 
ATOM     24  C   UNL     1      -6.373   2.975   4.090  0.00  0.00    +0.025 A 
ATOM     25  C   UNL     1      -5.963   4.189   4.627  0.00  0.00    +0.033 A 
ATOM     26  C   UNL     1      -5.322   5.120   3.821  0.00  0.00    +0.025 A 
ATOM     27  C   UNL     1      -5.093   4.837   2.489  0.00  0.00    +0.029 A 
BRANCH  25  28
ATOM     28  N   UNL     1      -6.197   4.472   5.977  0.00  0.00    -0.287 N 
ATOM     29  C   UNL     1      -6.494   5.730   6.360  0.00  0.00    +0.200 C 
ATOM     30  O   UNL     1      -6.477   6.631   5.549  0.00  0.00    -0.278 OA
ATOM     31  H   UNL     1      -6.144   3.764   6.638  0.00  0.00    +0.155 HD
BRANCH  29  32
ATOM     32  C   UNL     1      -6.848   6.016   7.797  0.00  0.00    +0.016 C 
BRANCH  32  33
ATOM     33  N   UNL     1      -7.127   7.456   7.948  0.00  0.00    +0.388 N 
ATOM     34  H   UNL     1      -7.912   7.715   7.338  0.00  0.00    -0.084 HD
ATOM     35  H   UNL     1      -6.294   7.993   7.680  0.00  0.00    -0.084 HD
BRANCH  33  36
ATOM     36  C   UNL     1      -7.477   7.766   9.347  0.00  0.00    -0.076 C 
ATOM     37  C   UNL     1      -6.312   7.389  10.264  0.00  0.00    -0.011 C 
ATOM     38  C   UNL     1      -7.761   9.264   9.473  0.00  0.00    -0.011 C 
ATOM     39  C   UNL     1      -8.722   6.975   9.753  0.00  0.00    -0.011 C 
ENDBRANCH  33  36
ENDBRANCH  32  33
ENDBRANCH  29  32
ENDBRANCH  25  28
ENDBRANCH   1  22
TORSDOF 11
