REMARK  Name = ZINC00197317
REMARK  5 active torsions:
REMARK  status: ('A' for Active; 'I' for Inactive)
REMARK    1  A    between atoms: C_1  and  C_2
REMARK    2  A    between atoms: C_9  and  N_14
REMARK    3  A    between atoms: C_10  and  C_11
REMARK    4  A    between atoms: C_15  and  C_17
REMARK    5  A    between atoms: N_20  and  C_22
REMARK                            x       y       z     vdW  Elec       q    Type
REMARK                         _______ _______ _______ _____ _____    ______ ____
ROOT
ATOM      1  C   UNL     1       4.707   4.391   0.077  0.00  0.00    +0.008 C 
ATOM      2  C   UNL     1       3.898   3.123   0.361  0.00  0.00    -0.009 C 
ATOM      3  C   UNL     1       4.436   1.968  -0.487  0.00  0.00    +0.008 C 
ATOM      4  C   UNL     1       3.805   0.650  -0.032  0.00  0.00    +0.037 C 
ATOM      5  C   UNL     1       2.290   0.813  -0.016  0.00  0.00    -0.023 A 
ATOM      6  C   UNL     1       1.722   2.038  -0.003  0.00  0.00    -0.004 A 
ATOM      7  S   UNL     1      -0.021   1.728   0.011  0.00  0.00    -0.077 S 
ATOM      8  C   UNL     1       0.002  -0.004   0.002  0.00  0.00    +0.085 A 
ATOM      9  C   UNL     1       1.358  -0.302  -0.013  0.00  0.00    +0.068 A 
ATOM     10  C   UNL     1       2.425   3.360  -0.002  0.00  0.00    +0.046 C 
ENDROOT
BRANCH   9  11
ATOM     11  C   UNL     1       1.831  -1.689  -0.025  0.00  0.00    +0.244 C 
ATOM     12  O   UNL     1       2.017  -2.259  -1.084  0.00  0.00    -0.270 OA
ATOM     13  N   UNL     1       2.061  -2.333   1.136  0.00  0.00    -0.325 N 
ATOM     14  H   UNL     1       1.913  -1.879   1.980  0.00  0.00    +0.145 HD
ATOM     15  H   UNL     1       2.374  -3.251   1.128  0.00  0.00    +0.145 HD
ENDBRANCH   9  11
BRANCH   8  16
ATOM     16  N   UNL     1      -1.072  -0.880   0.007  0.00  0.00    -0.274 N 
ATOM     17  C   UNL     1      -2.332  -0.401   0.022  0.00  0.00    +0.269 C 
ATOM     18  O   UNL     1      -2.526   0.799   0.030  0.00  0.00    -0.268 OA
ATOM     19  H   UNL     1      -0.917  -1.837   0.000  0.00  0.00    +0.156 HD
BRANCH  17  20
ATOM     20  C   UNL     1      -3.476  -1.334   0.027  0.00  0.00    +0.147 A 
ATOM     21  C   UNL     1      -4.847  -0.985   0.042  0.00  0.00    +0.054 A 
ATOM     22  C   UNL     1      -5.520  -2.160   0.041  0.00  0.00    +0.109 A 
ATOM     23  N   UNL     1      -4.599  -3.148   0.027  0.00  0.00    -0.274 N 
ATOM     24  N   UNL     1      -3.414  -2.651   0.013  0.00  0.00    -0.167 NA
ATOM     25  C   UNL     1      -4.907  -4.580   0.022  0.00  0.00    +0.172 C 
ENDBRANCH  17  20
ENDBRANCH   8  16
TORSDOF 3
