REMARK  Name = ZINC44714094
REMARK  12 active torsions:
REMARK  status: ('A' for Active; 'I' for Inactive)
REMARK    1  A    between atoms: C_1  and  C_2
REMARK    2  A    between atoms: C_4  and  C_11
REMARK    3  A    between atoms: N_5  and  C_7
REMARK    4  A    between atoms: C_7  and  C_8
REMARK    5  A    between atoms: C_7  and  C_9
REMARK    6  A    between atoms: C_7  and  C_10
REMARK    7  A    between atoms: C_15  and  C_24
REMARK    8  A    between atoms: N_26  and  C_27
REMARK    9  A    between atoms: C_27  and  C_29
REMARK   10  A    between atoms: C_27  and  C_30
REMARK   11  A    between atoms: C_31  and  C_37
REMARK   12  A    between atoms: C_35  and  C_36
REMARK                            x       y       z     vdW  Elec       q    Type
REMARK                         _______ _______ _______ _____ _____    ______ ____
ROOT
ATOM      1  C   UNL     1      -0.264  -4.071  -0.476  0.00  0.00    +0.265 C 
ATOM      2  O   UNL     1      -0.689  -4.088  -1.616  0.00  0.00    -0.268 OA
ATOM      3  N   UNL     1      -0.237  -5.207   0.250  0.00  0.00    -0.295 N 
ATOM      4  C   UNL     1       0.116  -5.361   1.681  0.00  0.00    +0.121 C 
ATOM      5  C   UNL     1      -0.883  -6.411   2.217  0.00  0.00    +0.100 C 
ATOM      6  C   UNL     1      -1.316  -7.210   0.977  0.00  0.00    -0.004 C 
ATOM      7  C   UNL     1      -0.559  -6.582  -0.202  0.00  0.00    +0.115 C 
ATOM      8  C   UNL     1      -0.929  -8.678   1.132  0.00  0.00    -0.010 C 
ATOM      9  C   UNL     1      -1.422  -9.463  -0.087  0.00  0.00    -0.082 C 
ATOM     10  N   UNL     1      -2.879  -9.330  -0.201  0.00  0.00    +0.379 N 
ATOM     11  C   UNL     1      -3.236  -7.926  -0.443  0.00  0.00    -0.082 C 
ATOM     12  C   UNL     1      -2.821  -7.077   0.762  0.00  0.00    -0.010 C 
ATOM     13  H   UNL     1      -3.209  -9.896  -0.968  0.00  0.00    -0.086 HD
ATOM     14  H   UNL     1      -3.312  -9.643   0.655  0.00  0.00    -0.086 HD
ENDROOT
BRANCH   1  18
ATOM     15  C   UNL     1       1.821  -0.601   2.579  0.00  0.00    +0.067 C 
ATOM     16  C   UNL     1       1.125  -1.285   1.431  0.00  0.00    +0.061 A 
ATOM     17  C   UNL     1       0.874  -2.655   1.320  0.00  0.00    +0.057 A 
ATOM     18  C   UNL     1       0.220  -2.811   0.110  0.00  0.00    +0.124 A 
ATOM     19  N   UNL     1       0.114  -1.561  -0.431  0.00  0.00    -0.254 N 
ATOM     20  N   UNL     1       0.644  -0.702   0.363  0.00  0.00    -0.175 NA
BRANCH  19  21
ATOM     21  C   UNL     1      -0.514  -1.248  -1.717  0.00  0.00    +0.056 C 
ATOM     22  C   UNL     1      -1.944  -1.793  -1.733  0.00  0.00    +0.036 C 
ATOM     23  C   UNL     1      -0.544   0.269  -1.914  0.00  0.00    +0.036 C 
ATOM     24  C   UNL     1       0.290  -1.894  -2.847  0.00  0.00    +0.036 C 
ENDBRANCH  19  21
ENDBRANCH   1  18
BRANCH   5  25
ATOM     25  C   UNL     1      -0.208  -7.314   3.217  0.00  0.00    +0.219 C 
ATOM     26  O   UNL     1       0.992  -7.486   3.166  0.00  0.00    -0.275 OA
ATOM     27  N   UNL     1      -0.937  -7.932   4.168  0.00  0.00    -0.308 N 
ATOM     28  H   UNL     1      -1.904  -7.853   4.165  0.00  0.00    +0.149 HD
BRANCH  27  29
ATOM     29  C   UNL     1      -0.269  -8.722   5.205  0.00  0.00    +0.104 C 
ATOM     30  C   UNL     1       0.124 -10.085   4.634  0.00  0.00    +0.033 C 
BRANCH  29  31
ATOM     31  C   UNL     1      -1.206  -8.916   6.370  0.00  0.00    +0.015 A 
ATOM     32  C   UNL     1      -0.915  -8.692   7.672  0.00  0.00    +0.038 A 
ATOM     33  N   UNL     1      -2.016  -8.983   8.396  0.00  0.00    -0.281 N 
ATOM     34  H   UNL     1      -2.099  -8.916   9.360  0.00  0.00    +0.189 HD
ATOM     35  N   UNL     1      -3.017  -9.400   7.509  0.00  0.00    -0.179 NA
ATOM     36  C   UNL     1      -2.533  -9.353   6.294  0.00  0.00    +0.065 A 
ATOM     37  C   UNL     1      -3.274  -9.712   5.033  0.00  0.00    +0.068 C 
ATOM     38  C   UNL     1       0.403  -8.205   8.217  0.00  0.00    +0.065 C 
ENDBRANCH  29  31
ENDBRANCH  27  29
ENDBRANCH   5  25
TORSDOF 5
