REMARK  Name = ZINC37441743
REMARK  9 active torsions:
REMARK  status: ('A' for Active; 'I' for Inactive)
REMARK    1  A    between atoms: C_1  and  C_2
REMARK    2  A    between atoms: C_2  and  C_3
REMARK    3  A    between atoms: C_3  and  C_4
REMARK    4  A    between atoms: C_4  and  C_5
REMARK    5  A    between atoms: C_5  and  C_7
REMARK    6  A    between atoms: C_5  and  N_20
REMARK    7  A    between atoms: N_15  and  C_16
REMARK    8  A    between atoms: C_16  and  C_17
REMARK    9  A    between atoms: C_16  and  C_18
REMARK                            x       y       z     vdW  Elec       q    Type
REMARK                         _______ _______ _______ _____ _____    ______ ____
ROOT
ATOM      1  C   UNL     1      -2.831  -4.094  -0.117  0.00  0.00    +0.096 A 
ATOM      2  N   UNL     1      -2.511  -4.922   0.834  0.00  0.00    -0.234 NA
ATOM      3  C   UNL     1      -2.600  -6.198   0.378  0.00  0.00    +0.090 A 
ATOM      4  C   UNL     1      -2.376  -7.448   0.962  0.00  0.00    +0.045 A 
ATOM      5  C   UNL     1      -2.557  -8.592   0.218  0.00  0.00    +0.020 A 
ATOM      6  C   UNL     1      -2.961  -8.514  -1.108  0.00  0.00    +0.017 A 
ATOM      7  C   UNL     1      -3.187  -7.290  -1.698  0.00  0.00    +0.029 A 
ATOM      8  C   UNL     1      -3.010  -6.125  -0.964  0.00  0.00    +0.069 A 
ATOM      9  N   UNL     1      -3.153  -4.781  -1.246  0.00  0.00    -0.326 N 
ATOM     10 BR   UNL     1      -2.253 -10.283   1.009  0.00  0.00    -0.050 Br
ENDROOT
BRANCH   9  11
ATOM     11  C   UNL     1      -3.570  -4.202  -2.525  0.00  0.00    +0.083 C 
ATOM     12  C   UNL     1      -2.583  -4.616  -3.619  0.00  0.00    +0.030 C 
ATOM     13  C   UNL     1      -4.969  -4.708  -2.882  0.00  0.00    +0.030 C 
ENDBRANCH   9  11
BRANCH   1  14
ATOM     14  C   UNL     1      -2.848  -2.593   0.015  0.00  0.00    -0.007 C 
BRANCH  14  15
ATOM     15  N   UNL     1      -3.498  -2.220   1.279  0.00  0.00    +0.385 N 
ATOM     16  H   UNL     1      -3.510  -1.215   1.367  0.00  0.00    -0.089 HD
ATOM     17  H   UNL     1      -4.444  -2.569   1.286  0.00  0.00    -0.089 HD
ATOM     18  H   UNL     1      -2.986  -2.620   2.051  0.00  0.00    -0.089 HD
ENDBRANCH  14  15
BRANCH  14  19
ATOM     19  C   UNL     1      -1.413  -2.063   0.004  0.00  0.00    -0.009 C 
BRANCH  19  20
ATOM     20  C   UNL     1      -1.433  -0.534   0.013  0.00  0.00    -0.001 C 
BRANCH  20  22
ATOM     21  C   UNL     1      -0.019   1.526   0.010  0.00  0.00    +0.004 C 
ATOM     22  C   UNL     1       0.002  -0.004   0.002  0.00  0.00    -0.003 C 
ENDBRANCH  20  22
ENDBRANCH  19  20
ENDBRANCH  14  19
ENDBRANCH   1  14
TORSDOF 6
