REMARK  Name = ZINC38550268
REMARK  6 active torsions:
REMARK  status: ('A' for Active; 'I' for Inactive)
REMARK    1  A    between atoms: C_1  and  O_2
REMARK    2  A    between atoms: O_2  and  C_3
REMARK    3  A    between atoms: C_6  and  C_18
REMARK    4  A    between atoms: C_8  and  C_9
REMARK    5  A    between atoms: C_9  and  N_10
REMARK    6  A    between atoms: C_12  and  N_15
REMARK                            x       y       z     vdW  Elec       q    Type
REMARK                         _______ _______ _______ _____ _____    ______ ____
ROOT
ATOM      1  C   UNL     1      -1.200  -0.637   0.010  0.00  0.00    +0.125 A 
ATOM      2  C   UNL     1      -2.375   0.101   0.019  0.00  0.00    +0.046 A 
ATOM      3  C   UNL     1      -3.596  -0.545   0.027  0.00  0.00    +0.006 A 
ATOM      4  C   UNL     1      -3.648  -1.927   0.026  0.00  0.00    -0.055 A 
ATOM      5  C   UNL     1      -2.479  -2.665   0.017  0.00  0.00    +0.011 A 
ATOM      6  C   UNL     1      -1.255  -2.023   0.003  0.00  0.00    +0.010 A 
ENDROOT
BRANCH   4   7
ATOM      7  C   UNL     1      -4.981  -2.629   0.034  0.00  0.00    +0.007 C 
ATOM      8  C   UNL     1      -5.539  -2.641   1.437  0.00  0.00    +0.010 A 
ATOM      9  H   UNL     1      -3.915  -3.104   2.658  0.00  0.00    +0.166 HD
ATOM     10  C   UNL     1      -6.839  -2.389   1.714  0.00  0.00    -0.022 A 
ATOM     11  C   UNL     1      -6.998  -2.486   3.147  0.00  0.00    +0.003 A 
ATOM     12  C   UNL     1      -8.099  -2.327   3.994  0.00  0.00    +0.010 A 
ATOM     13  C   UNL     1      -7.878  -2.498   5.339  0.00  0.00    +0.001 A 
ATOM     14  C   UNL     1      -6.628  -2.813   5.845  0.00  0.00    +0.002 A 
ATOM     15  C   UNL     1      -5.521  -2.975   5.030  0.00  0.00    +0.026 A 
ATOM     16  C   UNL     1      -5.715  -2.809   3.661  0.00  0.00    +0.047 A 
ATOM     17  N   UNL     1      -4.860  -2.895   2.598  0.00  0.00    -0.359 N 
ATOM     18  C   UNL     1      -7.864  -2.077   0.652  0.00  0.00    +0.018 C 
ATOM     19  C   UNL     1      -7.271  -2.480  -0.705  0.00  0.00    -0.076 C 
ATOM     20  N   UNL     1      -5.921  -1.914  -0.843  0.00  0.00    +0.387 N 
ATOM     21  H   UNL     1      -5.942  -0.939  -0.586  0.00  0.00    -0.084 HD
ATOM     22  H   UNL     1      -5.616  -2.000  -1.801  0.00  0.00    -0.084 HD
ENDBRANCH   4   7
BRANCH   1  24
ATOM     23  C   UNL     1      -0.017   1.425   0.010  0.00  0.00    +0.277 C 
ATOM     24  O   UNL     1       0.002  -0.004   0.002  0.00  0.00    -0.495 OA
ENDBRANCH   1  24
BRANCH   6  25
ATOM     25  C   UNL     1       0.018  -2.829  -0.013  0.00  0.00    +0.144 C 
BRANCH  25  26
ATOM     26  N   UNL     1       0.611  -2.780  -1.356  0.00  0.00    -0.219 NA
ATOM     27  C   UNL     1       1.830  -3.611  -1.427  0.00  0.00    +0.167 C 
ATOM     28  C   UNL     1       2.921  -2.640  -1.820  0.00  0.00    +0.134 C 
ATOM     29  C   UNL     1       2.353  -1.457  -1.940  0.00  0.00    +0.114 C 
ATOM     30  N   UNL     1       1.000  -1.510  -1.674  0.00  0.00    -0.282 N 
ATOM     31  H   UNL     1       0.403  -0.746  -1.708  0.00  0.00    +0.166 HD
BRANCH  28  32
ATOM     32  N   UNL     1       4.352  -2.957  -2.029  0.00  0.00    +0.055 N 
ATOM     33  O   UNL     1       5.126  -2.082  -2.344  0.00  0.00    -0.126 OA
ATOM     34  O   UNL     1       4.747  -4.090  -1.885  0.00  0.00    -0.126 OA
ENDBRANCH  28  32
ENDBRANCH  25  26
ENDBRANCH   6  25
TORSDOF 5
