REMARK  Name = ZINC56204502
REMARK  16 active torsions:
REMARK  status: ('A' for Active; 'I' for Inactive)
REMARK    1  A    between atoms: C_1  and  C_2
REMARK    2  A    between atoms: C_2  and  C_3
REMARK    3  A    between atoms: C_2  and  C_4
REMARK    4  A    between atoms: C_4  and  C_6
REMARK    5  A    between atoms: C_4  and  N_13
REMARK    6  A    between atoms: N_8  and  C_9
REMARK    7  A    between atoms: C_9  and  C_10
REMARK    8  A    between atoms: C_9  and  C_11
REMARK    9  A    between atoms: C_9  and  C_12
REMARK   10  A    between atoms: N_13  and  C_14
REMARK   11  A    between atoms: C_14  and  C_15
REMARK   12  A    between atoms: C_15  and  C_16
REMARK   13  A    between atoms: C_19  and  O_22
REMARK   14  A    between atoms: O_22  and  C_23
REMARK   15  A    between atoms: C_23  and  C_24
REMARK   16  A    between atoms: N_26  and  C_27
REMARK                            x       y       z     vdW  Elec       q    Type
REMARK                         _______ _______ _______ _____ _____    ______ ____
ROOT
ATOM      1  C   UNL     1      -2.523   1.251  -1.079  0.00  0.00    -0.077 C 
ENDROOT
BRANCH   1   2
ATOM      2  N   UNL     1      -2.396  -0.212  -1.060  0.00  0.00    +0.387 N 
ATOM      3  H   UNL     1      -2.080  -0.534  -1.962  0.00  0.00    -0.085 HD
ATOM      4  H   UNL     1      -3.293  -0.625  -0.850  0.00  0.00    -0.085 HD
BRANCH   2   5
ATOM      5  C   UNL     1      -1.423  -0.606  -0.032  0.00  0.00    +0.019 C 
BRANCH   5   6
ATOM      6  C   UNL     1      -1.409  -2.107   0.097  0.00  0.00    +0.200 C 
ATOM      7  O   UNL     1      -1.965  -2.793  -0.735  0.00  0.00    -0.278 OA
ATOM      8  N   UNL     1      -0.777  -2.689   1.136  0.00  0.00    -0.312 N 
ATOM      9  H   UNL     1      -0.383  -2.140   1.832  0.00  0.00    +0.149 HD
BRANCH   8  10
ATOM     10  C   UNL     1      -0.687  -4.149   1.215  0.00  0.00    +0.026 C 
ATOM     11  C   UNL     1       0.055  -4.681  -0.013  0.00  0.00    +0.031 C 
ATOM     12  C   UNL     1       0.073  -4.545   2.482  0.00  0.00    +0.031 C 
ATOM     13  C   UNL     1      -2.096  -4.745   1.258  0.00  0.00    +0.031 C 
ENDBRANCH   8  10
ENDBRANCH   5   6
BRANCH   5  15
ATOM     14  C   UNL     1       0.953  -0.386   0.708  0.00  0.00    +0.006 C 
ATOM     15  C   UNL     1      -0.031  -0.115  -0.432  0.00  0.00    -0.023 C 
ATOM     16  C   UNL     1       0.429  -0.854  -1.690  0.00  0.00    +0.006 C 
ENDBRANCH   5  15
ENDBRANCH   2   5
ENDBRANCH   1   2
BRANCH   1  17
ATOM     17  C   UNL     1      -3.636   1.654  -2.047  0.00  0.00    +0.016 C 
BRANCH  17  18
ATOM     18  C   UNL     1      -3.767   3.155  -2.067  0.00  0.00    -0.049 A 
ATOM     19  C   UNL     1      -4.619   3.786  -1.179  0.00  0.00    +0.007 A 
ATOM     20  C   UNL     1      -4.741   5.162  -1.195  0.00  0.00    +0.046 A 
ATOM     21  C   UNL     1      -4.006   5.911  -2.102  0.00  0.00    +0.121 A 
ATOM     22  C   UNL     1      -3.151   5.277  -2.991  0.00  0.00    +0.046 A 
ATOM     23  C   UNL     1      -3.029   3.901  -2.968  0.00  0.00    +0.007 A 
BRANCH  21  24
ATOM     24  O   UNL     1      -4.124   7.265  -2.120  0.00  0.00    -0.483 OA
BRANCH  24  25
ATOM     25  C   UNL     1      -3.337   7.972  -3.081  0.00  0.00    +0.324 C 
BRANCH  25  26
ATOM     26  C   UNL     1      -3.598   9.451  -2.953  0.00  0.00    +0.251 C 
ATOM     27  O   UNL     1      -4.381   9.859  -2.121  0.00  0.00    -0.272 OA
ATOM     28  N   UNL     1      -2.962  10.320  -3.764  0.00  0.00    -0.310 N 
ATOM     29  H   UNL     1      -2.336   9.993  -4.429  0.00  0.00    +0.149 HD
BRANCH  28  30
ATOM     30  C   UNL     1      -3.215  11.757  -3.639  0.00  0.00    +0.073 C 
ATOM     31  C   UNL     1      -3.400  12.556  -4.931  0.00  0.00    +0.024 C 
ATOM     32  C   UNL     1      -2.117  12.712  -4.113  0.00  0.00    +0.024 C 
ENDBRANCH  28  30
ENDBRANCH  25  26
ENDBRANCH  24  25
ENDBRANCH  21  24
ENDBRANCH  17  18
ENDBRANCH   1  17
TORSDOF 11
