REMARK  Name = ZINC19802157
REMARK  9 active torsions:
REMARK  status: ('A' for Active; 'I' for Inactive)
REMARK    1  A    between atoms: C_1  and  N_2
REMARK    2  A    between atoms: N_2  and  C_3
REMARK    3  A    between atoms: N_2  and  C_4
REMARK    4  A    between atoms: C_4  and  C_5
REMARK    5  A    between atoms: C_5  and  O_6
REMARK    6  A    between atoms: O_6  and  C_7
REMARK    7  A    between atoms: C_12  and  C_13
REMARK    8  A    between atoms: N_14  and  N_15
REMARK    9  A    between atoms: N_18  and  C_21
REMARK                            x       y       z     vdW  Elec       q    Type
REMARK                         _______ _______ _______ _____ _____    ______ ____
ROOT
ATOM      1  N   UNL     1      -7.392  -0.537   0.976  0.00  0.00    -0.253 N 
ATOM      2  C   UNL     1      -6.146   0.051   1.491  0.00  0.00    +0.141 C 
ATOM      3  C   UNL     1      -5.866   1.348   0.725  0.00  0.00    +0.105 C 
ATOM      4  N   UNL     1      -5.873   1.071  -0.718  0.00  0.00    -0.292 NA
ATOM      5  C   UNL     1      -7.193   0.609  -1.166  0.00  0.00    +0.105 C 
ATOM      6  C   UNL     1      -7.528  -0.718  -0.477  0.00  0.00    +0.141 C 
ENDROOT
BRANCH   4   7
ATOM      7  C   UNL     1      -5.440   2.249  -1.482  0.00  0.00    +0.092 C 
ATOM      8  C   UNL     1      -6.329   3.392  -1.112  0.00  0.00    +0.060 C 
ATOM      9  C   UNL     1      -6.221   4.548  -2.053  0.00  0.00    -0.032 A 
ATOM     10  C   UNL     1      -7.194   4.725  -3.029  0.00  0.00    +0.005 A 
ATOM     11  C   UNL     1      -7.058   5.744  -3.953  0.00  0.00    +0.000 A 
ATOM     12  C   UNL     1      -5.963   6.587  -3.913  0.00  0.00    +0.001 A 
ATOM     13  C   UNL     1      -5.003   6.422  -2.931  0.00  0.00    +0.015 A 
ATOM     14  C   UNL     1      -5.153   5.396  -2.004  0.00  0.00    +0.016 A 
ATOM     15  S   UNL     1      -3.976   5.179  -0.717  0.00  0.00    -0.089 S 
ATOM     16  C   UNL     1      -3.273   3.588  -0.958  0.00  0.00    +0.018 A 
ATOM     17  C   UNL     1      -3.967   2.440  -1.248  0.00  0.00    -0.015 A 
ATOM     18  C   UNL     1      -3.246   1.244  -1.382  0.00  0.00    +0.026 A 
ATOM     19  C   UNL     1      -1.879   1.194  -1.253  0.00  0.00    +0.041 A 
ATOM     20  C   UNL     1      -1.179   2.356  -0.978  0.00  0.00    +0.021 A 
ATOM     21  C   UNL     1      -1.873   3.531  -0.832  0.00  0.00    +0.017 A 
ATOM     22 CL   UNL     1      -1.038  -0.314  -1.431  0.00  0.00    -0.084 Cl
ENDBRANCH   4   7
BRANCH   1  24
ATOM     23  C   UNL     1      -8.866  -2.133   1.838  0.00  0.00    +0.141 C 
ATOM     24  N   UNL     1      -8.423  -0.914   1.847  0.00  0.00    -0.192 NA
BRANCH  23  30
ATOM     25  C   UNL     1      -8.831  -4.353   0.705  0.00  0.00    +0.129 A 
ATOM     26  C   UNL     1      -8.171  -5.315  -0.041  0.00  0.00    +0.046 A 
ATOM     27  C   UNL     1      -6.867  -5.102  -0.449  0.00  0.00    +0.004 A 
ATOM     28  C   UNL     1      -6.213  -3.929  -0.115  0.00  0.00    +0.001 A 
ATOM     29  C   UNL     1      -6.857  -2.958   0.623  0.00  0.00    +0.013 A 
ATOM     30  C   UNL     1      -8.173  -3.164   1.045  0.00  0.00    +0.036 A 
BRANCH  25  31
ATOM     31  O   UNL     1     -10.112  -4.562   1.106  0.00  0.00    -0.493 OA
BRANCH  31  32
ATOM     32  C   UNL     1     -10.682  -5.841   0.819  0.00  0.00    +0.210 C 
BRANCH  32  33
ATOM     33  C   UNL     1     -12.147  -5.857   1.259  0.00  0.00    -0.038 C 
BRANCH  33  35
ATOM     34  C   UNL     1     -13.127  -5.287  -0.880  0.00  0.00    -0.096 C 
ATOM     35  N   UNL     1     -12.897  -4.846   0.502  0.00  0.00    +0.378 N 
ATOM     36  C   UNL     1     -14.165  -4.522   1.169  0.00  0.00    -0.096 C 
ATOM     37  H   UNL     1     -12.290  -3.930   0.469  0.00  0.00    -0.082 HD
ENDBRANCH  33  35
ENDBRANCH  32  33
ENDBRANCH  31  32
ENDBRANCH  25  31
ENDBRANCH  23  30
ENDBRANCH   1  24
TORSDOF 7
