REMARK  Name = ZINC12531684
REMARK  11 active torsions:
REMARK  status: ('A' for Active; 'I' for Inactive)
REMARK    1  A    between atoms: C_1  and  C_2
REMARK    2  A    between atoms: C_7  and  N_73
REMARK    3  A    between atoms: C_10  and  N_73
REMARK    4  A    between atoms: C_13  and  C_31
REMARK    5  A    between atoms: C_13  and  C_32
REMARK    6  A    between atoms: C_16  and  C_23
REMARK    7  A    between atoms: C_19  and  C_21
REMARK    8  A    between atoms: C_19  and  O_22
REMARK    9  A    between atoms: C_23  and  C_24
REMARK   10  A    between atoms: C_24  and  C_25
REMARK   11  A    between atoms: N_27  and  C_28
REMARK                            x       y       z     vdW  Elec       q    Type
REMARK                         _______ _______ _______ _____ _____    ______ ____
ROOT
ATOM      1  C   UNL     1      -0.612  -2.293   1.325  0.00  0.00    -0.064 C 
ATOM      2  C   UNL     1      -1.024  -3.447   2.277  0.00  0.00    -0.009 C 
ATOM      3  C   UNL     1      -1.930  -4.317   1.365  0.00  0.00    -0.033 C 
ATOM      4  C   UNL     1      -2.726  -3.273   0.547  0.00  0.00    +0.002 C 
ATOM      5  C   UNL     1      -1.904  -2.008   0.524  0.00  0.00    -0.038 C 
ATOM      6  C   UNL     1      -1.591  -1.347  -0.775  0.00  0.00    +0.008 C 
ATOM      7  C   UNL     1      -2.019  -2.028  -2.039  0.00  0.00    +0.035 C 
ATOM      8  C   UNL     1      -3.340  -2.765  -1.824  0.00  0.00    +0.064 C 
ATOM      9  C   UNL     1      -3.089  -3.867  -0.794  0.00  0.00    +0.039 C 
ATOM     10  C   UNL     1      -3.810  -3.384  -3.142  0.00  0.00    +0.041 C 
ATOM     11  C   UNL     1      -2.874  -5.178   2.205  0.00  0.00    +0.011 C 
ATOM     12  C   UNL     1      -1.084  -5.194   0.440  0.00  0.00    +0.011 C 
ENDROOT
BRANCH   1  13
ATOM     13  N   UNL     1      -0.214  -1.100   2.096  0.00  0.00    +0.383 N 
ATOM     14  H   UNL     1      -0.350  -0.262   1.518  0.00  0.00    -0.085 HD
ATOM     15  H   UNL     1      -0.796  -1.032   2.939  0.00  0.00    -0.085 HD
BRANCH  13  22
ATOM     16  C   UNL     1       4.724   0.983   5.368  0.00  0.00    +0.109 C 
ATOM     17  C   UNL     1       4.022  -0.351   5.358  0.00  0.00    +0.212 C 
ATOM     18  O   UNL     1       4.037  -1.052   6.348  0.00  0.00    -0.276 OA
ATOM     19  N   UNL     1       3.377  -0.765   4.249  0.00  0.00    -0.302 N 
ATOM     20  C   UNL     1       3.241   0.124   3.087  0.00  0.00    +0.106 C 
ATOM     21  C   UNL     1       1.760   0.216   2.708  0.00  0.00    +0.003 C 
ATOM     22  C   UNL     1       1.205  -1.194   2.490  0.00  0.00    -0.069 C 
ATOM     23  C   UNL     1       1.322  -1.996   3.788  0.00  0.00    +0.003 C 
ATOM     24  C   UNL     1       2.798  -2.113   4.179  0.00  0.00    +0.106 C 
ENDBRANCH  13  22
ENDBRANCH   1  13
BRANCH   8  25
ATOM     25  O   UNL     1      -4.329  -1.859  -1.333  0.00  0.00    -0.389 OA
ATOM     26  H   UNL     1      -4.535  -1.134  -1.940  0.00  0.00    +0.210 HD
ENDBRANCH   8  25
BRANCH   5  27
ATOM     27  C   UNL     1      -2.682  -0.982   1.351  0.00  0.00    +0.015 C 
BRANCH  27  28
ATOM     28  C   UNL     1      -3.992  -0.640   0.639  0.00  0.00    +0.096 C 
BRANCH  28  29
ATOM     29  C   UNL     1      -4.729   0.416   1.422  0.00  0.00    +0.213 C 
ATOM     30  O   UNL     1      -4.253   0.852   2.449  0.00  0.00    -0.276 OA
ATOM     31  N   UNL     1      -5.917   0.875   0.981  0.00  0.00    -0.312 N 
ATOM     32  H   UNL     1      -6.297   0.526   0.160  0.00  0.00    +0.149 HD
BRANCH  31  33
ATOM     33  C   UNL     1      -6.633   1.902   1.742  0.00  0.00    +0.073 C 
ATOM     34  C   UNL     1      -8.140   1.718   1.931  0.00  0.00    +0.024 C 
ATOM     35  C   UNL     1      -7.614   2.793   0.977  0.00  0.00    +0.024 C 
ENDBRANCH  31  33
ENDBRANCH  28  29
ENDBRANCH  27  28
ENDBRANCH   5  27
TORSDOF 7
