REMARK  Name = ZINC63676494
REMARK  7 active torsions:
REMARK  status: ('A' for Active; 'I' for Inactive)
REMARK    1  A    between atoms: C_1  and  C_2
REMARK    2  A    between atoms: C_7  and  C_27
REMARK    3  A    between atoms: C_9  and  C_12
REMARK    4  A    between atoms: C_12  and  C_13
REMARK    5  A    between atoms: C_13  and  N_14
REMARK    6  A    between atoms: N_17  and  S_18
REMARK    7  A    between atoms: S_18  and  C_21
REMARK                            x       y       z     vdW  Elec       q    Type
REMARK                         _______ _______ _______ _____ _____    ______ ____
ROOT
ATOM      1  N   UNL     1       0.039  -1.037   5.336  0.00  0.00    -0.355 N 
ATOM      2  C   UNL     1       0.025   0.255   5.807  0.00  0.00    +0.215 C 
ATOM      3  N   UNL     1       0.008   1.308   4.924  0.00  0.00    -0.369 N 
ATOM      4  N   UNL     1       0.027   0.480   7.091  0.00  0.00    -0.093 NA
ATOM      5  H   UNL     1       0.051  -1.780   5.959  0.00  0.00    +0.163 HD
ATOM      6  H   UNL     1       0.006   1.140   3.969  0.00  0.00    +0.159 HD
ATOM      7  H   UNL     1      -0.002   2.219   5.256  0.00  0.00    +0.159 HD
ENDROOT
BRANCH   4   8
ATOM      8  S   UNL     1       0.009   2.036   7.658  0.00  0.00    +0.102 S 
ATOM      9  O   UNL     1       1.246   2.622   7.275  0.00  0.00    -0.146 OA
ATOM     10  O   UNL     1      -1.244   2.590   7.285  0.00  0.00    -0.146 OA
BRANCH   8  11
ATOM     11  C   UNL     1       0.018   1.949   9.418  0.00  0.00    +0.113 A 
ATOM     12  C   UNL     1      -1.176   1.894  10.113  0.00  0.00    +0.029 A 
ATOM     13  C   UNL     1      -1.170   1.825  11.493  0.00  0.00    +0.002 A 
ATOM     14  C   UNL     1       0.030   1.812  12.179  0.00  0.00    +0.000 A 
ATOM     15  C   UNL     1       1.224   1.866  11.485  0.00  0.00    +0.002 A 
ATOM     16  C   UNL     1       1.218   1.930  10.104  0.00  0.00    +0.029 A 
ENDBRANCH   8  11
ENDBRANCH   4   8
BRANCH   1  17
ATOM     17  C   UNL     1       0.037  -1.291   3.893  0.00  0.00    +0.120 C 
BRANCH  17  18
ATOM     18  C   UNL     1       0.055  -2.799   3.641  0.00  0.00    +0.054 C 
BRANCH  18  26
ATOM     19  C   UNL     1      -0.018   1.503   0.010  0.00  0.00    +0.044 C 
ATOM     20  C   UNL     1       0.002  -0.004   0.002  0.00  0.00    -0.050 A 
ATOM     21  C   UNL     1       0.005  -0.680  -1.226  0.00  0.00    +0.005 A 
ATOM     22  C   UNL     1       0.023  -2.026  -1.317  0.00  0.00    +0.026 A 
ATOM     23  C   UNL     1       0.039  -2.826  -0.141  0.00  0.00    +0.043 A 
ATOM     24  N   UNL     1       0.057  -4.126   0.030  0.00  0.00    -0.378 N 
ATOM     25  C   UNL     1       0.067  -4.408   1.470  0.00  0.00    +0.103 C 
ATOM     26  C   UNL     1       0.052  -3.060   2.156  0.00  0.00    -0.037 C 
ATOM     27  C   UNL     1       0.036  -2.137   1.168  0.00  0.00    -0.001 A 
ATOM     28  C   UNL     1       0.022  -0.669   1.180  0.00  0.00    +0.013 A 
ATOM     29  C   UNL     1       1.333  -5.180   1.847  0.00  0.00    +0.035 C 
ATOM     30  H   UNL     1       0.062  -4.790  -0.677  0.00  0.00    +0.160 HD
ENDBRANCH  18  26
ENDBRANCH  17  18
ENDBRANCH   1  17
TORSDOF 5
