REMARK  Name = ZINC07006277
REMARK  8 active torsions:
REMARK  status: ('A' for Active; 'I' for Inactive)
REMARK    1  A    between atoms: C_1  and  N_45
REMARK    2  A    between atoms: C_2  and  C_3
REMARK    3  A    between atoms: C_2  and  N_45
REMARK    4  A    between atoms: C_3  and  N_4
REMARK    5  A    between atoms: N_4  and  S_5
REMARK    6  A    between atoms: S_5  and  C_8
REMARK    7  A    between atoms: C_10  and  C_13
REMARK    8  A    between atoms: C_16  and  N_45
REMARK                            x       y       z     vdW  Elec       q    Type
REMARK                         _______ _______ _______ _____ _____    ______ ____
ROOT
ATOM      1  N   UNL     1      -1.870   4.915   0.071  0.00  0.00    -0.192 NA
ATOM      2  H   UNL     1      -1.584   5.428   0.844  0.00  0.00    +0.148 HD
ENDROOT
BRANCH   1   3
ATOM      3  S   UNL     1      -2.496   5.691  -1.251  0.00  0.00    +0.059 S 
ATOM      4  O   UNL     1      -2.508   7.078  -0.941  0.00  0.00    -0.153 OA
ATOM      5  O   UNL     1      -1.818   5.170  -2.386  0.00  0.00    -0.153 OA
BRANCH   3   6
ATOM      6  C   UNL     1      -4.180   5.194  -1.399  0.00  0.00    +0.113 A 
ATOM      7  C   UNL     1      -4.516   4.094  -2.148  0.00  0.00    +0.049 A 
ATOM      8  C   UNL     1      -5.860   3.761  -2.213  0.00  0.00    +0.076 A 
ATOM      9  S   UNL     1      -6.602   5.038  -1.212  0.00  0.00    -0.090 S 
ATOM     10  C   UNL     1      -5.162   5.897  -0.776  0.00  0.00    +0.074 A 
BRANCH   8  11
ATOM     11  C   UNL     1      -6.504   2.653  -2.925  0.00  0.00    +0.248 C 
ATOM     12  O   UNL     1      -5.830   1.869  -3.567  0.00  0.00    -0.270 OA
ATOM     13  N   UNL     1      -7.842   2.502  -2.867  0.00  0.00    -0.325 N 
ATOM     14  H   UNL     1      -8.379   3.127  -2.355  0.00  0.00    +0.145 HD
ATOM     15  H   UNL     1      -8.268   1.769  -3.338  0.00  0.00    +0.145 HD
ENDBRANCH   8  11
ENDBRANCH   3   6
ENDBRANCH   1   3
BRANCH   1  16
ATOM     16  C   UNL     1      -1.748   3.455   0.075  0.00  0.00    +0.087 C 
BRANCH  16  17
ATOM     17  C   UNL     1      -0.822   3.023   1.213  0.00  0.00    -0.062 C 
BRANCH  17  19
ATOM     18  C   UNL     1      -0.013   1.086   0.008  0.00  0.00    -0.096 C 
ATOM     19  N   UNL     1      -0.727   1.548   1.217  0.00  0.00    +0.381 N 
ATOM     20  H   UNL     1      -1.674   1.153   1.216  0.00  0.00    -0.082 HD
BRANCH  19  21
ATOM     21  C   UNL     1      -0.016   1.091   2.429  0.00  0.00    -0.069 C 
ATOM     22  C   UNL     1       1.427   1.599   2.429  0.00  0.00    -0.015 C 
ATOM     23  C   UNL     1       2.139   1.111   3.692  0.00  0.00    -0.002 C 
ATOM     24  C   UNL     1       2.137  -0.419   3.720  0.00  0.00    -0.000 C 
ATOM     25  C   UNL     1       0.694  -0.926   3.720  0.00  0.00    -0.002 C 
ATOM     26  C   UNL     1      -0.018  -0.439   2.457  0.00  0.00    -0.015 C 
ENDBRANCH  19  21
ENDBRANCH  17  19
ENDBRANCH  16  17
ENDBRANCH   1  16
TORSDOF 7
