REMARK  Name = ZINC09542108
REMARK  10 active torsions:
REMARK  status: ('A' for Active; 'I' for Inactive)
REMARK    1  A    between atoms: C_1  and  C_2
REMARK    2  A    between atoms: C_2  and  C_3
REMARK    3  A    between atoms: C_6  and  C_9
REMARK    4  A    between atoms: C_11  and  C_23
REMARK    5  A    between atoms: C_11  and  C_24
REMARK    6  A    between atoms: C_12  and  C_15
REMARK    7  A    between atoms: C_20  and  O_21
REMARK    8  A    between atoms: C_24  and  C_25
REMARK    9  A    between atoms: C_25  and  C_26
REMARK   10  A    between atoms: C_25  and  C_27
REMARK                            x       y       z     vdW  Elec       q    Type
REMARK                         _______ _______ _______ _____ _____    ______ ____
ROOT
ATOM      1  C   UNL     1       1.338  -0.719   0.706  0.00  0.00    +0.040 C 
ATOM      2  N   UNL     1       0.259  -0.032   0.725  0.00  0.00    -0.300 NA
ATOM      3  C   UNL     1       0.211   1.419   0.594  0.00  0.00    +0.026 C 
ATOM      4  C   UNL     1       2.559   1.336   0.052  0.00  0.00    -0.028 C 
ATOM      5  C   UNL     1       2.701  -0.103   0.557  0.00  0.00    +0.044 C 
ATOM      6  C   UNL     1      -0.225   1.784  -0.827  0.00  0.00    +0.014 C 
ATOM      7  N   UNL     1       1.529   2.011   0.865  0.00  0.00    +0.400 N 
ATOM      8  H   UNL     1       1.754   1.901   1.861  0.00  0.00    -0.081 HD
ATOM      9  H   UNL     1       1.509   3.010   0.627  0.00  0.00    -0.081 HD
ENDROOT
BRANCH   4  10
ATOM     10  C   UNL     1       3.874   2.058   0.199  0.00  0.00    -0.018 A 
ATOM     11  C   UNL     1       4.117   2.828   1.320  0.00  0.00    +0.020 A 
ATOM     12  C   UNL     1       5.324   3.491   1.456  0.00  0.00    +0.018 A 
ATOM     13  C   UNL     1       6.288   3.385   0.469  0.00  0.00    +0.019 A 
ATOM     14  C   UNL     1       6.049   2.617  -0.653  0.00  0.00    +0.047 A 
ATOM     15  C   UNL     1       4.842   1.946  -0.788  0.00  0.00    +0.119 A 
ATOM     16 BR   UNL     1       5.655   4.544   2.991  0.00  0.00    -0.050 Br
BRANCH  15  17
ATOM     17  O   UNL     1       4.606   1.184  -1.888  0.00  0.00    -0.507 OA
ATOM     18  H   UNL     1       4.198   1.666  -2.620  0.00  0.00    +0.292 HD
ENDBRANCH  15  17
ENDBRANCH   4  10
BRANCH   1  22
ATOM     19  C   UNL     1       1.054  -4.938   1.086  0.00  0.00    -0.048 A 
ATOM     20  C   UNL     1      -0.094  -4.167   1.102  0.00  0.00    +0.004 A 
ATOM     21  C   UNL     1      -0.009  -2.795   0.980  0.00  0.00    +0.010 A 
ATOM     22  C   UNL     1       1.239  -2.186   0.839  0.00  0.00    -0.004 A 
ATOM     23  C   UNL     1       2.393  -2.971   0.818  0.00  0.00    +0.010 A 
ATOM     24  C   UNL     1       2.295  -4.341   0.947  0.00  0.00    +0.004 A 
BRANCH  19  26
ATOM     25  C   UNL     1       0.817  -7.065  -0.168  0.00  0.00    +0.009 C 
ATOM     26  C   UNL     1       0.954  -6.436   1.221  0.00  0.00    +0.032 C 
ENDBRANCH  19  26
ENDBRANCH   1  22
BRANCH   3  27
ATOM     27  C   UNL     1      -0.804   1.982   1.591  0.00  0.00    +0.013 C 
BRANCH  27  28
ATOM     28  C   UNL     1      -2.209   1.513   1.208  0.00  0.00    -0.017 C 
ATOM     29  C   UNL     1      -2.307  -0.004   1.381  0.00  0.00    +0.007 C 
ATOM     30  C   UNL     1      -3.239   2.197   2.110  0.00  0.00    +0.007 C 
ENDBRANCH  27  28
ENDBRANCH   3  27
TORSDOF 6
