REMARK  Name = ZINC59022930
REMARK  8 active torsions:
REMARK  status: ('A' for Active; 'I' for Inactive)
REMARK    1  A    between atoms: C_1  and  C_2
REMARK    2  A    between atoms: C_2  and  C_22
REMARK    3  A    between atoms: N_3  and  N_4
REMARK    4  A    between atoms: C_7  and  S_10
REMARK    5  A    between atoms: S_10  and  C_11
REMARK    6  A    between atoms: C_11  and  C_12
REMARK    7  A    between atoms: N_14  and  C_15
REMARK    8  A    between atoms: C_23  and  C_24
REMARK                            x       y       z     vdW  Elec       q    Type
REMARK                         _______ _______ _______ _____ _____    ______ ____
ROOT
ATOM      1  N   UNL     1      -0.128  -2.011   1.533  0.00  0.00    -0.205 N 
ATOM      2  C   UNL     1      -0.201  -2.603   2.780  0.00  0.00    +0.232 A 
ATOM      3  N   UNL     1      -0.197  -1.975   3.937  0.00  0.00    -0.186 NA
ATOM      4  C   UNL     1      -0.280  -2.865   4.932  0.00  0.00    +0.211 A 
ATOM      5  N   UNL     1      -0.338  -4.072   4.421  0.00  0.00    -0.144 NA
ATOM      6  N   UNL     1      -0.293  -3.928   3.025  0.00  0.00    -0.245 N 
ATOM      7  H   UNL     1      -0.142  -2.560   0.733  0.00  0.00    +0.177 HD
ATOM      8  H   UNL     1      -0.322  -4.640   2.366  0.00  0.00    +0.192 HD
ENDROOT
BRANCH   1  11
ATOM      9  C   UNL     1      -0.078   1.451   0.138  0.00  0.00    +0.067 C 
ATOM     10  C   UNL     1      -0.064  -0.052   0.251  0.00  0.00    +0.056 C 
ATOM     11  N   UNL     1      -0.034  -0.617   1.424  0.00  0.00    -0.185 NA
BRANCH  10  12
ATOM     12  C   UNL     1      -0.084  -0.850  -0.921  0.00  0.00    +0.025 C 
ATOM     13  C   UNL     1      -0.010  -0.268  -2.135  0.00  0.00    +0.010 C 
BRANCH  13  14
ATOM     14  C   UNL     1      -0.143  -1.085  -3.352  0.00  0.00    -0.025 A 
ATOM     15  C   UNL     1      -0.353  -2.463  -3.254  0.00  0.00    +0.008 A 
ATOM     16  C   UNL     1      -0.477  -3.222  -4.399  0.00  0.00    +0.001 A 
ATOM     17  C   UNL     1      -0.395  -2.622  -5.643  0.00  0.00    +0.000 A 
ATOM     18  C   UNL     1      -0.187  -1.258  -5.749  0.00  0.00    +0.001 A 
ATOM     19  C   UNL     1      -0.067  -0.485  -4.613  0.00  0.00    +0.008 A 
ENDBRANCH  13  14
ENDBRANCH  10  12
ENDBRANCH   1  11
BRANCH   4  20
ATOM     20  S   UNL     1      -0.307  -2.478   6.651  0.00  0.00    -0.075 S 
BRANCH  20  21
ATOM     21  C   UNL     1      -0.429  -4.096   7.462  0.00  0.00    +0.173 C 
BRANCH  21  22
ATOM     22  C   UNL     1      -0.461  -3.907   8.957  0.00  0.00    +0.227 C 
ATOM     23  O   UNL     1      -0.408  -2.791   9.428  0.00  0.00    -0.275 OA
ATOM     24  N   UNL     1      -0.550  -4.978   9.770  0.00  0.00    -0.285 N 
ATOM     25  H   UNL     1      -0.660  -5.865   9.393  0.00  0.00    +0.155 HD
BRANCH  24  26
ATOM     26  C   UNL     1      -0.484  -4.811  11.158  0.00  0.00    +0.033 A 
ATOM     27  C   UNL     1       0.139  -5.770  11.945  0.00  0.00    +0.024 A 
ATOM     28  C   UNL     1       0.202  -5.602  13.315  0.00  0.00    +0.017 A 
ATOM     29  C   UNL     1      -0.354  -4.479  13.902  0.00  0.00    +0.018 A 
ATOM     30  C   UNL     1      -0.975  -3.522  13.120  0.00  0.00    +0.017 A 
ATOM     31  C   UNL     1      -1.037  -3.683  11.749  0.00  0.00    +0.024 A 
ATOM     32 BR   UNL     1      -0.265  -4.253  15.777  0.00  0.00    -0.050 Br
ENDBRANCH  24  26
ENDBRANCH  21  22
ENDBRANCH  20  21
ENDBRANCH   4  20
TORSDOF 7
