REMARK  Name = ZINC62617511
REMARK  6 active torsions:
REMARK  status: ('A' for Active; 'I' for Inactive)
REMARK    1  A    between atoms: C_1  and  C_2
REMARK    2  A    between atoms: C_4  and  O_26
REMARK    3  A    between atoms: C_6  and  C_25
REMARK    4  A    between atoms: C_7  and  S_8
REMARK    5  A    between atoms: S_8  and  N_11
REMARK    6  A    between atoms: O_26  and  C_27
REMARK                            x       y       z     vdW  Elec       q    Type
REMARK                         _______ _______ _______ _____ _____    ______ ____
ROOT
ATOM      1  N   UNL     1      -0.890   0.380   3.436  0.00  0.00    -0.172 NA
ATOM      2  C   UNL     1      -1.615   1.613   3.087  0.00  0.00    +0.114 C 
ATOM      3  C   UNL     1      -2.914   1.212   2.391  0.00  0.00    +0.052 C 
ATOM      4  C   UNL     1      -3.624   0.129   3.161  0.00  0.00    -0.038 A 
ATOM      5  C   UNL     1      -4.981  -0.046   2.921  0.00  0.00    +0.053 A 
ATOM      6  C   UNL     1      -5.694  -1.029   3.585  0.00  0.00    +0.162 A 
ATOM      7  C   UNL     1      -5.045  -1.850   4.500  0.00  0.00    +0.162 A 
ATOM      8  C   UNL     1      -3.694  -1.669   4.740  0.00  0.00    +0.054 A 
ATOM      9  C   UNL     1      -2.985  -0.677   4.076  0.00  0.00    -0.025 A 
ATOM     10  C   UNL     1      -1.524  -0.523   4.401  0.00  0.00    +0.145 C 
ATOM     11  O   UNL     1      -5.720  -2.832   5.157  0.00  0.00    -0.485 OA
ATOM     12  C   UNL     1      -7.149  -2.736   5.165  0.00  0.00    +0.270 C 
ATOM     13  C   UNL     1      -7.617  -2.419   3.738  0.00  0.00    +0.270 C 
ATOM     14  O   UNL     1      -7.024  -1.179   3.337  0.00  0.00    -0.485 OA
ENDROOT
BRANCH   1  15
ATOM     15  S   UNL     1       0.580   0.025   2.761  0.00  0.00    +0.062 S 
ATOM     16  O   UNL     1       1.295  -0.738   3.723  0.00  0.00    -0.153 OA
ATOM     17  O   UNL     1       1.085   1.241   2.225  0.00  0.00    -0.153 OA
BRANCH  15  24
ATOM     18  C   UNL     1      -0.210   0.981   0.004  0.00  0.00    +0.046 C 
ATOM     19  C   UNL     1      -0.077  -0.511   0.167  0.00  0.00    -0.020 A 
ATOM     20  C   UNL     1      -0.306  -1.346  -0.909  0.00  0.00    +0.051 A 
ATOM     21  C   UNL     1      -0.184  -2.719  -0.759  0.00  0.00    +0.121 A 
ATOM     22  C   UNL     1       0.169  -3.251   0.473  0.00  0.00    +0.051 A 
ATOM     23  C   UNL     1       0.398  -2.412   1.546  0.00  0.00    -0.020 A 
ATOM     24  C   UNL     1       0.281  -1.043   1.392  0.00  0.00    +0.111 A 
ATOM     25  C   UNL     1       0.781  -2.989   2.885  0.00  0.00    +0.046 C 
BRANCH  21  26
ATOM     26  O   UNL     1      -0.410  -3.543  -1.816  0.00  0.00    -0.495 OA
ATOM     27  C   UNL     1      -0.265  -4.946  -1.588  0.00  0.00    +0.277 C 
ENDBRANCH  21  26
ENDBRANCH  15  24
ENDBRANCH   1  15
TORSDOF 3
