REMARK  Name = ZINC66991735
REMARK  9 active torsions:
REMARK  status: ('A' for Active; 'I' for Inactive)
REMARK    1  A    between atoms: C_1  and  C_2
REMARK    2  A    between atoms: C_2  and  C_9
REMARK    3  A    between atoms: C_13  and  C_15
REMARK    4  A    between atoms: C_15  and  N_16
REMARK    5  A    between atoms: N_16  and  C_17
REMARK    6  A    between atoms: C_17  and  C_18
REMARK    7  A    between atoms: C_21  and  O_25
REMARK    8  A    between atoms: O_25  and  C_26
REMARK    9  A    between atoms: C_26  and  C_27
REMARK                            x       y       z     vdW  Elec       q    Type
REMARK                         _______ _______ _______ _____ _____    ______ ____
ROOT
ATOM      1  C   UNL     1      -1.401  -0.551  -0.040  0.00  0.00    -0.015 A 
ATOM      2  C   UNL     1      -1.853  -1.374   0.976  0.00  0.00    +0.006 A 
ATOM      3  C   UNL     1      -3.140  -1.876   0.937  0.00  0.00    +0.001 A 
ATOM      4  C   UNL     1      -3.976  -1.556  -0.117  0.00  0.00    +0.002 A 
ATOM      5  C   UNL     1      -3.525  -0.733  -1.131  0.00  0.00    -0.064 A 
ATOM      6  C   UNL     1      -2.239  -0.227  -1.091  0.00  0.00    +0.008 A 
ENDROOT
BRANCH   1   8
ATOM      7  C   UNL     1      -0.019   1.526   0.010  0.00  0.00    +0.047 C 
ATOM      8  C   UNL     1       0.002  -0.004   0.002  0.00  0.00    +0.135 C 
ATOM      9  C   UNL     1       0.815  -0.520  -1.169  0.00  0.00    +0.248 C 
ATOM     10  O   UNL     1       0.595  -0.342  -2.348  0.00  0.00    -0.273 OA
ATOM     11  N   UNL     1       1.833  -1.217  -0.627  0.00  0.00    -0.238 N 
ATOM     12  C   UNL     1       1.777  -1.214   0.710  0.00  0.00    +0.307 C 
ATOM     13  O   UNL     1       2.586  -1.776   1.421  0.00  0.00    -0.252 OA
ATOM     14  N   UNL     1       0.724  -0.519   1.178  0.00  0.00    -0.282 N 
ATOM     15  H   UNL     1       2.520  -1.667  -1.143  0.00  0.00    +0.159 HD
ATOM     16  H   UNL     1       0.487  -0.383   2.109  0.00  0.00    +0.152 HD
ENDBRANCH   1   8
BRANCH   5  17
ATOM     17  C   UNL     1      -4.435  -0.384  -2.280  0.00  0.00    -0.046 C 
BRANCH  17  18
ATOM     18  N   UNL     1      -5.185   0.837  -1.958  0.00  0.00    +0.384 N 
ATOM     19  H   UNL     1      -5.736   0.683  -1.126  0.00  0.00    -0.085 HD
ATOM     20  H   UNL     1      -4.540   1.596  -1.798  0.00  0.00    -0.085 HD
BRANCH  18  21
ATOM     21  C   UNL     1      -6.073   1.177  -3.077  0.00  0.00    -0.046 C 
BRANCH  21  22
ATOM     22  C   UNL     1      -6.843   2.430  -2.746  0.00  0.00    -0.063 A 
ATOM     23  C   UNL     1      -8.062   2.340  -2.101  0.00  0.00    +0.005 A 
ATOM     24  C   UNL     1      -8.770   3.487  -1.796  0.00  0.00    +0.047 A 
ATOM     25  C   UNL     1      -8.256   4.729  -2.138  0.00  0.00    +0.139 A 
ATOM     26  C   UNL     1      -7.032   4.817  -2.785  0.00  0.00    +0.083 A 
ATOM     27  C   UNL     1      -6.325   3.667  -3.083  0.00  0.00    +0.025 A 
ATOM     28 CL   UNL     1      -6.385   6.370  -3.214  0.00  0.00    -0.080 Cl
BRANCH  25  29
ATOM     29  O   UNL     1      -8.951   5.859  -1.840  0.00  0.00    -0.487 OA
BRANCH  29  30
ATOM     30  C   UNL     1     -10.205   5.692  -1.173  0.00  0.00    +0.256 C 
BRANCH  30  31
ATOM     31  C   UNL     1     -10.825   7.043  -0.927  0.00  0.00    +0.006 C 
ATOM     32  C   UNL     1     -12.096   7.236  -1.179  0.00  0.00    +0.007 C 
ENDBRANCH  30  31
ENDBRANCH  29  30
ENDBRANCH  25  29
ENDBRANCH  21  22
ENDBRANCH  18  21
ENDBRANCH  17  18
ENDBRANCH   5  17
TORSDOF 8
