REMARK  Name = ZINC50182734
REMARK  8 active torsions:
REMARK  status: ('A' for Active; 'I' for Inactive)
REMARK    1  A    between atoms: C_1  and  C_2
REMARK    2  A    between atoms: C_3  and  C_8
REMARK    3  A    between atoms: C_8  and  C_9
REMARK    4  A    between atoms: C_9  and  C_10
REMARK    5  A    between atoms: C_10  and  N_11
REMARK    6  A    between atoms: N_11  and  C_12
REMARK    7  A    between atoms: C_12  and  C_14
REMARK    8  A    between atoms: C_12  and  C_15
REMARK                            x       y       z     vdW  Elec       q    Type
REMARK                         _______ _______ _______ _____ _____    ______ ____
ROOT
ATOM      1  N   UNL     1       2.785   0.735  -4.868  0.00  0.00    +0.383 N 
ATOM      2  H   UNL     1       3.179   1.456  -4.282  0.00  0.00    -0.085 HD
ATOM      3  H   UNL     1       3.343  -0.102  -4.794  0.00  0.00    -0.085 HD
ENDROOT
BRANCH   1   4
ATOM      4  C   UNL     1       2.771   1.193  -6.264  0.00  0.00    -0.044 C 
ATOM      5  C   UNL     1       2.031   2.528  -6.356  0.00  0.00    -0.009 C 
BRANCH   4   6
ATOM      6  C   UNL     1       4.187   1.369  -6.748  0.00  0.00    -0.062 A 
ATOM      7  C   UNL     1       5.142   1.911  -5.909  0.00  0.00    +0.003 A 
ATOM      8  C   UNL     1       6.441   2.074  -6.353  0.00  0.00    +0.014 A 
ATOM      9  C   UNL     1       6.785   1.693  -7.637  0.00  0.00    +0.013 A 
ATOM     10  C   UNL     1       5.830   1.151  -8.477  0.00  0.00    +0.014 A 
ATOM     11  C   UNL     1       4.532   0.984  -8.030  0.00  0.00    +0.003 A 
ATOM     12  I   UNL     1       8.754   1.939  -8.310  0.00  0.00    -0.044 I 
ENDBRANCH   4   6
ENDBRANCH   1   4
BRANCH   1  13
ATOM     13  C   UNL     1       1.411   0.449  -4.434  0.00  0.00    -0.081 C 
BRANCH  13  14
ATOM     14  C   UNL     1       1.425  -0.028  -2.980  0.00  0.00    -0.014 C 
BRANCH  14  15
ATOM     15  C   UNL     1      -0.006  -0.327  -2.527  0.00  0.00    +0.036 C 
BRANCH  15  18
ATOM     16  C   UNL     1      -0.018   1.503   0.010  0.00  0.00    +0.065 C 
ATOM     17  C   UNL     1       0.002  -0.004   0.002  0.00  0.00    +0.036 A 
ATOM     18  C   UNL     1       0.008  -0.796  -1.095  0.00  0.00    -0.007 A 
ATOM     19  C   UNL     1       0.028  -2.127  -0.666  0.00  0.00    +0.138 A 
ATOM     20  N   UNL     1       0.035  -2.134   0.643  0.00  0.00    -0.182 NA
ATOM     21  N   UNL     1       0.024  -0.805   1.088  0.00  0.00    -0.282 N 
ATOM     22  H   UNL     1       0.029  -0.513   2.013  0.00  0.00    +0.189 HD
ENDBRANCH  15  18
ENDBRANCH  14  15
ENDBRANCH  13  14
ENDBRANCH   1  13
TORSDOF 6
