REMARK  Name = ZINC28915028
REMARK  10 active torsions:
REMARK  status: ('A' for Active; 'I' for Inactive)
REMARK    1  A    between atoms: C_1  and  C_2
REMARK    2  A    between atoms: C_2  and  C_3
REMARK    3  A    between atoms: C_7  and  C_28
REMARK    4  A    between atoms: C_8  and  N_9
REMARK    5  A    between atoms: C_10  and  C_12
REMARK    6  A    between atoms: C_12  and  N_13
REMARK    7  A    between atoms: N_22  and  C_23
REMARK    8  A    between atoms: C_23  and  C_24
REMARK    9  A    between atoms: C_24  and  C_26
REMARK   10  A    between atoms: C_24  and  O_27
REMARK                            x       y       z     vdW  Elec       q    Type
REMARK                         _______ _______ _______ _____ _____    ______ ____
ROOT
ATOM      1  N   UNL     1      -1.213  -0.022  -0.791  0.00  0.00    -0.305 N 
ATOM      2  C   UNL     1      -1.843   0.765  -1.741  0.00  0.00    +0.068 A 
ATOM      3  C   UNL     1      -1.761   2.105  -2.087  0.00  0.00    +0.028 A 
ATOM      4  C   UNL     1      -2.543   2.600  -3.110  0.00  0.00    +0.002 A 
ATOM      5  C   UNL     1      -3.413   1.765  -3.796  0.00  0.00    +0.002 A 
ATOM      6  C   UNL     1      -3.507   0.432  -3.466  0.00  0.00    +0.028 A 
ATOM      7  C   UNL     1      -2.721  -0.085  -2.433  0.00  0.00    +0.065 A 
ATOM      8  N   UNL     1      -2.592  -1.323  -1.887  0.00  0.00    -0.327 N 
ATOM      9  C   UNL     1      -1.702  -1.290  -0.927  0.00  0.00    +0.175 A 
ATOM     10  N   UNL     1      -1.320  -2.373  -0.164  0.00  0.00    -0.314 N 
ATOM     11  H   UNL     1      -0.564  -2.249   0.626  0.00  0.00    +0.149 HD
ATOM     12  H   UNL     1      -3.195  -2.159  -2.272  0.00  0.00    +0.169 HD
ENDROOT
BRANCH   1  13
ATOM     13  C   UNL     1      -0.205   0.421   0.175  0.00  0.00    +0.221 C 
BRANCH  13  15
ATOM     14  N   UNL     1      -0.154   1.330   2.475  0.00  0.00    -0.284 N 
ATOM     15  C   UNL     1      -0.887   0.877   1.439  0.00  0.00    +0.237 C 
ATOM     16  O   UNL     1      -2.096   0.835   1.525  0.00  0.00    -0.274 OA
ATOM     17  H   UNL     1       0.945   1.313   2.420  0.00  0.00    +0.155 HD
BRANCH  14  23
ATOM     18  C   UNL     1      -0.443   1.336   4.873  0.00  0.00    -0.026 A 
ATOM     19  C   UNL     1      -1.073   1.826   6.001  0.00  0.00    +0.005 A 
ATOM     20  C   UNL     1      -2.047   2.800   5.883  0.00  0.00    +0.001 A 
ATOM     21  C   UNL     1      -2.395   3.287   4.636  0.00  0.00    +0.005 A 
ATOM     22  C   UNL     1      -1.764   2.807   3.505  0.00  0.00    -0.029 A 
ATOM     23  C   UNL     1      -0.790   1.824   3.619  0.00  0.00    +0.040 A 
ATOM     24  C   UNL     1      -2.139   3.343   2.147  0.00  0.00    +0.045 C 
BRANCH  18  26
ATOM     25  C   UNL     1       1.998   0.934   5.040  0.00  0.00    +0.009 C 
ATOM     26  C   UNL     1       0.618   0.274   5.002  0.00  0.00    +0.033 C 
ENDBRANCH  18  26
ENDBRANCH  14  23
ENDBRANCH  13  15
ENDBRANCH   1  13
BRANCH  10  27
ATOM     27  C   UNL     1      -1.919  -3.688  -0.405  0.00  0.00    +0.135 C 
BRANCH  27  28
ATOM     28  C   UNL     1      -1.325  -4.706   0.570  0.00  0.00    +0.128 C 
ATOM     29  C   UNL     1      -1.950  -6.079   0.318  0.00  0.00    +0.039 C 
BRANCH  28  30
ATOM     30  O   UNL     1       0.089  -4.784   0.374  0.00  0.00    -0.391 OA
ATOM     31  H   UNL     1       0.692  -5.468   0.989  0.00  0.00    +0.210 HD
ENDBRANCH  28  30
ENDBRANCH  27  28
ENDBRANCH  10  27
TORSDOF 7
