REMARK  Name = ZINC63513805
REMARK  8 active torsions:
REMARK  status: ('A' for Active; 'I' for Inactive)
REMARK    1  A    between atoms: C_1  and  C_2
REMARK    2  A    between atoms: C_2  and  C_3
REMARK    3  A    between atoms: C_3  and  C_4
REMARK    4  A    between atoms: C_12  and  N_15
REMARK    5  A    between atoms: C_18  and  C_21
REMARK    6  A    between atoms: N_23  and  C_24
REMARK    7  A    between atoms: C_24  and  C_25
REMARK    8  A    between atoms: C_25  and  C_26
REMARK                            x       y       z     vdW  Elec       q    Type
REMARK                         _______ _______ _______ _____ _____    ______ ____
ROOT
ATOM      1  N   UNL     1      -1.075  -7.849   1.644  0.00  0.00    -0.275 NA
ATOM      2  C   UNL     1      -1.679  -7.542   0.342  0.00  0.00    +0.088 C 
ATOM      3  C   UNL     1      -2.306  -8.810  -0.242  0.00  0.00    +0.028 C 
ATOM      4  C   UNL     1      -3.370  -9.339   0.724  0.00  0.00    +0.077 C 
ATOM      5  C   UNL     1      -2.724  -9.605   2.087  0.00  0.00    +0.028 C 
ATOM      6  C   UNL     1      -2.085  -8.313   2.603  0.00  0.00    +0.088 C 
ENDROOT
BRANCH   1  15
ATOM      7  C   UNL     1       0.037  -3.756   6.066  0.00  0.00    +0.049 A 
ATOM      8  C   UNL     1      -0.822  -3.075   5.253  0.00  0.00    +0.095 A 
ATOM      9  C   UNL     1      -1.268  -3.664   4.065  0.00  0.00    +0.272 A 
ATOM     10  O   UNL     1      -2.027  -3.055   3.330  0.00  0.00    -0.266 OA
ATOM     11  N   UNL     1      -0.851  -4.923   3.727  0.00  0.00    -0.204 N 
ATOM     12  C   UNL     1       0.041  -5.516   4.582  0.00  0.00    +0.192 A 
ATOM     13  N   UNL     1       0.452  -4.966   5.696  0.00  0.00    -0.227 NA
ATOM     14  S   UNL     1       0.449  -7.064   3.794  0.00  0.00    -0.046 S 
ATOM     15  C   UNL     1      -0.344  -6.689   2.171  0.00  0.00    +0.224 C 
ATOM     16  N   UNL     1      -1.268  -5.618   2.626  0.00  0.00    -0.253 N 
ATOM     17  H   UNL     1      -2.201  -5.978   2.758  0.00  0.00    +0.169 HD
BRANCH   7  18
ATOM     18  C   UNL     1       0.513  -3.145   7.359  0.00  0.00    +0.055 C 
BRANCH  18  20
ATOM     19  C   UNL     1       0.114  -3.014   9.822  0.00  0.00    +0.004 C 
ATOM     20  C   UNL     1      -0.369  -3.634   8.510  0.00  0.00    +0.003 C 
ENDBRANCH  18  20
ENDBRANCH   7  18
ENDBRANCH   1  15
BRANCH   4  21
ATOM     21  C   UNL     1      -3.949 -10.621   0.183  0.00  0.00    +0.216 C 
ATOM     22  O   UNL     1      -3.551 -11.069  -0.872  0.00  0.00    -0.276 OA
ATOM     23  N   UNL     1      -4.909 -11.270   0.871  0.00  0.00    -0.315 N 
ATOM     24  H   UNL     1      -5.228 -10.912   1.714  0.00  0.00    +0.149 HD
BRANCH  23  25
ATOM     25  C   UNL     1      -5.472 -12.516   0.345  0.00  0.00    +0.108 C 
BRANCH  25  26
ATOM     26  C   UNL     1      -6.535 -13.044   1.311  0.00  0.00    +0.052 C 
BRANCH  26  27
ATOM     27  C   UNL     1      -7.114 -14.326   0.770  0.00  0.00    -0.040 C 
ATOM     28  C   UNL     1      -6.731 -15.585   1.081  0.00  0.00    -0.001 A 
ATOM     29  C   UNL     1      -5.701 -16.119   1.980  0.00  0.00    +0.010 A 
ATOM     30  C   UNL     1      -5.551 -17.459   2.083  0.00  0.00    +0.001 A 
ATOM     31  C   UNL     1      -6.351 -18.349   1.354  0.00  0.00    +0.002 A 
ATOM     32  C   UNL     1      -7.318 -17.935   0.508  0.00  0.00    +0.026 A 
ATOM     33  C   UNL     1      -7.564 -16.546   0.323  0.00  0.00    +0.043 A 
ATOM     34  N   UNL     1      -8.428 -15.905  -0.428  0.00  0.00    -0.380 N 
ATOM     35  C   UNL     1      -8.244 -14.464  -0.225  0.00  0.00    +0.144 C 
ATOM     36  H   UNL     1      -9.081 -16.316  -1.015  0.00  0.00    +0.160 HD
ENDBRANCH  26  27
ENDBRANCH  25  26
ENDBRANCH  23  25
ENDBRANCH   4  21
TORSDOF 7
