REMARK  Name = ZINC39363325
REMARK  11 active torsions:
REMARK  status: ('A' for Active; 'I' for Inactive)
REMARK    1  A    between atoms: C_1  and  C_2
REMARK    2  A    between atoms: C_2  and  C_4
REMARK    3  A    between atoms: C_2  and  O_17
REMARK    4  A    between atoms: C_4  and  N_5
REMARK    5  A    between atoms: C_6  and  C_8
REMARK    6  A    between atoms: O_17  and  C_18
REMARK    7  A    between atoms: C_22  and  C_24
REMARK    8  A    between atoms: C_24  and  N_25
REMARK    9  A    between atoms: N_25  and  C_26
REMARK   10  A    between atoms: N_25  and  C_27
REMARK   11  A    between atoms: C_27  and  C_28
REMARK                            x       y       z     vdW  Elec       q    Type
REMARK                         _______ _______ _______ _____ _____    ______ ____
ROOT
ATOM      1  C   UNL     1      -0.044   1.273   0.346  0.00  0.00    +0.053 C 
ATOM      2  C   UNL     1      -0.015  -0.229   0.058  0.00  0.00    +0.187 C 
ENDROOT
BRANCH   2   3
ATOM      3  C   UNL     1      -1.448  -0.756  -0.048  0.00  0.00    +0.148 C 
BRANCH   3   4
ATOM      4  N   UNL     1      -1.422  -2.212  -0.205  0.00  0.00    -0.310 N 
ATOM      5  C   UNL     1      -2.577  -2.898  -0.318  0.00  0.00    +0.236 C 
ATOM      6  O   UNL     1      -3.637  -2.309  -0.290  0.00  0.00    -0.274 OA
ATOM      7  H   UNL     1      -0.574  -2.683  -0.227  0.00  0.00    +0.149 HD
BRANCH   5   8
ATOM      8  C   UNL     1      -2.551  -4.396  -0.479  0.00  0.00    +0.186 C 
ATOM      9  C   UNL     1      -2.293  -4.769  -1.925  0.00  0.00    -0.025 C 
ATOM     10  C   UNL     1      -3.339  -5.449  -2.347  0.00  0.00    +0.020 C 
ATOM     11  C   UNL     1      -3.148  -5.859  -3.798  0.00  0.00    +0.052 C 
ATOM     12  C   UNL     1      -2.013  -4.953  -4.323  0.00  0.00    +0.010 C 
ATOM     13  C   UNL     1      -1.257  -4.621  -3.017  0.00  0.00    +0.035 C 
ATOM     14  N   UNL     1      -4.287  -5.579  -1.337  0.00  0.00    -0.283 N 
ATOM     15  N   UNL     1      -3.877  -4.970  -0.185  0.00  0.00    -0.227 NA
ATOM     16  H   UNL     1      -5.133  -6.043  -1.437  0.00  0.00    +0.166 HD
ATOM     17  H   UNL     1      -4.528  -4.252   0.097  0.00  0.00    +0.145 HD
ENDBRANCH   5   8
ENDBRANCH   3   4
ENDBRANCH   2   3
BRANCH   2  18
ATOM     18  O   UNL     1       0.671  -0.465  -1.174  0.00  0.00    -0.488 OA
BRANCH  18  19
ATOM     19  C   UNL     1       2.026  -0.553  -1.118  0.00  0.00    +0.121 A 
ATOM     20  C   UNL     1       2.690  -0.309   0.075  0.00  0.00    +0.045 A 
ATOM     21  C   UNL     1       4.067  -0.399   0.129  0.00  0.00    +0.004 A 
ATOM     22  C   UNL     1       4.784  -0.733  -1.005  0.00  0.00    +0.002 A 
ATOM     23  C   UNL     1       4.125  -0.977  -2.196  0.00  0.00    -0.060 A 
ATOM     24  C   UNL     1       2.747  -0.893  -2.253  0.00  0.00    +0.047 A 
BRANCH  23  25
ATOM     25  C   UNL     1       4.910  -1.340  -3.430  0.00  0.00    -0.043 C 
BRANCH  25  26
ATOM     26  N   UNL     1       5.063  -2.799  -3.501  0.00  0.00    +0.384 N 
ATOM     27  C   UNL     1       3.745  -3.422  -3.681  0.00  0.00    -0.095 C 
ATOM     28  H   UNL     1       5.480  -3.135  -2.646  0.00  0.00    -0.081 HD
BRANCH  26  29
ATOM     29  C   UNL     1       5.928  -3.146  -4.636  0.00  0.00    -0.022 C 
BRANCH  29  30
ATOM     30  C   UNL     1       6.186  -4.630  -4.637  0.00  0.00    +0.032 A 
ATOM     31  C   UNL     1       5.436  -5.481  -5.384  0.00  0.00    +0.068 A 
ATOM     32  S   UNL     1       6.201  -7.041  -4.973  0.00  0.00    -0.084 S 
ATOM     33  C   UNL     1       7.371  -6.454  -3.916  0.00  0.00    +0.156 A 
ATOM     34  N   UNL     1       7.153  -5.162  -3.916  0.00  0.00    -0.254 NA
ENDBRANCH  29  30
ENDBRANCH  26  29
ENDBRANCH  25  26
ENDBRANCH  23  25
ENDBRANCH  18  19
ENDBRANCH   2  18
TORSDOF 9
