REMARK  Name = ZINC08995623
REMARK  6 active torsions:
REMARK  status: ('A' for Active; 'I' for Inactive)
REMARK    1  A    between atoms: C_1  and  C_2
REMARK    2  A    between atoms: C_2  and  C_3
REMARK    3  A    between atoms: C_3  and  C_5
REMARK    4  A    between atoms: C_3  and  N_6
REMARK    5  A    between atoms: C_11  and  C_28
REMARK    6  A    between atoms: C_28  and  C_29
REMARK                            x       y       z     vdW  Elec       q    Type
REMARK                         _______ _______ _______ _____ _____    ______ ____
ROOT
ATOM      1  N   UNL     1      -3.708   6.943   1.006  0.00  0.00    -0.239 N 
ATOM      2  C   UNL     1      -2.801   5.948   1.264  0.00  0.00    +0.224 C 
ATOM      3  O   UNL     1      -2.193   5.758   2.295  0.00  0.00    -0.275 OA
ATOM      4  C   UNL     1      -2.720   5.145   0.004  0.00  0.00    +0.073 C 
ATOM      5  C   UNL     1      -2.657   3.621   0.034  0.00  0.00    -0.049 C 
ATOM      6  C   UNL     1      -4.484   4.246  -1.388  0.00  0.00    +0.050 C 
ATOM      7  C   UNL     1      -4.238   5.280  -0.387  0.00  0.00    +0.088 C 
ATOM      8  C   UNL     1      -4.509   6.662  -0.074  0.00  0.00    +0.225 C 
ATOM      9  O   UNL     1      -5.276   7.411  -0.640  0.00  0.00    -0.275 OA
ATOM     10  C   UNL     1      -4.527   4.748  -2.810  0.00  0.00    -0.027 A 
ATOM     11  C   UNL     1      -3.648   5.483  -3.575  0.00  0.00    +0.019 A 
ATOM     12  C   UNL     1      -3.970   5.800  -4.884  0.00  0.00    +0.018 A 
ATOM     13  C   UNL     1      -5.173   5.377  -5.419  0.00  0.00    +0.017 A 
ATOM     14  C   UNL     1      -6.054   4.640  -4.655  0.00  0.00    +0.024 A 
ATOM     15  C   UNL     1      -5.738   4.316  -3.337  0.00  0.00    +0.036 A 
ATOM     16  N   UNL     1      -6.451   3.594  -2.379  0.00  0.00    -0.286 N 
ATOM     17  C   UNL     1      -5.789   3.506  -1.212  0.00  0.00    +0.211 C 
ATOM     18  O   UNL     1      -6.168   2.940  -0.208  0.00  0.00    -0.277 OA
ATOM     19 BR   UNL     1      -2.767   6.810  -5.937  0.00  0.00    -0.050 Br
ATOM     20  H   UNL     1      -7.324   3.200  -2.537  0.00  0.00    +0.155 HD
ATOM     21  N   UNL     1      -3.361   3.288  -1.237  0.00  0.00    +0.394 N 
ATOM     22  H   UNL     1      -3.723   2.328  -1.196  0.00  0.00    -0.083 HD
ATOM     23  H   UNL     1      -2.715   3.377  -2.030  0.00  0.00    -0.083 HD
ENDROOT
BRANCH   1  24
ATOM     24  C   UNL     1      -3.811   8.173   1.796  0.00  0.00    +0.081 C 
ATOM     25  C   UNL     1      -4.132   7.820   3.250  0.00  0.00    +0.028 C 
BRANCH  24  27
ATOM     26  C   UNL     1      -2.222   9.391   0.301  0.00  0.00    +0.006 C 
ATOM     27  C   UNL     1      -2.482   8.930   1.737  0.00  0.00    +0.019 C 
ENDBRANCH  24  27
ENDBRANCH   1  24
BRANCH   5  28
ATOM     28  C   UNL     1      -1.208   3.131   0.025  0.00  0.00    +0.080 C 
BRANCH  28  29
ATOM     29  C   UNL     1      -1.187   1.624   0.017  0.00  0.00    +0.209 C 
ATOM     30  O   UNL     1      -2.229   1.003   0.018  0.00  0.00    -0.276 OA
ATOM     31  N   UNL     1      -0.011   0.966   0.007  0.00  0.00    -0.329 N 
ATOM     32  H   UNL     1       0.002  -0.004   0.002  0.00  0.00    +0.145 HD
ATOM     33  H   UNL     1       0.822   1.462   0.002  0.00  0.00    +0.145 HD
ENDBRANCH  28  29
ENDBRANCH   5  28
TORSDOF 4
