REMARK  Name = ZINC04698542
REMARK  5 active torsions:
REMARK  status: ('A' for Active; 'I' for Inactive)
REMARK    1  A    between atoms: C_1  and  N_2
REMARK    2  A    between atoms: N_7  and  C_10
REMARK    3  A    between atoms: C_12  and  C_17
REMARK    4  A    between atoms: C_17  and  S_18
REMARK    5  A    between atoms: S_18  and  C_19
REMARK                            x       y       z     vdW  Elec       q    Type
REMARK                         _______ _______ _______ _____ _____    ______ ____
ROOT
ATOM      1  C   UNL     1      -4.150   2.405   2.188  0.00  0.00    +0.155 C 
ATOM      2  N   UNL     1      -2.702   2.195   2.263  0.00  0.00    -0.280 N 
ATOM      3  C   UNL     1      -2.024   2.444   3.448  0.00  0.00    +0.169 A 
ATOM      4  C   UNL     1      -0.649   2.236   3.488  0.00  0.00    +0.157 A 
ATOM      5  C   UNL     1       0.014   1.783   2.337  0.00  0.00    +0.283 A 
ATOM      6  O   UNL     1       1.218   1.595   2.353  0.00  0.00    -0.265 OA
ATOM      7  N   UNL     1      -0.698   1.558   1.213  0.00  0.00    -0.262 N 
ATOM      8  C   UNL     1      -2.026   1.766   1.180  0.00  0.00    +0.333 A 
ATOM      9  O   UNL     1      -2.633   1.557   0.147  0.00  0.00    -0.246 OA
ATOM     10  C   UNL     1      -0.013   1.086   0.008  0.00  0.00    +0.157 C 
ATOM     11  N   UNL     1      -0.219   2.558   4.785  0.00  0.00    -0.284 N 
ATOM     12  C   UNL     1       0.954   2.586   5.503  0.00  0.00    +0.043 A 
ATOM     13  C   UNL     1       0.965   2.969   6.780  0.00  0.00    +0.071 A 
ATOM     14  S   UNL     1      -0.760   3.332   7.068  0.00  0.00    -0.057 S 
ATOM     15  C   UNL     1      -1.358   2.937   5.440  0.00  0.00    +0.180 A 
ATOM     16  N   UNL     1      -2.402   2.866   4.652  0.00  0.00    -0.203 NA
ENDROOT
BRANCH  12  17
ATOM     17  C   UNL     1       2.244   2.180   4.838  0.00  0.00    +0.131 C 
BRANCH  17  18
ATOM     18  S   UNL     1       3.018   3.632   4.086  0.00  0.00    -0.087 S 
BRANCH  18  19
ATOM     19  C   UNL     1       4.462   2.889   3.401  0.00  0.00    +0.123 C 
ATOM     20  N   UNL     1       4.668   1.609   3.547  0.00  0.00    -0.382 N 
ATOM     21  N   UNL     1       5.371   3.658   2.712  0.00  0.00    -0.340 N 
ATOM     22  H   UNL     1       5.569   1.145   3.120  0.00  0.00    +0.158 HD
ATOM     23  H   UNL     1       6.272   3.194   2.285  0.00  0.00    +0.144 HD
ATOM     24  H   UNL     1       5.197   4.737   2.589  0.00  0.00    +0.144 HD
ATOM     25  H   UNL     1       3.941   0.994   4.098  0.00  0.00    +0.158 HD
ENDBRANCH  18  19
ENDBRANCH  17  18
ENDBRANCH  12  17
TORSDOF 3
