REMARK  Name = ZINC21232120
REMARK  11 active torsions:
REMARK  status: ('A' for Active; 'I' for Inactive)
REMARK    1  A    between atoms: C_1  and  C_2
REMARK    2  A    between atoms: N_13  and  C_28
REMARK    3  A    between atoms: C_14  and  S_16
REMARK    4  A    between atoms: S_16  and  C_17
REMARK    5  A    between atoms: C_17  and  C_19
REMARK    6  A    between atoms: C_17  and  C_22
REMARK    7  A    between atoms: C_19  and  C_20
REMARK    8  A    between atoms: C_19  and  C_21
REMARK    9  A    between atoms: C_28  and  C_29
REMARK   10  A    between atoms: C_29  and  C_30
REMARK   11  A    between atoms: C_29  and  C_31
REMARK                            x       y       z     vdW  Elec       q    Type
REMARK                         _______ _______ _______ _____ _____    ______ ____
ROOT
ATOM      1  C   UNL     1      -6.328  -1.072   6.508  0.00  0.00    +0.008 C 
ATOM      2  C   UNL     1      -5.081  -0.654   5.726  0.00  0.00    -0.009 C 
ATOM      3  C   UNL     1      -5.325  -0.846   4.227  0.00  0.00    +0.008 C 
ATOM      4  C   UNL     1      -4.015  -0.669   3.460  0.00  0.00    +0.037 C 
ATOM      5  C   UNL     1      -3.386   0.663   3.859  0.00  0.00    -0.023 A 
ATOM      6  C   UNL     1      -3.762   1.290   4.993  0.00  0.00    -0.004 A 
ATOM      7  S   UNL     1      -2.787   2.769   5.047  0.00  0.00    -0.073 S 
ATOM      8  C   UNL     1      -1.874   2.541   3.541  0.00  0.00    +0.117 A 
ATOM      9  C   UNL     1      -2.361   1.320   3.046  0.00  0.00    +0.076 A 
ATOM     10  C   UNL     1      -1.790   0.876   1.811  0.00  0.00    +0.263 A 
ATOM     11  O   UNL     1      -2.151  -0.172   1.305  0.00  0.00    -0.267 OA
ATOM     12  N   UNL     1      -0.849   1.633   1.216  0.00  0.00    -0.287 N 
ATOM     13  C   UNL     1      -0.429   2.807   1.771  0.00  0.00    +0.173 A 
ATOM     14  N   UNL     1      -0.943   3.241   2.905  0.00  0.00    -0.216 NA
ATOM     15  C   UNL     1      -4.782   0.830   5.989  0.00  0.00    +0.046 C 
ENDROOT
BRANCH  13  16
ATOM     16  S   UNL     1       0.811   3.758   0.958  0.00  0.00    -0.075 S 
BRANCH  16  17
ATOM     17  C   UNL     1       0.878   5.194   2.058  0.00  0.00    +0.143 C 
BRANCH  17  18
ATOM     18  C   UNL     1       1.455   4.781   3.388  0.00  0.00    +0.234 C 
ATOM     19  O   UNL     1       2.186   3.816   3.458  0.00  0.00    -0.274 OA
ATOM     20  N   UNL     1       1.158   5.484   4.499  0.00  0.00    -0.239 N 
ATOM     21  C   UNL     1       1.673   5.115   5.688  0.00  0.00    +0.303 C 
ATOM     22  O   UNL     1       2.406   4.148   5.758  0.00  0.00    -0.253 OA
ATOM     23  N   UNL     1       1.377   5.818   6.799  0.00  0.00    -0.313 N 
ATOM     24  H   UNL     1       0.495   6.359   4.435  0.00  0.00    +0.159 HD
ATOM     25  H   UNL     1       1.798   5.516   7.769  0.00  0.00    +0.146 HD
ATOM     26  H   UNL     1       0.714   6.693   6.735  0.00  0.00    +0.146 HD
ENDBRANCH  17  18
BRANCH  17  27
ATOM     27  C   UNL     1       1.762   6.275   1.433  0.00  0.00    +0.005 C 
ATOM     28  C   UNL     1       1.177   6.694   0.082  0.00  0.00    +0.009 C 
ATOM     29  C   UNL     1       1.818   7.489   2.362  0.00  0.00    +0.009 C 
ENDBRANCH  17  27
ENDBRANCH  16  17
ENDBRANCH  13  16
BRANCH  12  30
ATOM     30  C   UNL     1      -0.261   1.185  -0.048  0.00  0.00    +0.130 C 
BRANCH  30  31
ATOM     31  C   UNL     1      -1.082   1.733  -1.216  0.00  0.00    +0.003 C 
ATOM     32  C   UNL     1      -0.399   1.370  -2.536  0.00  0.00    +0.009 C 
ATOM     33  C   UNL     1      -2.485   1.123  -1.184  0.00  0.00    +0.009 C 
ENDBRANCH  30  31
ENDBRANCH  12  30
TORSDOF 6
