REMARK  Name = ZINC39381120
REMARK  6 active torsions:
REMARK  status: ('A' for Active; 'I' for Inactive)
REMARK    1  A    between atoms: C_1  and  C_2
REMARK    2  A    between atoms: C_2  and  C_4
REMARK    3  A    between atoms: C_2  and  S_18
REMARK    4  A    between atoms: N_6  and  N_7
REMARK    5  A    between atoms: C_8  and  C_9
REMARK    6  A    between atoms: S_18  and  C_19
REMARK                            x       y       z     vdW  Elec       q    Type
REMARK                         _______ _______ _______ _____ _____    ______ ____
ROOT
ATOM      1  C   UNL     1      -1.412  -0.526   0.013  0.00  0.00    +0.245 C 
ATOM      2  O   UNL     1      -1.927  -0.901  -1.019  0.00  0.00    -0.273 OA
ATOM      3  N   UNL     1      -2.103  -0.575   1.169  0.00  0.00    -0.206 N 
ATOM      4  H   UNL     1      -1.691  -0.275   1.994  0.00  0.00    +0.177 HD
ENDROOT
BRANCH   1   6
ATOM      5  C   UNL     1      -0.019   1.526   0.010  0.00  0.00    +0.029 C 
ATOM      6  C   UNL     1       0.002  -0.004   0.002  0.00  0.00    +0.133 C 
BRANCH   6   7
ATOM      7  S   UNL     1       0.851  -0.589  -1.490  0.00  0.00    -0.115 S 
BRANCH   7   8
ATOM      8  C   UNL     1       2.558  -0.012  -1.279  0.00  0.00    +0.193 C 
ATOM      9  N   UNL     1       2.604   1.444  -1.089  0.00  0.00    -0.323 N 
ATOM     10  C   UNL     1       3.115   1.921   0.117  0.00  0.00    +0.042 A 
ATOM     11  C   UNL     1       3.237   3.276   0.476  0.00  0.00    +0.024 A 
ATOM     12  C   UNL     1       3.756   3.646   1.694  0.00  0.00    +0.002 A 
ATOM     13  C   UNL     1       4.175   2.698   2.609  0.00  0.00    +0.001 A 
ATOM     14  C   UNL     1       4.067   1.356   2.283  0.00  0.00    +0.016 A 
ATOM     15  C   UNL     1       3.548   0.987   1.063  0.00  0.00    +0.031 A 
ATOM     16  S   UNL     1       3.263  -0.601   0.312  0.00  0.00    -0.090 S 
ATOM     17  H   UNL     1       2.291   2.051  -1.778  0.00  0.00    +0.148 HD
ENDBRANCH   7   8
ENDBRANCH   6   7
ENDBRANCH   1   6
BRANCH   3  18
ATOM     18  N   UNL     1      -3.417  -1.060   1.179  0.00  0.00    -0.188 NA
ATOM     19  C   UNL     1      -4.089  -1.108   2.301  0.00  0.00    +0.136 C 
BRANCH  19  20
ATOM     20  C   UNL     1      -5.405  -1.593   2.311  0.00  0.00    +0.000 C 
ATOM     21  C   UNL     1      -6.253  -1.704   3.410  0.00  0.00    +0.004 A 
ATOM     22  C   UNL     1      -6.089  -1.392   4.778  0.00  0.00    +0.010 A 
ATOM     23  C   UNL     1      -7.109  -1.610   5.645  0.00  0.00    +0.001 A 
ATOM     24  C   UNL     1      -8.331  -2.141   5.221  0.00  0.00    +0.002 A 
ATOM     25  C   UNL     1      -8.559  -2.464   3.925  0.00  0.00    +0.026 A 
ATOM     26  C   UNL     1      -7.538  -2.264   2.958  0.00  0.00    +0.043 A 
ATOM     27  N   UNL     1      -7.510  -2.493   1.662  0.00  0.00    -0.380 N 
ATOM     28  C   UNL     1      -6.202  -2.099   1.129  0.00  0.00    +0.150 C 
ATOM     29  H   UNL     1      -8.241  -2.860   1.140  0.00  0.00    +0.160 HD
ENDBRANCH  19  20
ENDBRANCH   3  18
TORSDOF 5
