REMARK  Name = ZINC48684453
REMARK  6 active torsions:
REMARK  status: ('A' for Active; 'I' for Inactive)
REMARK    1  A    between atoms: C_4  and  C_8
REMARK    2  A    between atoms: C_8  and  N_9
REMARK    3  A    between atoms: N_9  and  C_10
REMARK    4  A    between atoms: C_10  and  C_11
REMARK    5  A    between atoms: C_11  and  C_12
REMARK    6  A    between atoms: C_12  and  N_13
REMARK                            x       y       z     vdW  Elec       q    Type
REMARK                         _______ _______ _______ _____ _____    ______ ____
ROOT
ATOM      1  C   UNL     1       6.134  -1.500   2.719  0.00  0.00    +0.000 C 
ENDROOT
BRANCH   1   2
ATOM      2  C   UNL     1       5.553  -1.462   1.304  0.00  0.00    -0.081 C 
BRANCH   2   3
ATOM      3  N   UNL     1       4.271  -0.745   1.321  0.00  0.00    +0.382 N 
ATOM      4  H   UNL     1       4.417   0.198   1.649  0.00  0.00    -0.085 HD
ATOM      5  H   UNL     1       3.628  -1.220   1.936  0.00  0.00    -0.085 HD
BRANCH   3   6
ATOM      6  C   UNL     1       3.713  -0.709  -0.038  0.00  0.00    -0.044 C 
BRANCH   6  10
ATOM      7  C   UNL     1      -0.017   1.380   0.010  0.00  0.00    +0.041 A 
ATOM      8  C   UNL     1       1.171   2.087   0.002  0.00  0.00    +0.041 A 
ATOM      9  C   UNL     1       2.379   1.412  -0.013  0.00  0.00    +0.125 A 
ATOM     10  C   UNL     1       2.397   0.027  -0.021  0.00  0.00    -0.026 A 
ATOM     11  C   UNL     1       1.210  -0.680  -0.013  0.00  0.00    +0.043 A 
ATOM     12  C   UNL     1       0.002  -0.004   0.002  0.00  0.00    +0.124 A 
ATOM     13  F   UNL     1      -1.159  -0.695   0.009  0.00  0.00    -0.205 F 
ATOM     14  F   UNL     1       3.539   2.103  -0.021  0.00  0.00    -0.205 F 
ENDBRANCH   6  10
ENDBRANCH   3   6
ENDBRANCH   2   3
ENDBRANCH   1   2
BRANCH   1  15
ATOM     15  C   UNL     1       7.470  -2.247   2.701  0.00  0.00    +0.116 C 
BRANCH  15  16
ATOM     16  N   UNL     1       8.026  -2.284   4.056  0.00  0.00    -0.224 N 
ATOM     17  C   UNL     1       8.846  -1.339   4.566  0.00  0.00    +0.246 C 
ATOM     18  O   UNL     1       9.246  -0.337   4.013  0.00  0.00    -0.273 OA
ATOM     19  C   UNL     1       9.155  -1.795   5.969  0.00  0.00    +0.113 C 
ATOM     20  C   UNL     1       8.693  -0.758   7.001  0.00  0.00    +0.035 C 
ATOM     21  C   UNL     1       9.764  -0.839   8.119  0.00  0.00    +0.003 C 
ATOM     22  C   UNL     1      11.075  -1.069   7.325  0.00  0.00    +0.003 C 
ATOM     23  C   UNL     1      10.658  -2.003   6.167  0.00  0.00    +0.035 C 
ATOM     24  N   UNL     1       8.418  -3.052   6.116  0.00  0.00    -0.285 N 
ATOM     25  C   UNL     1       7.782  -3.255   4.945  0.00  0.00    +0.309 C 
ATOM     26  O   UNL     1       7.069  -4.213   4.720  0.00  0.00    -0.252 OA
ATOM     27  H   UNL     1       8.391  -3.623   6.900  0.00  0.00    +0.151 HD
ENDBRANCH  15  16
ENDBRANCH   1  15
TORSDOF 6
