REMARK  Name = ZINC13215284
REMARK  8 active torsions:
REMARK  status: ('A' for Active; 'I' for Inactive)
REMARK    1  A    between atoms: C_1  and  C_2
REMARK    2  A    between atoms: C_15  and  C_16
REMARK    3  A    between atoms: C_18  and  O_27
REMARK    4  A    between atoms: C_19  and  O_25
REMARK    5  A    between atoms: C_21  and  N_22
REMARK    6  A    between atoms: O_25  and  C_26
REMARK    7  A    between atoms: O_27  and  C_28
REMARK    8  A    between atoms: C_30  and  C_31
REMARK                            x       y       z     vdW  Elec       q    Type
REMARK                         _______ _______ _______ _____ _____    ______ ____
ROOT
ATOM      1  C   UNL     1       9.777  -4.211   1.774  0.00  0.00    +0.046 C 
ATOM      2  C   UNL     1       9.387  -3.375   0.582  0.00  0.00    -0.015 A 
ATOM      3  C   UNL     1       8.226  -2.603   0.620  0.00  0.00    +0.076 A 
ATOM      4  C   UNL     1       7.939  -1.863  -0.554  0.00  0.00    +0.117 A 
ATOM      5  N   UNL     1       6.862  -1.105  -0.661  0.00  0.00    -0.222 NA
ATOM      6  C   UNL     1       5.995  -0.993   0.317  0.00  0.00    +0.141 A 
ATOM      7  N   UNL     1       6.201  -1.627   1.536  0.00  0.00    -0.292 N 
ATOM      8  C   UNL     1       7.245  -2.449   1.720  0.00  0.00    +0.263 A 
ATOM      9  O   UNL     1       7.385  -3.053   2.768  0.00  0.00    -0.267 OA
ATOM     10  C   UNL     1       5.244  -1.363   2.624  0.00  0.00    +0.127 C 
ATOM     11  C   UNL     1       3.925  -2.071   2.349  0.00  0.00    +0.022 C 
ATOM     12  C   UNL     1       2.966  -1.181   1.565  0.00  0.00    +0.006 C 
ATOM     13  C   UNL     1       3.450  -0.931   0.156  0.00  0.00    +0.039 C 
ATOM     14  C   UNL     1       4.776  -0.203   0.179  0.00  0.00    -0.004 C 
ATOM     15  C   UNL     1       4.830   1.142   0.070  0.00  0.00    +0.017 C 
ATOM     16  S   UNL     1       9.295  -2.263  -1.628  0.00  0.00    -0.062 S 
ATOM     17  C   UNL     1      10.169  -3.373  -0.538  0.00  0.00    +0.106 A 
ENDROOT
BRANCH  15  18
ATOM     18  C   UNL     1       3.622   1.900  -0.287  0.00  0.00    +0.009 A 
ATOM     19  C   UNL     1       2.392   1.579   0.301  0.00  0.00    +0.059 A 
ATOM     20  C   UNL     1       1.261   2.294  -0.039  0.00  0.00    +0.162 A 
ATOM     21  C   UNL     1       1.343   3.329  -0.969  0.00  0.00    +0.164 A 
ATOM     22  C   UNL     1       2.562   3.652  -1.549  0.00  0.00    +0.082 A 
ATOM     23  C   UNL     1       3.697   2.944  -1.216  0.00  0.00    +0.137 A 
BRANCH  23  24
ATOM     24  N   UNL     1       4.994   3.287  -1.840  0.00  0.00    +0.057 N 
ATOM     25  O   UNL     1       5.082   4.262  -2.565  0.00  0.00    -0.126 OA
ATOM     26  O   UNL     1       5.974   2.595  -1.628  0.00  0.00    -0.126 OA
ENDBRANCH  23  24
BRANCH  21  27
ATOM     27  O   UNL     1       0.228   4.028  -1.305  0.00  0.00    -0.491 OA
ATOM     28  C   UNL     1       0.383   5.075  -2.265  0.00  0.00    +0.277 C 
ENDBRANCH  21  27
BRANCH  20  29
ATOM     29  O   UNL     1       0.065   1.984   0.530  0.00  0.00    -0.491 OA
ATOM     30  C   UNL     1       0.053   0.908   1.470  0.00  0.00    +0.277 C 
ENDBRANCH  20  29
ENDBRANCH  15  18
BRANCH  17  31
ATOM     31  C   UNL     1      11.416  -4.099  -0.782  0.00  0.00    +0.393 C 
ATOM     32  O   UNL     1      11.878  -4.822   0.081  0.00  0.00    -0.240 OA
ATOM     33  O   UNL     1      12.052  -3.968  -1.965  0.00  0.00    -0.240 OA
ENDBRANCH  17  31
TORSDOF 5
