REMARK  Name = ZINC35664994
REMARK  8 active torsions:
REMARK  status: ('A' for Active; 'I' for Inactive)
REMARK    1  A    between atoms: C_1  and  C_2
REMARK    2  A    between atoms: C_2  and  C_3
REMARK    3  A    between atoms: C_2  and  C_4
REMARK    4  A    between atoms: N_8  and  C_22
REMARK    5  A    between atoms: N_13  and  C_16
REMARK    6  A    between atoms: C_16  and  N_18
REMARK    7  A    between atoms: N_18  and  C_19
REMARK    8  A    between atoms: C_22  and  C_23
REMARK                            x       y       z     vdW  Elec       q    Type
REMARK                         _______ _______ _______ _____ _____    ______ ____
ROOT
ATOM      1  C   UNL     1      -1.480  -0.573   0.082  0.00  0.00    +0.022 C 
ATOM      2  C   UNL     1      -2.219  -0.104  -1.152  0.00  0.00    +0.201 C 
ATOM      3  O   UNL     1      -2.244   1.033  -1.573  0.00  0.00    -0.277 OA
ATOM      4  N   UNL     1      -2.846  -1.163  -1.705  0.00  0.00    -0.313 N 
ATOM      5  C   UNL     1      -2.581  -2.361  -0.903  0.00  0.00    +0.006 C 
ATOM      6  N   UNL     1      -1.409  -2.048  -0.055  0.00  0.00    +0.401 N 
ATOM      7  C   UNL     1      -2.259  -3.545  -1.813  0.00  0.00    +0.025 C 
ATOM      8  C   UNL     1      -3.465  -3.838  -2.712  0.00  0.00    +0.107 C 
ATOM      9  N   UNL     1      -4.652  -4.019  -1.866  0.00  0.00    -0.313 N 
ATOM     10  C   UNL     1      -5.003  -2.966  -0.903  0.00  0.00    +0.107 C 
ATOM     11  C   UNL     1      -3.784  -2.682  -0.019  0.00  0.00    +0.025 C 
ATOM     12  H   UNL     1      -0.554  -2.323  -0.514  0.00  0.00    -0.082 HD
ATOM     13  H   UNL     1      -1.491  -2.494   0.847  0.00  0.00    -0.082 HD
ENDROOT
BRANCH   1  15
ATOM     14  C   UNL     1      -0.170   1.550   0.223  0.00  0.00    +0.006 C 
ATOM     15  C   UNL     1      -0.073   0.026   0.121  0.00  0.00    -0.023 C 
ATOM     16  C   UNL     1       0.681  -0.519   1.335  0.00  0.00    +0.006 C 
ENDBRANCH   1  15
BRANCH   9  17
ATOM     17  C   UNL     1      -5.407  -5.132  -1.971  0.00  0.00    +0.133 C 
ATOM     18  S   UNL     1      -4.911  -6.407  -2.999  0.00  0.00    -0.019 S 
BRANCH  17  19
ATOM     19  N   UNL     1      -6.550  -5.239  -1.266  0.00  0.00    -0.324 N 
ATOM     20  H   UNL     1      -6.870  -4.488  -0.742  0.00  0.00    +0.148 HD
BRANCH  19  21
ATOM     21  C   UNL     1      -7.311  -6.491  -1.292  0.00  0.00    +0.072 C 
ATOM     22  C   UNL     1      -8.831  -6.391  -1.440  0.00  0.00    +0.024 C 
ATOM     23  C   UNL     1      -8.218  -6.791  -0.097  0.00  0.00    +0.024 C 
ENDBRANCH  19  21
ENDBRANCH  17  19
ENDBRANCH   9  17
BRANCH   4  24
ATOM     24  C   UNL     1      -3.664  -1.122  -2.919  0.00  0.00    +0.109 C 
BRANCH  24  25
ATOM     25  C   UNL     1      -2.777  -1.368  -4.141  0.00  0.00    +0.006 C 
ATOM     26  C   UNL     1      -2.648  -0.234  -5.160  0.00  0.00    +0.005 C 
ATOM     27  C   UNL     1      -3.465  -1.481  -5.503  0.00  0.00    +0.005 C 
ENDBRANCH  24  25
ENDBRANCH   4  24
TORSDOF 6
