REMARK  Name = ZINC44399918
REMARK  17 active torsions:
REMARK  status: ('A' for Active; 'I' for Inactive)
REMARK    1  A    between atoms: C_1  and  C_2
REMARK    2  A    between atoms: C_2  and  C_3
REMARK    3  A    between atoms: C_3  and  C_5
REMARK    4  A    between atoms: C_3  and  N_31
REMARK    5  A    between atoms: C_5  and  C_6
REMARK    6  A    between atoms: C_7  and  O_30
REMARK    7  A    between atoms: C_9  and  C_29
REMARK    8  A    between atoms: C_10  and  C_13
REMARK    9  A    between atoms: C_11  and  O_12
REMARK   10  A    between atoms: C_13  and  O_15
REMARK   11  A    between atoms: O_15  and  C_16
REMARK   12  A    between atoms: C_18  and  C_28
REMARK   13  A    between atoms: C_19  and  C_24
REMARK   14  A    between atoms: C_20  and  O_23
REMARK   15  A    between atoms: C_21  and  C_22
REMARK   16  A    between atoms: C_24  and  O_26
REMARK   17  A    between atoms: O_26  and  C_27
REMARK                            x       y       z     vdW  Elec       q    Type
REMARK                         _______ _______ _______ _____ _____    ______ ____
ROOT
ATOM      1  C   UNL     1      -2.748  -2.610   0.219  0.00  0.00    +0.035 A 
ATOM      2  C   UNL     1      -3.345  -2.669   1.470  0.00  0.00    +0.124 A 
ATOM      3  C   UNL     1      -4.672  -3.070   1.596  0.00  0.00    +0.050 A 
ATOM      4  C   UNL     1      -5.402  -3.411   0.481  0.00  0.00    -0.029 A 
ATOM      5  C   UNL     1      -4.810  -3.355  -0.786  0.00  0.00    +0.104 A 
ATOM      6  C   UNL     1      -3.473  -2.945  -0.911  0.00  0.00    +0.138 A 
ATOM      7  C   UNL     1      -6.838  -3.845   0.623  0.00  0.00    +0.045 C 
ENDROOT
BRANCH   6   8
ATOM      8  O   UNL     1      -2.892  -2.882  -2.136  0.00  0.00    -0.506 OA
ATOM      9  H   UNL     1      -2.462  -3.704  -2.410  0.00  0.00    +0.292 HD
ENDBRANCH   6   8
BRANCH   5  10
ATOM     10  C   UNL     1      -5.587  -3.719  -1.981  0.00  0.00    +0.348 C 
ATOM     11  O   UNL     1      -6.220  -2.869  -2.576  0.00  0.00    -0.244 OA
BRANCH  10  12
ATOM     12  O   UNL     1      -5.596  -4.995  -2.416  0.00  0.00    -0.422 OA
BRANCH  12  13
ATOM     13  C   UNL     1      -6.408  -5.308  -3.457  0.00  0.00    +0.139 A 
ATOM     14  C   UNL     1      -7.688  -5.797  -3.215  0.00  0.00    +0.051 A 
ATOM     15  C   UNL     1      -8.514  -6.115  -4.255  0.00  0.00    -0.029 A 
ATOM     16  C   UNL     1      -8.077  -5.950  -5.573  0.00  0.00    +0.104 A 
ATOM     17  C   UNL     1      -6.787  -5.456  -5.822  0.00  0.00    +0.137 A 
ATOM     18  C   UNL     1      -5.961  -5.132  -4.758  0.00  0.00    +0.034 A 
ATOM     19  C   UNL     1      -4.577  -4.596  -5.015  0.00  0.00    +0.051 C 
ATOM     20  C   UNL     1      -9.898  -6.646  -3.982  0.00  0.00    +0.045 C 
BRANCH  17  21
ATOM     21  O   UNL     1      -6.354  -5.292  -7.097  0.00  0.00    -0.506 OA
ATOM     22  H   UNL     1      -6.544  -4.420  -7.468  0.00  0.00    +0.292 HD
ENDBRANCH  17  21
BRANCH  16  23
ATOM     23  C   UNL     1      -8.966  -6.293  -6.695  0.00  0.00    +0.343 C 
ATOM     24  O   UNL     1      -9.710  -5.452  -7.160  0.00  0.00    -0.245 OA
BRANCH  23  25
ATOM     25  O   UNL     1      -8.956  -7.540  -7.207  0.00  0.00    -0.464 OA
ATOM     26  C   UNL     1      -9.844  -7.802  -8.294  0.00  0.00    +0.280 C 
ENDBRANCH  23  25
ENDBRANCH  16  23
ENDBRANCH  12  13
ENDBRANCH  10  12
ENDBRANCH   5  10
BRANCH   2  27
ATOM     27  O   UNL     1      -2.632  -2.335   2.575  0.00  0.00    -0.506 OA
ATOM     28  H   UNL     1      -2.687  -1.399   2.811  0.00  0.00    +0.292 HD
ENDBRANCH   2  27
BRANCH   1  29
ATOM     29  C   UNL     1      -1.311  -2.174   0.090  0.00  0.00    +0.026 C 
BRANCH  29  30
ATOM     30  C   UNL     1      -1.252  -0.656  -0.086  0.00  0.00    -0.071 C 
BRANCH  30  31
ATOM     31  N   UNL     1      -1.886  -0.285  -1.358  0.00  0.00    +0.380 N 
ATOM     32  H   UNL     1      -2.849  -0.586  -1.354  0.00  0.00    -0.090 HD
ATOM     33  H   UNL     1      -1.847   0.716  -1.474  0.00  0.00    -0.090 HD
ATOM     34  H   UNL     1      -1.397  -0.731  -2.120  0.00  0.00    -0.090 HD
ENDBRANCH  30  31
BRANCH  30  36
ATOM     35  C   UNL     1       0.265   1.329  -0.141  0.00  0.00    +0.002 C 
ATOM     36  C   UNL     1       0.208  -0.199  -0.091  0.00  0.00    -0.019 C 
ENDBRANCH  30  36
ENDBRANCH  29  30
ENDBRANCH   1  29
TORSDOF 12
