REMARK  Name = ZINC03189985
REMARK  4 active torsions:
REMARK  status: ('A' for Active; 'I' for Inactive)
REMARK    1  A    between atoms: C_1  and  C_2
REMARK    2  A    between atoms: C_4  and  C_9
REMARK    3  A    between atoms: C_9  and  C_11
REMARK    4  A    between atoms: C_9  and  C_13
REMARK                            x       y       z     vdW  Elec       q    Type
REMARK                         _______ _______ _______ _____ _____    ______ ____
ROOT
ATOM      1  C   UNL     1      -1.994   7.045  -1.407  0.00  0.00    +0.195 C 
ENDROOT
BRANCH   1   2
ATOM      2  C   UNL     1      -1.623   5.612  -1.126  0.00  0.00    +0.102 A 
ATOM      3  N   UNL     1      -1.270   5.059   0.009  0.00  0.00    -0.247 NA
ATOM      4  C   UNL     1      -0.967   3.770   0.110  0.00  0.00    +0.052 A 
ATOM      5  C   UNL     1      -1.043   3.049  -1.041  0.00  0.00    +0.013 A 
ATOM      6  S   UNL     1      -1.552   4.266  -2.225  0.00  0.00    -0.075 S 
ATOM      7  C   UNL     1      -0.762   1.598  -1.233  0.00  0.00    +0.044 C 
ATOM      8  C   UNL     1      -0.013   1.086   0.008  0.00  0.00    +0.006 C 
ATOM      9  C   UNL     1      -0.735   1.583   1.263  0.00  0.00    +0.006 C 
ATOM     10  C   UNL     1      -0.555   3.094   1.412  0.00  0.00    +0.056 C 
ENDBRANCH   1   2
BRANCH   1  14
ATOM     11  C   UNL     1       0.658   9.718   1.918  0.00  0.00    +0.066 C 
ATOM     12  C   UNL     1       0.422   9.209   0.519  0.00  0.00    +0.043 A 
ATOM     13  C   UNL     1      -0.658   8.386   0.244  0.00  0.00    +0.048 A 
ATOM     14  C   UNL     1      -0.835   7.942  -1.057  0.00  0.00    +0.069 A 
ATOM     15  N   UNL     1       0.030   8.313  -1.987  0.00  0.00    -0.221 NA
ATOM     16  C   UNL     1       1.045   9.102  -1.690  0.00  0.00    +0.223 A 
ATOM     17  N   UNL     1       1.244   9.543  -0.462  0.00  0.00    -0.223 NA
ATOM     18 CL   UNL     1       2.150   9.567  -2.945  0.00  0.00    -0.041 Cl
ENDBRANCH   1  14
BRANCH   1  19
ATOM     19  C   UNL     1      -3.165   7.417  -0.595  0.00  0.00    +0.079 C 
ATOM     20  N   UNL     1      -4.068   7.704   0.032  0.00  0.00    -0.195 NA
ENDBRANCH   1  19
TORSDOF 3
