REMARK  Name = ZINC38573672
REMARK  4 active torsions:
REMARK  status: ('A' for Active; 'I' for Inactive)
REMARK    1  A    between atoms: C_1  and  C_2
REMARK    2  A    between atoms: C_2  and  C_4
REMARK    3  A    between atoms: C_2  and  N_21
REMARK    4  A    between atoms: C_22  and  C_24
REMARK                            x       y       z     vdW  Elec       q    Type
REMARK                         _______ _______ _______ _____ _____    ______ ____
ROOT
ATOM      1  C   UNL     1       0.609  -0.451  -1.303  0.00  0.00    +0.236 C 
ATOM      2  O   UNL     1       1.567  -1.195  -1.302  0.00  0.00    -0.274 OA
ATOM      3  N   UNL     1       0.088  -0.024  -2.470  0.00  0.00    -0.300 N 
ATOM      4  C   UNL     1      -0.997   0.967  -2.488  0.00  0.00    +0.106 C 
ATOM      5  C   UNL     1      -0.583   2.135  -3.387  0.00  0.00    +0.009 C 
ATOM      6  C   UNL     1      -0.195   1.601  -4.766  0.00  0.00    -0.037 C 
ATOM      7  C   UNL     1       0.991   0.645  -4.636  0.00  0.00    +0.009 C 
ATOM      8  C   UNL     1       0.598  -0.535  -3.750  0.00  0.00    +0.106 C 
ATOM      9  C   UNL     1       0.181   2.765  -5.683  0.00  0.00    +0.140 C 
ATOM     10  C   UNL     1       0.413   2.150  -7.060  0.00  0.00    +0.042 C 
ATOM     11  N   UNL     1       1.593   2.492  -7.406  0.00  0.00    -0.243 NA
ATOM     12  C   UNL     1       2.227   3.172  -6.420  0.00  0.00    +0.216 C 
ATOM     13  N   UNL     1       1.478   3.360  -5.354  0.00  0.00    -0.264 NA
ATOM     14  C   UNL     1      -0.601   1.231  -7.692  0.00  0.00    +0.034 C 
ATOM     15  C   UNL     1      -0.978   0.207  -6.604  0.00  0.00    -0.076 C 
ATOM     16  N   UNL     1      -1.337   0.892  -5.360  0.00  0.00    +0.385 N 
ATOM     17  H   UNL     1      -1.680   0.211  -4.699  0.00  0.00    -0.085 HD
ATOM     18  H   UNL     1      -2.071   1.557  -5.553  0.00  0.00    -0.085 HD
ENDROOT
BRANCH   1  20
ATOM     19  C   UNL     1       0.621   1.331   0.422  0.00  0.00    +0.038 C 
ATOM     20  C   UNL     1       0.002  -0.004   0.002  0.00  0.00    +0.156 C 
BRANCH  20  21
ATOM     21  N   UNL     1       0.266  -1.011   1.033  0.00  0.00    -0.298 N 
ATOM     22  C   UNL     1      -0.553  -1.114   2.099  0.00  0.00    +0.280 C 
ATOM     23  O   UNL     1      -1.511  -0.371   2.204  0.00  0.00    -0.267 OA
ATOM     24  H   UNL     1       1.030  -1.603   0.949  0.00  0.00    +0.150 HD
BRANCH  22  25
ATOM     25  C   UNL     1      -0.289  -2.122   3.131  0.00  0.00    +0.189 A 
ATOM     26  C   UNL     1      -1.037  -2.336   4.253  0.00  0.00    +0.054 A 
ATOM     27  C   UNL     1      -0.425  -3.388   4.952  0.00  0.00    +0.042 A 
ATOM     28  C   UNL     1       0.657  -3.765   4.235  0.00  0.00    +0.196 A 
ATOM     29  O   UNL     1       0.733  -3.003   3.136  0.00  0.00    -0.458 OA
ENDBRANCH  22  25
ENDBRANCH  20  21
ENDBRANCH   1  20
TORSDOF 3
