REMARK  Name = ZINC63654929
REMARK  8 active torsions:
REMARK  status: ('A' for Active; 'I' for Inactive)
REMARK    1  A    between atoms: C_1  and  C_2
REMARK    2  A    between atoms: C_6  and  C_8
REMARK    3  A    between atoms: C_8  and  C_9
REMARK    4  A    between atoms: N_11  and  C_12
REMARK    5  A    between atoms: C_12  and  C_13
REMARK    6  A    between atoms: C_13  and  S_14
REMARK    7  A    between atoms: S_14  and  C_15
REMARK    8  A    between atoms: C_23  and  C_25
REMARK                            x       y       z     vdW  Elec       q    Type
REMARK                         _______ _______ _______ _____ _____    ______ ____
ROOT
ATOM      1  C   UNL     1       4.721  -5.741   7.799  0.00  0.00    +0.021 C 
ATOM      2  C   UNL     1       3.548  -6.129   8.439  0.00  0.00    +0.010 A 
ATOM      3  C   UNL     1       2.189  -6.053   8.064  0.00  0.00    +0.011 A 
ATOM      4  C   UNL     1       1.231  -6.520   8.906  0.00  0.00    +0.001 A 
ATOM      5  C   UNL     1       1.555  -7.078  10.143  0.00  0.00    +0.002 A 
ATOM      6  C   UNL     1       2.840  -7.182  10.567  0.00  0.00    +0.026 A 
ATOM      7  C   UNL     1       3.894  -6.716   9.742  0.00  0.00    +0.044 A 
ATOM      8  N   UNL     1       5.202  -6.703   9.921  0.00  0.00    -0.373 N 
ATOM      9  C   UNL     1       5.843  -6.108   8.744  0.00  0.00    +0.147 C 
ATOM     10  H   UNL     1       5.666  -7.038  10.705  0.00  0.00    +0.161 HD
ENDROOT
BRANCH   9  11
ATOM     11  C   UNL     1       6.765  -7.106   8.092  0.00  0.00    -0.020 A 
ATOM     12  C   UNL     1       6.416  -8.443   8.047  0.00  0.00    +0.007 A 
ATOM     13  C   UNL     1       7.261  -9.359   7.448  0.00  0.00    +0.015 A 
ATOM     14  C   UNL     1       8.456  -8.937   6.895  0.00  0.00    +0.018 A 
ATOM     15  C   UNL     1       8.806  -7.599   6.940  0.00  0.00    +0.015 A 
ATOM     16  C   UNL     1       7.957  -6.684   7.534  0.00  0.00    +0.007 A 
ATOM     17 BR   UNL     1       9.613 -10.189   6.076  0.00  0.00    -0.050 Br
ENDBRANCH   9  11
BRANCH   1  18
ATOM     18  S   UNL     1       4.861  -5.029   6.306  0.00  0.00    -0.125 S 
BRANCH  18  19
ATOM     19  C   UNL     1       3.144  -4.737   5.797  0.00  0.00    +0.093 C 
BRANCH  19  20
ATOM     20  C   UNL     1       3.128  -3.948   4.486  0.00  0.00    +0.115 C 
BRANCH  20  23
ATOM     21  C   UNL     1       1.482  -3.031   2.941  0.00  0.00    +0.217 C 
ATOM     22  O   UNL     1       2.395  -2.614   2.262  0.00  0.00    -0.275 OA
ATOM     23  N   UNL     1       1.742  -3.712   4.075  0.00  0.00    -0.314 N 
ATOM     24  H   UNL     1       1.011  -4.046   4.619  0.00  0.00    +0.149 HD
BRANCH  21  25
ATOM     25  C   UNL     1       0.056  -2.789   2.518  0.00  0.00    +0.130 C 
BRANCH  25  31
ATOM     26  C   UNL     1      -0.012   1.590   0.097  0.00  0.00    +0.044 C 
ATOM     27  C   UNL     1       0.006   0.084   0.069  0.00  0.00    -0.050 A 
ATOM     28  C   UNL     1       0.009  -0.585  -1.141  0.00  0.00    +0.003 A 
ATOM     29  C   UNL     1       0.026  -1.967  -1.166  0.00  0.00    +0.001 A 
ATOM     30  C   UNL     1       0.041  -2.680   0.018  0.00  0.00    +0.004 A 
ATOM     31  C   UNL     1       0.040  -2.012   1.228  0.00  0.00    -0.038 A 
ATOM     32  C   UNL     1       0.027  -0.629   1.253  0.00  0.00    +0.007 A 
ENDBRANCH  25  31
ENDBRANCH  21  25
ENDBRANCH  20  23
ENDBRANCH  19  20
ENDBRANCH  18  19
ENDBRANCH   1  18
TORSDOF 7
