REMARK  Name = ZINC12379407
REMARK  3 active torsions:
REMARK  status: ('A' for Active; 'I' for Inactive)
REMARK    1  A    between atoms: C_1  and  C_2
REMARK    2  A    between atoms: N_7  and  C_10
REMARK    3  A    between atoms: C_10  and  C_11
REMARK                            x       y       z     vdW  Elec       q    Type
REMARK                         _______ _______ _______ _____ _____    ______ ____
ROOT
ATOM      1  C   UNL     1       3.597   3.822  -0.020  0.00  0.00    +0.049 A 
ATOM      2  C   UNL     1       3.521   2.479  -0.034  0.00  0.00    +0.204 A 
ATOM      3  O   UNL     1       2.359   1.818  -0.024  0.00  0.00    -0.461 OA
ATOM      4  C   UNL     1       1.168   2.450   0.003  0.00  0.00    +0.157 A 
ATOM      5  C   UNL     1       1.126   3.854   0.020  0.00  0.00    +0.067 A 
ATOM      6  C   UNL     1       2.404   4.592   0.008  0.00  0.00    +0.197 A 
ATOM      7  O   UNL     1       2.434   5.811   0.022  0.00  0.00    -0.287 OA
ATOM      8  C   UNL     1      -0.099   4.519   0.046  0.00  0.00    +0.035 A 
ATOM      9  C   UNL     1      -1.269   3.790   0.056  0.00  0.00    +0.043 A 
ATOM     10  C   UNL     1      -1.229   2.402   0.035  0.00  0.00    +0.043 A 
ATOM     11  C   UNL     1      -0.023   1.733   0.013  0.00  0.00    +0.085 A 
ATOM     12 CL   UNL     1       0.007  -0.003  -0.008  0.00  0.00    -0.080 Cl
ATOM     13 CL   UNL     1      -2.799   4.610   0.088  0.00  0.00    -0.083 Cl
ENDROOT
BRANCH   1  14
ATOM     14  C   UNL     1       4.940   4.506  -0.032  0.00  0.00    +0.126 C 
BRANCH  14  21
ATOM     15  C   UNL     1       7.935   7.918   4.351  0.00  0.00    +0.109 C 
ATOM     16  C   UNL     1       6.469   7.671   4.101  0.00  0.00    +0.213 C 
ATOM     17  O   UNL     1       5.645   8.472   4.490  0.00  0.00    -0.276 OA
ATOM     18  N   UNL     1       6.075   6.561   3.447  0.00  0.00    -0.299 N 
ATOM     19  C   UNL     1       7.060   5.637   2.865  0.00  0.00    +0.123 C 
ATOM     20  C   UNL     1       6.683   5.381   1.402  0.00  0.00    +0.103 C 
ATOM     21  N   UNL     1       5.288   4.927   1.331  0.00  0.00    -0.295 NA
ATOM     22  C   UNL     1       4.365   5.962   1.815  0.00  0.00    +0.103 C 
ATOM     23  C   UNL     1       4.647   6.242   3.296  0.00  0.00    +0.123 C 
ENDBRANCH  14  21
ENDBRANCH   1  14
TORSDOF 2
