REMARK  Name = ZINC36313631
REMARK  16 active torsions:
REMARK  status: ('A' for Active; 'I' for Inactive)
REMARK    1  A    between atoms: C_1  and  C_2
REMARK    2  A    between atoms: C_2  and  C_3
REMARK    3  A    between atoms: C_2  and  C_4
REMARK    4  A    between atoms: C_4  and  C_5
REMARK    5  A    between atoms: C_5  and  N_6
REMARK    6  A    between atoms: N_6  and  C_7
REMARK    7  A    between atoms: N_6  and  C_24
REMARK    8  A    between atoms: C_7  and  C_8
REMARK    9  A    between atoms: C_24  and  C_25
REMARK   10  A    between atoms: C_25  and  C_27
REMARK   11  A    between atoms: C_25  and  O_33
REMARK   12  A    between atoms: C_27  and  O_28
REMARK   13  A    between atoms: O_28  and  C_29
REMARK   14  A    between atoms: C_29  and  C_30
REMARK   15  A    between atoms: C_29  and  C_31
REMARK   16  A    between atoms: C_29  and  C_32
REMARK                            x       y       z     vdW  Elec       q    Type
REMARK                         _______ _______ _______ _____ _____    ______ ____
ROOT
ATOM      1  N   UNL     1       0.691  -0.680   3.536  0.00  0.00    +0.386 N 
ATOM      2  H   UNL     1       0.700  -1.662   3.305  0.00  0.00    -0.081 HD
ENDROOT
BRANCH   1   3
ATOM      3  C   UNL     1       0.159   0.086   2.401  0.00  0.00    -0.078 C 
BRANCH   3   4
ATOM      4  C   UNL     1       0.017   1.556   2.799  0.00  0.00    -0.016 C 
BRANCH   4   6
ATOM      5  C   UNL     1      -1.804   1.941   1.133  0.00  0.00    +0.007 C 
ATOM      6  C   UNL     1      -0.407   2.377   1.579  0.00  0.00    -0.019 C 
ATOM      7  C   UNL     1      -0.428   3.862   1.946  0.00  0.00    +0.007 C 
ENDBRANCH   4   6
ENDBRANCH   3   4
ENDBRANCH   1   3
BRANCH   1   8
ATOM      8  C   UNL     1       2.059  -0.234   3.830  0.00  0.00    -0.003 C 
BRANCH   8   9
ATOM      9  C   UNL     1       2.964  -0.597   2.680  0.00  0.00    +0.094 A 
ATOM     10  N   UNL     1       4.252  -0.169   2.685  0.00  0.00    -0.312 N 
ATOM     11  H   UNL     1       4.574   0.364   3.429  0.00  0.00    +0.170 HD
ATOM     12  C   UNL     1       5.094  -0.469   1.678  0.00  0.00    +0.260 A 
ATOM     13  O   UNL     1       6.248  -0.078   1.697  0.00  0.00    -0.267 OA
ATOM     14  C   UNL     1       4.609  -1.258   0.583  0.00  0.00    +0.075 A 
ATOM     15  C   UNL     1       5.340  -1.700  -0.608  0.00  0.00    -0.023 A 
ATOM     16  C   UNL     1       4.651  -2.436  -1.503  0.00  0.00    -0.004 A 
ATOM     17  S   UNL     1       3.020  -2.589  -0.820  0.00  0.00    -0.073 S 
ATOM     18  C   UNL     1       3.266  -1.653   0.667  0.00  0.00    +0.116 A 
ATOM     19  N   UNL     1       2.495  -1.321   1.699  0.00  0.00    -0.229 NA
ATOM     20  C   UNL     1       5.139  -2.997  -2.803  0.00  0.00    +0.043 C 
ATOM     21  C   UNL     1       6.471  -3.722  -2.572  0.00  0.00    +0.005 C 
ATOM     22  C   UNL     1       7.604  -2.716  -2.750  0.00  0.00    +0.001 C 
ATOM     23  C   UNL     1       7.152  -1.332  -2.289  0.00  0.00    +0.005 C 
ATOM     24  C   UNL     1       6.812  -1.348  -0.803  0.00  0.00    +0.037 C 
ENDBRANCH   8   9
ENDBRANCH   1   8
BRANCH   1  25
ATOM     25  C   UNL     1      -0.159  -0.462   4.714  0.00  0.00    -0.044 C 
BRANCH  25  26
ATOM     26  C   UNL     1      -1.534  -1.088   4.474  0.00  0.00    +0.124 C 
BRANCH  26  27
ATOM     27  O   UNL     1      -2.205  -0.379   3.431  0.00  0.00    -0.391 OA
ATOM     28  H   UNL     1      -2.347   0.559   3.621  0.00  0.00    +0.210 HD
ENDBRANCH  26  27
BRANCH  26  29
ATOM     29  C   UNL     1      -2.362  -1.009   5.759  0.00  0.00    +0.189 C 
BRANCH  29  30
ATOM     30  O   UNL     1      -3.600  -1.696   5.570  0.00  0.00    -0.372 OA
BRANCH  30  31
ATOM     31  C   UNL     1      -4.453  -1.681   6.717  0.00  0.00    +0.061 C 
ATOM     32  C   UNL     1      -4.790  -0.235   7.084  0.00  0.00    +0.041 C 
ATOM     33  C   UNL     1      -5.743  -2.442   6.402  0.00  0.00    +0.041 C 
ATOM     34  C   UNL     1      -3.739  -2.352   7.892  0.00  0.00    +0.041 C 
ENDBRANCH  30  31
ENDBRANCH  29  30
ENDBRANCH  26  29
ENDBRANCH  25  26
ENDBRANCH   1  25
TORSDOF 11
