REMARK  Name = ZINC39685883
REMARK  15 active torsions:
REMARK  status: ('A' for Active; 'I' for Inactive)
REMARK    1  A    between atoms: C_1  and  C_2
REMARK    2  A    between atoms: C_2  and  C_3
REMARK    3  A    between atoms: C_3  and  C_5
REMARK    4  A    between atoms: C_3  and  C_6
REMARK    5  A    between atoms: C_6  and  C_7
REMARK    6  A    between atoms: C_11  and  C_20
REMARK    7  A    between atoms: N_22  and  C_23
REMARK    8  A    between atoms: C_23  and  C_25
REMARK    9  A    between atoms: C_23  and  C_28
REMARK   10  A    between atoms: C_25  and  C_26
REMARK   11  A    between atoms: C_25  and  C_27
REMARK   12  A    between atoms: N_30  and  C_31
REMARK   13  A    between atoms: C_31  and  C_32
REMARK   14  A    between atoms: C_31  and  C_33
REMARK   15  A    between atoms: C_31  and  C_34
REMARK                            x       y       z     vdW  Elec       q    Type
REMARK                         _______ _______ _______ _____ _____    ______ ____
ROOT
ATOM      1  C   UNL     1      -3.817  -3.091   0.463  0.00  0.00    +0.216 C 
ATOM      2  O   UNL     1      -4.646  -2.265   0.781  0.00  0.00    -0.276 OA
ATOM      3  N   UNL     1      -4.072  -4.403   0.635  0.00  0.00    -0.300 N 
ATOM      4  C   UNL     1      -3.190  -5.550   0.316  0.00  0.00    +0.121 C 
ATOM      5  C   UNL     1      -3.399  -6.540   1.484  0.00  0.00    +0.100 C 
ATOM      6  C   UNL     1      -4.786  -6.192   2.050  0.00  0.00    -0.004 C 
ATOM      7  C   UNL     1      -5.297  -5.025   1.194  0.00  0.00    +0.115 C 
ATOM      8  C   UNL     1      -4.667  -5.756   3.508  0.00  0.00    -0.010 C 
ATOM      9  C   UNL     1      -6.065  -5.470   4.065  0.00  0.00    -0.082 C 
ATOM     10  N   UNL     1      -6.892  -6.678   3.960  0.00  0.00    +0.379 N 
ATOM     11  C   UNL     1      -7.078  -7.037   2.549  0.00  0.00    -0.082 C 
ATOM     12  C   UNL     1      -5.723  -7.389   1.927  0.00  0.00    -0.010 C 
ATOM     13  H   UNL     1      -6.437  -7.439   4.442  0.00  0.00    -0.086 HD
ATOM     14  H   UNL     1      -7.792  -6.505   4.383  0.00  0.00    -0.086 HD
ENDROOT
BRANCH   5  15
ATOM     15  C   UNL     1      -2.337  -6.345   2.535  0.00  0.00    +0.219 C 
ATOM     16  O   UNL     1      -1.788  -7.307   3.029  0.00  0.00    -0.275 OA
ATOM     17  N   UNL     1      -1.996  -5.101   2.925  0.00  0.00    -0.303 N 
ATOM     18  H   UNL     1      -2.434  -4.331   2.529  0.00  0.00    +0.149 HD
BRANCH  17  19
ATOM     19  C   UNL     1      -0.963  -4.911   3.946  0.00  0.00    +0.161 C 
BRANCH  19  20
ATOM     20  C   UNL     1      -1.177  -3.589   4.637  0.00  0.00    +0.234 C 
ATOM     21  O   UNL     1      -1.869  -2.739   4.119  0.00  0.00    -0.274 OA
ATOM     22  N   UNL     1      -0.598  -3.351   5.831  0.00  0.00    -0.309 N 
ATOM     23  H   UNL     1       0.009  -4.003   6.214  0.00  0.00    +0.149 HD
BRANCH  22  24
ATOM     24  C   UNL     1      -0.886  -2.107   6.550  0.00  0.00    +0.026 C 
ATOM     25  C   UNL     1      -2.386  -2.023   6.842  0.00  0.00    +0.031 C 
ATOM     26  C   UNL     1      -0.108  -2.088   7.867  0.00  0.00    +0.031 C 
ATOM     27  C   UNL     1      -0.466  -0.913   5.691  0.00  0.00    +0.031 C 
ENDBRANCH  22  24
ENDBRANCH  19  20
BRANCH  19  28
ATOM     28  C   UNL     1       0.417  -4.923   3.285  0.00  0.00    +0.012 C 
ATOM     29  C   UNL     1       0.667  -6.294   2.652  0.00  0.00    +0.009 C 
ATOM     30  C   UNL     1       0.473  -3.844   2.202  0.00  0.00    +0.009 C 
ENDBRANCH  19  28
ENDBRANCH  17  19
ENDBRANCH   5  15
BRANCH   1  31
ATOM     31  C   UNL     1      -2.502  -2.651  -0.126  0.00  0.00    +0.099 C 
BRANCH  31  32
ATOM     32  C   UNL     1      -2.468  -1.124  -0.214  0.00  0.00    -0.006 C 
ATOM     33  C   UNL     1      -2.498  -0.531   1.197  0.00  0.00    +0.008 C 
BRANCH  32  35
ATOM     34  C   UNL     1      -1.211   0.835  -1.123  0.00  0.00    +0.004 C 
ATOM     35  C   UNL     1      -1.187  -0.682  -0.924  0.00  0.00    +0.000 C 
ENDBRANCH  32  35
ENDBRANCH  31  32
ENDBRANCH   1  31
TORSDOF 8
