REMARK  Name = ZINC12561007
REMARK  12 active torsions:
REMARK  status: ('A' for Active; 'I' for Inactive)
REMARK    1  A    between atoms: C_1  and  C_2
REMARK    2  A    between atoms: C_5  and  S_9
REMARK    3  A    between atoms: C_7  and  C_8
REMARK    4  A    between atoms: S_9  and  N_12
REMARK    5  A    between atoms: N_12  and  C_13
REMARK    6  A    between atoms: C_17  and  N_19
REMARK    7  A    between atoms: C_20  and  C_22
REMARK    8  A    between atoms: C_22  and  C_24
REMARK    9  A    between atoms: C_22  and  N_27
REMARK   10  A    between atoms: C_24  and  C_25
REMARK   11  A    between atoms: C_24  and  C_26
REMARK   12  A    between atoms: C_28  and  C_30
REMARK                            x       y       z     vdW  Elec       q    Type
REMARK                         _______ _______ _______ _____ _____    ______ ____
ROOT
ATOM      1  C   UNL     1      -0.524  -1.128  -2.955  0.00  0.00    +0.050 A 
ATOM      2  C   UNL     1       0.792  -1.494  -2.699  0.00  0.00    +0.024 A 
ATOM      3  C   UNL     1       1.317  -2.635  -3.273  0.00  0.00    +0.004 A 
ATOM      4  C   UNL     1       0.540  -3.410  -4.113  0.00  0.00    +0.023 A 
ATOM      5  C   UNL     1      -0.774  -3.046  -4.378  0.00  0.00    +0.035 A 
ATOM      6  C   UNL     1      -1.307  -1.903  -3.798  0.00  0.00    +0.047 A 
ENDROOT
BRANCH   5   7
ATOM      7  N   UNL     1      -1.560  -3.830  -5.229  0.00  0.00    -0.284 N 
ATOM      8  C   UNL     1      -0.978  -4.559  -6.202  0.00  0.00    +0.238 C 
ATOM      9  O   UNL     1       0.231  -4.604  -6.286  0.00  0.00    -0.273 OA
ATOM     10  H   UNL     1      -2.524  -3.850  -5.119  0.00  0.00    +0.155 HD
BRANCH   8  11
ATOM     11  C   UNL     1      -1.830  -5.320  -7.186  0.00  0.00    +0.162 C 
BRANCH  11  12
ATOM     12  N   UNL     1      -1.017  -6.344  -7.846  0.00  0.00    -0.299 N 
ATOM     13  C   UNL     1      -1.605  -7.443  -8.361  0.00  0.00    +0.251 C 
ATOM     14  O   UNL     1      -2.810  -7.584  -8.276  0.00  0.00    -0.270 OA
ATOM     15  H   UNL     1      -0.056  -6.231  -7.914  0.00  0.00    +0.150 HD
BRANCH  13  16
ATOM     16  C   UNL     1      -0.791  -8.467  -9.022  0.00  0.00    +0.074 A 
ATOM     17  C   UNL     1      -1.192  -9.656  -9.610  0.00  0.00    +0.021 A 
ATOM     18  C   UNL     1      -0.212 -10.441 -10.165  0.00  0.00    +0.008 A 
ATOM     19  C   UNL     1       1.080 -10.024 -10.114  0.00  0.00    +0.046 A 
ATOM     20  S   UNL     1       0.973  -8.504  -9.287  0.00  0.00    -0.092 S 
ENDBRANCH  13  16
ENDBRANCH  11  12
BRANCH  11  21
ATOM     21  C   UNL     1      -2.385  -4.354  -8.234  0.00  0.00    +0.012 C 
ATOM     22  C   UNL     1      -1.226  -3.700  -8.989  0.00  0.00    +0.009 C 
ATOM     23  C   UNL     1      -3.267  -5.122  -9.220  0.00  0.00    +0.009 C 
ENDBRANCH  11  21
ENDBRANCH   8  11
ENDBRANCH   5   7
BRANCH   1  24
ATOM     24  N   UNL     1      -1.056   0.023  -2.369  0.00  0.00    -0.216 N 
ATOM     25  H   UNL     1      -0.819   0.898  -2.716  0.00  0.00    +0.174 HD
BRANCH  24  26
ATOM     26  S   UNL     1      -2.091  -0.105  -1.082  0.00  0.00    +0.072 S 
ATOM     27  O   UNL     1      -3.190  -0.891  -1.522  0.00  0.00    -0.150 OA
ATOM     28  O   UNL     1      -2.253   1.206  -0.559  0.00  0.00    -0.150 OA
BRANCH  26  33
ATOM     29  C   UNL     1       0.739  -3.322   3.166  0.00  0.00    +0.044 C 
ATOM     30  C   UNL     1       0.032  -2.519   2.105  0.00  0.00    -0.047 A 
ATOM     31  C   UNL     1      -0.831  -3.144   1.225  0.00  0.00    +0.005 A 
ATOM     32  C   UNL     1      -1.479  -2.407   0.251  0.00  0.00    +0.029 A 
ATOM     33  C   UNL     1      -1.265  -1.045   0.159  0.00  0.00    +0.109 A 
ATOM     34  C   UNL     1      -0.402  -0.419   1.039  0.00  0.00    +0.032 A 
ATOM     35  C   UNL     1       0.246  -1.156   2.013  0.00  0.00    -0.046 A 
ATOM     36  C   UNL     1       1.186  -0.474   2.973  0.00  0.00    +0.044 C 
ENDBRANCH  26  33
ENDBRANCH  24  26
ENDBRANCH   1  24
TORSDOF 8
