REMARK  Name = ZINC39387754
REMARK  7 active torsions:
REMARK  status: ('A' for Active; 'I' for Inactive)
REMARK    1  A    between atoms: C_4  and  C_7
REMARK    2  A    between atoms: C_7  and  C_12
REMARK    3  A    between atoms: C_12  and  N_13
REMARK    4  A    between atoms: C_14  and  C_16
REMARK    5  A    between atoms: N_22  and  C_25
REMARK    6  A    between atoms: C_25  and  C_26
REMARK    7  A    between atoms: C_31  and  C_32
REMARK                            x       y       z     vdW  Elec       q    Type
REMARK                         _______ _______ _______ _____ _____    ______ ____
ROOT
ATOM      1  C   UNL     1       6.067   3.470   2.132  0.00  0.00    +0.082 C 
ATOM      2  C   UNL     1       5.518   4.315   3.284  0.00  0.00    +0.020 C 
ATOM      3  C   UNL     1       7.010   3.991   3.215  0.00  0.00    -0.021 C 
ATOM      4  C   UNL     1       7.972   5.123   2.840  0.00  0.00    -0.011 C 
ATOM      5  C   UNL     1       9.316   4.508   2.436  0.00  0.00    -0.078 C 
ATOM      6  N   UNL     1       9.820   3.670   3.529  0.00  0.00    +0.380 N 
ATOM      7  C   UNL     1       8.943   2.509   3.724  0.00  0.00    -0.078 C 
ATOM      8  C   UNL     1       7.572   2.981   4.221  0.00  0.00    -0.011 C 
ATOM      9  H   UNL     1       9.851   4.212   4.380  0.00  0.00    -0.082 HD
ENDROOT
BRANCH   1  11
ATOM     10  N   UNL     1       6.485   1.146   1.395  0.00  0.00    -0.314 N 
ATOM     11  C   UNL     1       5.749   1.996   2.137  0.00  0.00    +0.217 C 
ATOM     12  O   UNL     1       4.830   1.576   2.808  0.00  0.00    -0.275 OA
ATOM     13  H   UNL     1       7.220   1.482   0.858  0.00  0.00    +0.149 HD
BRANCH  10  14
ATOM     14  C   UNL     1       6.176  -0.286   1.400  0.00  0.00    +0.115 C 
BRANCH  14  15
ATOM     15  C   UNL     1       7.210  -1.034   0.555  0.00  0.00    +0.011 C 
ATOM     16  C   UNL     1       8.631  -0.750   1.084  0.00  0.00    +0.013 C 
ATOM     17  C   UNL     1       8.933  -1.945   2.021  0.00  0.00    +0.001 C 
ATOM     18  C   UNL     1       8.287  -3.138   1.274  0.00  0.00    +0.001 C 
ATOM     19  C   UNL     1       6.991  -2.552   0.675  0.00  0.00    +0.013 C 
BRANCH  15  23
ATOM     20  C   UNL     1       6.902   0.167  -3.533  0.00  0.00    +0.000 A 
ATOM     21  C   UNL     1       7.927  -0.670  -3.134  0.00  0.00    +0.000 A 
ATOM     22  C   UNL     1       8.027  -1.059  -1.811  0.00  0.00    +0.004 A 
ATOM     23  C   UNL     1       7.102  -0.610  -0.887  0.00  0.00    -0.040 A 
ATOM     24  C   UNL     1       6.077   0.228  -1.286  0.00  0.00    +0.004 A 
ATOM     25  C   UNL     1       5.976   0.615  -2.609  0.00  0.00    +0.000 A 
ENDBRANCH  15  23
ENDBRANCH  14  15
ENDBRANCH  10  14
ENDBRANCH   1  11
BRANCH   6  26
ATOM     26  C   UNL     1      11.175   3.206   3.202  0.00  0.00    -0.063 C 
BRANCH  26  27
ATOM     27  C   UNL     1      12.131   4.401   3.176  0.00  0.00    +0.066 C 
ATOM     28  C   UNL     1      12.374   4.921   4.579  0.00  0.00    +0.115 C 
ATOM     29  N   UNL     1      13.641   4.784   4.798  0.00  0.00    -0.161 NA
ATOM     30  N   UNL     1      14.312   4.230   3.713  0.00  0.00    -0.153 NA
ATOM     31  C   UNL     1      13.509   3.972   2.712  0.00  0.00    +0.077 C 
BRANCH  31  32
ATOM     32  C   UNL     1      13.866   3.388   1.411  0.00  0.00    -0.001 A 
ATOM     33  C   UNL     1      12.880   3.180   0.440  0.00  0.00    +0.012 A 
ATOM     34  C   UNL     1      13.221   2.632  -0.777  0.00  0.00    +0.039 A 
ATOM     35  C   UNL     1      14.538   2.288  -1.042  0.00  0.00    +0.123 A 
ATOM     36  C   UNL     1      15.521   2.492  -0.085  0.00  0.00    +0.039 A 
ATOM     37  C   UNL     1      15.194   3.044   1.135  0.00  0.00    +0.012 A 
ATOM     38  F   UNL     1      14.866   1.751  -2.238  0.00  0.00    -0.205 F 
ENDBRANCH  31  32
ENDBRANCH  26  27
ENDBRANCH   6  26
TORSDOF 7
