REMARK  Name = ZINC63376388
REMARK  10 active torsions:
REMARK  status: ('A' for Active; 'I' for Inactive)
REMARK    1  A    between atoms: N_9  and  C_14
REMARK    2  A    between atoms: C_10  and  O_13
REMARK    3  A    between atoms: C_14  and  C_15
REMARK    4  A    between atoms: C_15  and  C_16
REMARK    5  A    between atoms: C_16  and  C_17
REMARK    6  A    between atoms: C_17  and  C_18
REMARK    7  A    between atoms: C_18  and  C_19
REMARK    8  A    between atoms: N_21  and  C_22
REMARK    9  A    between atoms: C_22  and  C_23
REMARK   10  A    between atoms: C_23  and  C_24
REMARK                            x       y       z     vdW  Elec       q    Type
REMARK                         _______ _______ _______ _____ _____    ______ ____
ROOT
ATOM      1  C   UNL     1       3.490  -6.511  -2.811  0.00  0.00    +0.009 C 
ENDROOT
BRANCH   1   2
ATOM      2  C   UNL     1       3.088  -6.120  -1.388  0.00  0.00    +0.002 C 
BRANCH   2   3
ATOM      3  C   UNL     1       2.983  -4.596  -1.288  0.00  0.00    +0.019 C 
BRANCH   3   4
ATOM      4  C   UNL     1       2.581  -4.205   0.135  0.00  0.00    +0.112 C 
BRANCH   4  13
ATOM      5  C   UNL     1      -0.017   1.375   0.010  0.00  0.00    +0.001 A 
ATOM      6  C   UNL     1       1.168   2.095   0.002  0.00  0.00    +0.002 A 
ATOM      7  C   UNL     1       2.386   1.444  -0.012  0.00  0.00    +0.024 A 
ATOM      8  C   UNL     1       2.422   0.060  -0.018  0.00  0.00    +0.042 A 
ATOM      9  C   UNL     1       1.223  -0.674  -0.014  0.00  0.00    +0.058 A 
ATOM     10  C   UNL     1       0.002  -0.004   0.002  0.00  0.00    +0.015 A 
ATOM     11  C   UNL     1       1.301  -2.146  -0.031  0.00  0.00    +0.251 C 
ATOM     12  O   UNL     1       0.313  -2.811  -0.278  0.00  0.00    -0.270 OA
ATOM     13  N   UNL     1       2.480  -2.747   0.230  0.00  0.00    -0.256 N 
ATOM     14  C   UNL     1       3.660  -1.968   0.607  0.00  0.00    +0.299 C 
ATOM     15  N   UNL     1       3.621  -0.645  -0.027  0.00  0.00    -0.303 N 
ATOM     16  H   UNL     1       4.413  -0.271  -0.443  0.00  0.00    +0.150 HD
BRANCH  14  17
ATOM     17  O   UNL     1       3.688  -1.808   2.027  0.00  0.00    -0.359 OA
ATOM     18  H   UNL     1       4.444  -1.301   2.351  0.00  0.00    +0.213 HD
ENDBRANCH  14  17
ENDBRANCH   4  13
ENDBRANCH   3   4
ENDBRANCH   2   3
ENDBRANCH   1   2
BRANCH   1  19
ATOM     19  C   UNL     1       3.595  -8.034  -2.911  0.00  0.00    +0.096 C 
BRANCH  19  20
ATOM     20  C   UNL     1       3.991  -8.420  -4.313  0.00  0.00    +0.213 C 
ATOM     21  O   UNL     1       4.172  -7.561  -5.150  0.00  0.00    -0.276 OA
ATOM     22  N   UNL     1       4.145  -9.719  -4.636  0.00  0.00    -0.315 N 
ATOM     23  H   UNL     1       4.001 -10.406  -3.967  0.00  0.00    +0.149 HD
BRANCH  22  24
ATOM     24  C   UNL     1       4.530 -10.094  -5.999  0.00  0.00    +0.108 C 
BRANCH  24  25
ATOM     25  C   UNL     1       4.635 -11.617  -6.099  0.00  0.00    +0.052 C 
BRANCH  25  26
ATOM     26  C   UNL     1       5.031 -12.003  -7.501  0.00  0.00    -0.040 C 
ATOM     27  C   UNL     1       6.281 -12.254  -7.953  0.00  0.00    +0.000 A 
ATOM     28  C   UNL     1       7.596 -12.242  -7.300  0.00  0.00    +0.030 A 
ATOM     29  C   UNL     1       8.694 -12.543  -8.030  0.00  0.00    +0.042 A 
ATOM     30  C   UNL     1       8.608 -12.864  -9.393  0.00  0.00    +0.022 A 
ATOM     31  C   UNL     1       7.436 -12.895 -10.062  0.00  0.00    +0.027 A 
ATOM     32  C   UNL     1       6.217 -12.596  -9.392  0.00  0.00    +0.043 A 
ATOM     33  N   UNL     1       4.976 -12.559  -9.812  0.00  0.00    -0.380 N 
ATOM     34  C   UNL     1       4.111 -12.194  -8.685  0.00  0.00    +0.144 C 
ATOM     35 CL   UNL     1      10.251 -12.530  -7.262  0.00  0.00    -0.084 Cl
ATOM     36  H   UNL     1       4.679 -12.745 -10.717  0.00  0.00    +0.160 HD
ENDBRANCH  25  26
ENDBRANCH  24  25
ENDBRANCH  22  24
ENDBRANCH  19  20
ENDBRANCH   1  19
TORSDOF 10
