REMARK  Name = ZINC31153636
REMARK  8 active torsions:
REMARK  status: ('A' for Active; 'I' for Inactive)
REMARK    1  A    between atoms: C_1  and  C_2
REMARK    2  A    between atoms: C_6  and  C_30
REMARK    3  A    between atoms: C_7  and  N_8
REMARK    4  A    between atoms: C_9  and  C_11
REMARK    5  A    between atoms: C_11  and  N_12
REMARK    6  A    between atoms: N_12  and  C_13
REMARK    7  A    between atoms: N_12  and  C_14
REMARK    8  A    between atoms: C_14  and  C_15
REMARK                            x       y       z     vdW  Elec       q    Type
REMARK                         _______ _______ _______ _____ _____    ______ ____
ROOT
ATOM      1  C   UNL     1       3.147   3.514   6.942  0.00  0.00    -0.001 C 
ENDROOT
BRANCH   1   2
ATOM      2  C   UNL     1       3.965   3.207   5.715  0.00  0.00    +0.116 A 
ATOM      3  N   UNL     1       5.229   3.590   5.668  0.00  0.00    -0.219 NA
ATOM      4  C   UNL     1       6.000   3.351   4.620  0.00  0.00    +0.128 A 
ATOM      5  C   UNL     1       5.453   2.659   3.504  0.00  0.00    +0.051 A 
ATOM      6  C   UNL     1       6.115   2.282   2.246  0.00  0.00    -0.025 A 
ATOM      7  C   UNL     1       5.361   1.637   1.337  0.00  0.00    -0.004 A 
ATOM      8  S   UNL     1       3.763   1.467   2.089  0.00  0.00    -0.073 S 
ATOM      9  C   UNL     1       4.102   2.284   3.625  0.00  0.00    +0.114 A 
ATOM     10  N   UNL     1       3.404   2.562   4.710  0.00  0.00    -0.227 NA
ATOM     11  C   UNL     1       5.772   1.163  -0.022  0.00  0.00    +0.043 C 
ATOM     12  C   UNL     1       7.092   0.388   0.088  0.00  0.00    +0.005 C 
ATOM     13  C   UNL     1       8.243   1.376  -0.074  0.00  0.00    +0.001 C 
ATOM     14  C   UNL     1       7.853   2.733   0.509  0.00  0.00    +0.005 C 
ATOM     15  C   UNL     1       7.585   2.612   2.004  0.00  0.00    +0.037 C 
ATOM     16  N   UNL     1       7.319   3.768   4.610  0.00  0.00    -0.343 N 
ATOM     17  H   UNL     1       7.953   3.565   3.734  0.00  0.00    +0.144 HD
ATOM     18  H   UNL     1       7.734   4.302   5.477  0.00  0.00    +0.144 HD
ENDBRANCH   1   2
BRANCH   1  19
ATOM     19  N   UNL     1       3.267   2.406   7.900  0.00  0.00    +0.388 N 
ATOM     20  C   UNL     1       4.639   2.300   8.413  0.00  0.00    -0.095 C 
ATOM     21  H   UNL     1       3.031   1.472   7.369  0.00  0.00    -0.081 HD
BRANCH  19  22
ATOM     22  C   UNL     1       2.304   2.555   9.000  0.00  0.00    +0.019 C 
BRANCH  22  24
ATOM     23  N   UNL     1       1.468   1.199  10.892  0.00  0.00    -0.287 N 
ATOM     24  C   UNL     1       2.283   1.292   9.822  0.00  0.00    +0.201 C 
ATOM     25  O   UNL     1       2.999   0.361   9.522  0.00  0.00    -0.278 OA
ATOM     26  H   UNL     1       0.759   2.009  11.115  0.00  0.00    +0.155 HD
BRANCH  23  33
ATOM     27  C   UNL     1       0.635  -1.299   9.813  0.00  0.00    +0.045 C 
ATOM     28  C   UNL     1       1.127  -1.168  11.231  0.00  0.00    -0.029 A 
ATOM     29  C   UNL     1       1.189  -2.281  12.047  0.00  0.00    +0.005 A 
ATOM     30  C   UNL     1       1.635  -2.160  13.351  0.00  0.00    +0.001 A 
ATOM     31  C   UNL     1       2.026  -0.927  13.840  0.00  0.00    +0.005 A 
ATOM     32  C   UNL     1       1.971   0.188  13.027  0.00  0.00    -0.029 A 
ATOM     33  C   UNL     1       1.524   0.071  11.718  0.00  0.00    +0.039 A 
ATOM     34  C   UNL     1       2.398   1.532  13.561  0.00  0.00    +0.045 C 
ENDBRANCH  23  33
ENDBRANCH  22  24
ENDBRANCH  19  22
ENDBRANCH   1  19
TORSDOF 5
