REMARK  Name = ZINC01972951
REMARK  2 active torsions:
REMARK  status: ('A' for Active; 'I' for Inactive)
REMARK    1  A    between atoms: N_14  and  C_15
REMARK    2  A    between atoms: C_15  and  C_16
REMARK                            x       y       z     vdW  Elec       q    Type
REMARK                         _______ _______ _______ _____ _____    ______ ____
ROOT
ATOM      1  C   UNL     1       0.019  -4.832  -0.011  0.00  0.00    +0.203 A 
ATOM      2  N   UNL     1      -0.879  -3.905   0.240  0.00  0.00    -0.230 NA
ATOM      3  C   UNL     1      -0.494  -2.637   0.136  0.00  0.00    +0.116 A 
ATOM      4  C   UNL     1       0.812  -2.239  -0.226  0.00  0.00    +0.076 A 
ATOM      5  C   UNL     1       1.051  -0.808  -0.290  0.00  0.00    -0.023 A 
ATOM      6  C   UNL     1       0.002  -0.004   0.002  0.00  0.00    -0.004 A 
ATOM      7  S   UNL     1      -1.339  -1.106   0.372  0.00  0.00    -0.073 S 
ATOM      8  C   UNL     1      -0.018   1.493   0.010  0.00  0.00    +0.043 C 
ATOM      9  C   UNL     1       1.431   1.999  -0.001  0.00  0.00    +0.005 C 
ATOM     10  C   UNL     1       2.205   1.245  -1.085  0.00  0.00    +0.005 C 
ATOM     11  C   UNL     1       2.405  -0.211  -0.663  0.00  0.00    +0.037 C 
ATOM     12  C   UNL     1       1.762  -3.282  -0.491  0.00  0.00    +0.263 A 
ATOM     13  O   UNL     1       2.914  -3.045  -0.810  0.00  0.00    -0.267 OA
ATOM     14  N   UNL     1       1.295  -4.547  -0.365  0.00  0.00    -0.292 N 
ENDROOT
BRANCH  14  15
ATOM     15  C   UNL     1       2.213  -5.659  -0.623  0.00  0.00    +0.196 C 
BRANCH  15  16
ATOM     16  C   UNL     1       2.147  -6.037  -2.080  0.00  0.00    +0.245 C 
ATOM     17  O   UNL     1       3.156  -6.060  -2.744  0.00  0.00    -0.299 OA
ENDBRANCH  15  16
ENDBRANCH  14  15
TORSDOF 2
