REMARK  Name = ZINC39631370
REMARK  14 active torsions:
REMARK  status: ('A' for Active; 'I' for Inactive)
REMARK    1  A    between atoms: C_1  and  C_2
REMARK    2  A    between atoms: C_2  and  O_3
REMARK    3  A    between atoms: O_3  and  C_4
REMARK    4  A    between atoms: C_7  and  C_10
REMARK    5  A    between atoms: C_14  and  C_23
REMARK    6  A    between atoms: N_25  and  C_26
REMARK    7  A    between atoms: C_26  and  C_28
REMARK    8  A    between atoms: C_26  and  C_29
REMARK    9  A    between atoms: C_29  and  C_30
REMARK   10  A    between atoms: C_30  and  C_31
REMARK   11  A    between atoms: C_31  and  C_32
REMARK   12  A    between atoms: C_32  and  C_33
REMARK   13  A    between atoms: C_32  and  C_34
REMARK   14  A    between atoms: C_32  and  O_35
REMARK                            x       y       z     vdW  Elec       q    Type
REMARK                         _______ _______ _______ _____ _____    ______ ____
ROOT
ATOM      1  C   UNL     1       1.141  -6.027   1.763  0.00  0.00    +0.247 C 
ATOM      2  O   UNL     1       0.574  -6.769   0.985  0.00  0.00    -0.270 OA
ATOM      3  N   UNL     1       1.862  -6.539   2.779  0.00  0.00    -0.296 N 
ATOM      4  C   UNL     1       2.512  -5.806   3.892  0.00  0.00    +0.121 C 
ATOM      5  C   UNL     1       2.285  -6.699   5.132  0.00  0.00    +0.100 C 
ATOM      6  C   UNL     1       2.073  -8.113   4.564  0.00  0.00    -0.004 C 
ATOM      7  C   UNL     1       2.181  -7.963   3.040  0.00  0.00    +0.115 C 
ATOM      8  C   UNL     1       0.689  -8.633   4.941  0.00  0.00    -0.010 C 
ATOM      9  C   UNL     1       0.525 -10.061   4.414  0.00  0.00    -0.082 C 
ATOM     10  N   UNL     1       1.566 -10.920   4.992  0.00  0.00    +0.379 N 
ATOM     11  C   UNL     1       2.890 -10.469   4.549  0.00  0.00    -0.082 C 
ATOM     12  C   UNL     1       3.155  -9.057   5.081  0.00  0.00    -0.010 C 
ATOM     13  H   UNL     1       1.516 -10.876   5.998  0.00  0.00    -0.086 HD
ATOM     14  H   UNL     1       1.419 -11.872   4.691  0.00  0.00    -0.086 HD
ENDROOT
BRANCH   1  18
ATOM     15  C   UNL     1       0.847  -1.818   1.277  0.00  0.00    +0.121 A 
ATOM     16  C   UNL     1       1.936  -2.364   1.946  0.00  0.00    +0.046 A 
ATOM     17  C   UNL     1       2.034  -3.728   2.106  0.00  0.00    +0.016 A 
ATOM     18  C   UNL     1       1.038  -4.564   1.594  0.00  0.00    +0.037 A 
ATOM     19  C   UNL     1      -0.055  -4.011   0.922  0.00  0.00    +0.016 A 
ATOM     20  C   UNL     1      -0.149  -2.645   0.771  0.00  0.00    +0.046 A 
BRANCH  15  21
ATOM     21  O   UNL     1       0.753  -0.473   1.121  0.00  0.00    -0.492 OA
BRANCH  21  23
ATOM     22  C   UNL     1       1.532   1.798   1.395  0.00  0.00    +0.048 C 
ATOM     23  C   UNL     1       1.811   0.318   1.666  0.00  0.00    +0.225 C 
ENDBRANCH  21  23
ENDBRANCH  15  21
ENDBRANCH   1  18
BRANCH   5  24
ATOM     24  C   UNL     1       3.494  -6.668   6.030  0.00  0.00    +0.218 C 
ATOM     25  O   UNL     1       4.586  -6.409   5.569  0.00  0.00    -0.275 OA
ATOM     26  N   UNL     1       3.363  -6.926   7.346  0.00  0.00    -0.312 N 
ATOM     27  H   UNL     1       2.490  -7.133   7.716  0.00  0.00    +0.149 HD
BRANCH  26  28
ATOM     28  C   UNL     1       4.539  -6.895   8.220  0.00  0.00    +0.070 C 
ATOM     29  C   UNL     1       4.797  -5.458   8.677  0.00  0.00    +0.028 C 
BRANCH  28  30
ATOM     30  C   UNL     1       4.291  -7.783   9.441  0.00  0.00    +0.022 C 
BRANCH  30  31
ATOM     31  C   UNL     1       4.158  -9.240   8.994  0.00  0.00    +0.005 C 
BRANCH  31  32
ATOM     32  C   UNL     1       3.910 -10.127  10.215  0.00  0.00    +0.034 C 
BRANCH  32  33
ATOM     33  C   UNL     1       3.776 -11.585   9.768  0.00  0.00    +0.061 C 
ATOM     34  C   UNL     1       3.405 -12.455  10.970  0.00  0.00    +0.041 C 
ATOM     35  C   UNL     1       2.683 -11.693   8.703  0.00  0.00    +0.041 C 
BRANCH  33  36
ATOM     36  O   UNL     1       5.019 -12.031   9.222  0.00  0.00    -0.389 OA
ATOM     37  H   UNL     1       5.759 -11.990   9.843  0.00  0.00    +0.210 HD
ENDBRANCH  33  36
ENDBRANCH  32  33
ENDBRANCH  31  32
ENDBRANCH  30  31
ENDBRANCH  28  30
ENDBRANCH  26  28
ENDBRANCH   5  24
TORSDOF 10
