REMARK  Name = ZINC04574787
REMARK  5 active torsions:
REMARK  status: ('A' for Active; 'I' for Inactive)
REMARK    1  A    between atoms: C_4  and  N_7
REMARK    2  A    between atoms: N_7  and  C_8
REMARK    3  A    between atoms: C_8  and  N_10
REMARK    4  A    between atoms: N_10  and  N_11
REMARK    5  A    between atoms: C_13  and  C_23
REMARK                            x       y       z     vdW  Elec       q    Type
REMARK                         _______ _______ _______ _____ _____    ______ ____
ROOT
ATOM      1  N   UNL     1      -0.173   7.912   0.101  0.00  0.00    -0.274 N 
ATOM      2  C   UNL     1      -0.113   9.209  -0.021  0.00  0.00    +0.224 A 
ATOM      3  C   UNL     1      -1.334  10.013  -0.252  0.00  0.00    +0.098 A 
ATOM      4  C   UNL     1      -1.318  11.320   0.173  0.00  0.00    +0.030 A 
ATOM      5  C   UNL     1      -0.095  11.808   0.821  0.00  0.00    +0.019 A 
ATOM      6  C   UNL     1      -0.089  13.022   1.514  0.00  0.00    +0.026 A 
ATOM      7  C   UNL     1       1.072  13.458   2.117  0.00  0.00    +0.019 A 
ATOM      8  C   UNL     1       2.230  12.699   2.038  0.00  0.00    +0.019 A 
ATOM      9  C   UNL     1       2.238  11.498   1.355  0.00  0.00    +0.048 A 
ATOM     10  C   UNL     1       1.083  11.043   0.741  0.00  0.00    +0.138 A 
ATOM     11  O   UNL     1       1.078   9.868   0.067  0.00  0.00    -0.437 OA
ATOM     12 BR   UNL     1       1.085  15.100   3.055  0.00  0.00    -0.050 Br
ATOM     13  H   UNL     1       0.752   7.319   0.150  0.00  0.00    +0.187 HD
ENDROOT
BRANCH   3  14
ATOM     14  C   UNL     1      -2.518   9.436  -0.912  0.00  0.00    +0.247 C 
ATOM     15  O   UNL     1      -3.631   9.819  -0.607  0.00  0.00    -0.270 OA
ATOM     16  N   UNL     1      -2.367   8.483  -1.854  0.00  0.00    -0.325 N 
ATOM     17  H   UNL     1      -3.251   8.053  -2.347  0.00  0.00    +0.145 HD
ATOM     18  H   UNL     1      -1.360   8.137  -2.130  0.00  0.00    +0.145 HD
ENDBRANCH   3  14
BRANCH   1  19
ATOM     19  N   UNL     1      -1.418   7.272   0.171  0.00  0.00    -0.238 N 
ATOM     20  H   UNL     1      -2.341   7.869   0.216  0.00  0.00    +0.174 HD
BRANCH  19  21
ATOM     21  C   UNL     1      -1.485   5.926   0.181  0.00  0.00    +0.153 C 
ATOM     22  S   UNL     1      -3.006   5.145   0.266  0.00  0.00    -0.017 S 
BRANCH  21  23
ATOM     23  N   UNL     1      -0.354   5.195   0.126  0.00  0.00    -0.296 N 
ATOM     24  H   UNL     1       0.626   5.694   0.166  0.00  0.00    +0.154 HD
BRANCH  23  28
ATOM     25  C   UNL     1      -0.569   1.048  -0.196  0.00  0.00    +0.000 A 
ATOM     26  C   UNL     1       0.374   1.627   0.632  0.00  0.00    +0.002 A 
ATOM     27  C   UNL     1       0.452   3.002   0.737  0.00  0.00    +0.023 A 
ATOM     28  C   UNL     1      -0.426   3.803   0.018  0.00  0.00    +0.033 A 
ATOM     29  C   UNL     1      -1.376   3.217  -0.810  0.00  0.00    +0.023 A 
ATOM     30  C   UNL     1      -1.445   1.842  -0.914  0.00  0.00    +0.002 A 
ENDBRANCH  23  28
ENDBRANCH  21  23
ENDBRANCH  19  21
ENDBRANCH   1  19
TORSDOF 5
