REMARK  Name = ZINC37934113
REMARK  5 active torsions:
REMARK  status: ('A' for Active; 'I' for Inactive)
REMARK    1  A    between atoms: C_6  and  N_7
REMARK    2  A    between atoms: N_7  and  C_8
REMARK    3  A    between atoms: C_10  and  N_18
REMARK    4  A    between atoms: C_12  and  S_14
REMARK    5  A    between atoms: S_14  and  N_17
REMARK                            x       y       z     vdW  Elec       q    Type
REMARK                         _______ _______ _______ _____ _____    ______ ____
ROOT
ATOM      1  C   UNL     1      -1.235  -2.114  -0.087  0.00  0.00    +0.035 A 
ATOM      2  C   UNL     1      -0.052  -2.841  -0.091  0.00  0.00    +0.046 A 
ATOM      3  C   UNL     1      -0.092  -4.224  -0.187  0.00  0.00    +0.028 A 
ATOM      4  C   UNL     1      -1.315  -4.878  -0.280  0.00  0.00    +0.051 A 
ATOM      5  C   UNL     1      -2.490  -4.151  -0.276  0.00  0.00    +0.108 A 
ATOM      6  C   UNL     1      -2.454  -2.774  -0.174  0.00  0.00    +0.052 A 
ENDROOT
BRANCH   5   7
ATOM      7  S   UNL     1      -4.039  -4.984  -0.394  0.00  0.00    +0.056 S 
ATOM      8  O   UNL     1      -4.966  -4.044  -0.918  0.00  0.00    -0.153 OA
ATOM      9  O   UNL     1      -3.782  -6.232  -1.022  0.00  0.00    -0.153 OA
BRANCH   7  10
ATOM     10  N   UNL     1      -4.531  -5.324   1.150  0.00  0.00    -0.204 NA
ATOM     11  H   UNL     1      -5.477  -5.368   1.359  0.00  0.00    +0.144 HD
ATOM     12  H   UNL     1      -3.873  -5.479   1.846  0.00  0.00    +0.144 HD
ENDBRANCH   7  10
ENDBRANCH   5   7
BRANCH   3  13
ATOM     13  N   UNL     1       1.096  -4.959  -0.192  0.00  0.00    -0.358 N 
ATOM     14  H   UNL     1       1.949  -4.503  -0.128  0.00  0.00    +0.142 HD
ATOM     15  H   UNL     1       1.067  -5.926  -0.260  0.00  0.00    +0.142 HD
ENDBRANCH   3  13
BRANCH   1  16
ATOM     16  N   UNL     1      -1.199  -0.721   0.010  0.00  0.00    -0.314 N 
ATOM     17  H   UNL     1      -1.911  -0.248   0.469  0.00  0.00    +0.152 HD
BRANCH  16  23
ATOM     18  C   UNL     1       0.580  -0.548  -1.613  0.00  0.00    +0.026 A 
ATOM     19  C   UNL     1       1.630   0.157  -2.169  0.00  0.00    +0.043 A 
ATOM     20  C   UNL     1       1.968   1.403  -1.672  0.00  0.00    +0.159 A 
ATOM     21  C   UNL     1       1.255   1.947  -0.613  0.00  0.00    +0.160 A 
ATOM     22  C   UNL     1       0.204   1.243  -0.054  0.00  0.00    +0.064 A 
ATOM     23  C   UNL     1      -0.136  -0.007  -0.553  0.00  0.00    +0.034 A 
ATOM     24  F   UNL     1       1.588   3.163  -0.128  0.00  0.00    -0.202 F 
ATOM     25  F   UNL     1       2.995   2.091  -2.217  0.00  0.00    -0.202 F 
ENDBRANCH  16  23
ENDBRANCH   1  16
TORSDOF 5
