REMARK  Name = ZINC08880824
REMARK  7 active torsions:
REMARK  status: ('A' for Active; 'I' for Inactive)
REMARK    1  A    between atoms: C_4  and  C_7
REMARK    2  A    between atoms: C_7  and  S_8
REMARK    3  A    between atoms: S_8  and  N_11
REMARK    4  A    between atoms: C_16  and  C_17
REMARK    5  A    between atoms: C_16  and  N_57
REMARK    6  A    between atoms: N_19  and  C_20
REMARK    7  A    between atoms: C_21  and  C_28
REMARK                            x       y       z     vdW  Elec       q    Type
REMARK                         _______ _______ _______ _____ _____    ______ ____
ROOT
ATOM      1  C   UNL     1       3.509   1.943   1.238  0.00  0.00    +0.019 C 
ENDROOT
BRANCH   1   7
ATOM      2  N   UNL     1       0.002  -0.004   0.002  0.00  0.00    -0.184 NA
ATOM      3  C   UNL     1      -0.018   1.467   0.010  0.00  0.00    +0.090 C 
ATOM      4  C   UNL     1       1.428   1.973  -0.001  0.00  0.00    -0.061 C 
ATOM      5  C   UNL     1       2.246  -0.103   0.950  0.00  0.00    -0.061 C 
ATOM      6  C   UNL     1       0.833  -0.694   1.000  0.00  0.00    +0.090 C 
ATOM      7  N   UNL     1       2.154   1.362   1.134  0.00  0.00    +0.387 N 
ATOM      8  H   UNL     1       1.640   1.557   2.001  0.00  0.00    -0.081 HD
BRANCH   2   9
ATOM      9  S   UNL     1      -0.888  -0.860  -1.101  0.00  0.00    +0.036 S 
ATOM     10  O   UNL     1      -1.133  -2.113  -0.476  0.00  0.00    -0.158 OA
ATOM     11  O   UNL     1      -1.965   0.001  -1.444  0.00  0.00    -0.158 OA
BRANCH   9  12
ATOM     12  C   UNL     1       0.216  -1.077  -2.524  0.00  0.00    +0.220 C 
BRANCH  12  16
ATOM     13  C   UNL     1      -1.809  -3.273  -5.577  0.00  0.00    +0.000 A 
ATOM     14  C   UNL     1      -1.885  -1.893  -5.553  0.00  0.00    +0.000 A 
ATOM     15  C   UNL     1      -1.230  -1.182  -4.564  0.00  0.00    +0.005 A 
ATOM     16  C   UNL     1      -0.498  -1.851  -3.601  0.00  0.00    -0.025 A 
ATOM     17  C   UNL     1      -0.418  -3.231  -3.629  0.00  0.00    +0.005 A 
ATOM     18  C   UNL     1      -1.077  -3.942  -4.614  0.00  0.00    +0.000 A 
ENDBRANCH  12  16
ENDBRANCH   9  12
ENDBRANCH   2   9
ENDBRANCH   1   7
BRANCH   1  19
ATOM     19  C   UNL     1       3.386   3.390   1.640  0.00  0.00    +0.201 C 
ATOM     20  O   UNL     1       2.290   3.884   1.803  0.00  0.00    -0.278 OA
ATOM     21  N   UNL     1       4.494   4.136   1.819  0.00  0.00    -0.281 N 
ATOM     22  H   UNL     1       5.371   3.741   1.689  0.00  0.00    +0.155 HD
BRANCH  21  23
ATOM     23  C   UNL     1       4.381   5.467   2.190  0.00  0.00    +0.084 A 
ATOM     24  C   UNL     1       5.392   6.384   2.425  0.00  0.00    +0.068 A 
ATOM     25  C   UNL     1       5.001   7.741   2.803  0.00  0.00    -0.023 A 
ATOM     26  C   UNL     1       3.675   7.950   2.893  0.00  0.00    -0.004 A 
ATOM     27  S   UNL     1       2.943   6.385   2.479  0.00  0.00    -0.077 S 
ATOM     28  C   UNL     1       3.352   9.365   3.289  0.00  0.00    +0.043 C 
ATOM     29  C   UNL     1       4.654  10.151   3.020  0.00  0.00    +0.010 C 
ATOM     30  C   UNL     1       5.721   9.046   3.148  0.00  0.00    +0.037 C 
BRANCH  24  31
ATOM     31  C   UNL     1       6.803   6.008   2.294  0.00  0.00    +0.244 C 
ATOM     32  O   UNL     1       7.370   6.134   1.224  0.00  0.00    -0.270 OA
ATOM     33  N   UNL     1       7.473   5.524   3.359  0.00  0.00    -0.325 N 
ATOM     34  H   UNL     1       7.022   5.424   4.211  0.00  0.00    +0.145 HD
ATOM     35  H   UNL     1       8.407   5.275   3.272  0.00  0.00    +0.145 HD
ENDBRANCH  24  31
ENDBRANCH  21  23
ENDBRANCH   1  19
TORSDOF 7
