REMARK  Name = ZINC41297230
REMARK  10 active torsions:
REMARK  status: ('A' for Active; 'I' for Inactive)
REMARK    1  A    between atoms: C_1  and  C_2
REMARK    2  A    between atoms: C_2  and  C_3
REMARK    3  A    between atoms: C_2  and  C_4
REMARK    4  A    between atoms: C_2  and  N_19
REMARK    5  A    between atoms: C_4  and  N_5
REMARK    6  A    between atoms: C_6  and  C_8
REMARK    7  A    between atoms: C_10  and  S_15
REMARK    8  A    between atoms: S_15  and  N_18
REMARK    9  A    between atoms: N_19  and  C_20
REMARK   10  A    between atoms: N_19  and  C_21
REMARK                            x       y       z     vdW  Elec       q    Type
REMARK                         _______ _______ _______ _____ _____    ______ ____
ROOT
ATOM      1  C   UNL     1      -2.912  -3.720  -0.737  0.00  0.00    +0.052 A 
ATOM      2  C   UNL     1      -1.790  -4.550  -0.685  0.00  0.00    +0.042 A 
ATOM      3  C   UNL     1      -1.928  -5.904  -0.903  0.00  0.00    +0.106 A 
ATOM      4  C   UNL     1      -3.174  -6.442  -1.173  0.00  0.00    +0.029 A 
ATOM      5  C   UNL     1      -4.290  -5.627  -1.227  0.00  0.00    +0.018 A 
ATOM      6  C   UNL     1      -4.167  -4.269  -1.005  0.00  0.00    +0.030 A 
ATOM      7 BR   UNL     1      -5.695  -3.156  -1.071  0.00  0.00    -0.050 Br
ENDROOT
BRANCH   1   9
ATOM      8  N   UNL     1      -1.558  -1.740  -0.246  0.00  0.00    -0.313 N 
ATOM      9  C   UNL     1      -2.772  -2.267  -0.505  0.00  0.00    +0.245 C 
ATOM     10  O   UNL     1      -3.751  -1.547  -0.546  0.00  0.00    -0.270 OA
ATOM     11  H   UNL     1      -0.777  -2.314  -0.213  0.00  0.00    +0.149 HD
BRANCH   8  12
ATOM     12  C   UNL     1      -1.419  -0.300  -0.016  0.00  0.00    +0.092 C 
BRANCH  12  14
ATOM     13  C   UNL     1       0.811  -0.220  -1.139  0.00  0.00    -0.008 C 
ATOM     14  C   UNL     1       0.060   0.047   0.166  0.00  0.00    -0.056 C 
ATOM     15  C   UNL     1       0.195   1.525   0.539  0.00  0.00    -0.008 C 
BRANCH  14  16
ATOM     16  N   UNL     1       0.629  -0.782   1.237  0.00  0.00    +0.380 N 
ATOM     17  C   UNL     1       2.043  -0.433   1.427  0.00  0.00    -0.096 C 
ATOM     18  C   UNL     1      -0.106  -0.541   2.486  0.00  0.00    -0.096 C 
ATOM     19  H   UNL     1       0.553  -1.756   0.985  0.00  0.00    -0.082 HD
ENDBRANCH  14  16
ENDBRANCH  12  14
ENDBRANCH   8  12
ENDBRANCH   1   9
BRANCH   3  20
ATOM     20  S   UNL     1      -0.514  -6.953  -0.837  0.00  0.00    +0.056 S 
ATOM     21  O   UNL     1      -0.823  -8.102  -1.614  0.00  0.00    -0.153 OA
ATOM     22  O   UNL     1       0.614  -6.132  -1.107  0.00  0.00    -0.153 OA
BRANCH  20  23
ATOM     23  N   UNL     1      -0.359  -7.469   0.729  0.00  0.00    -0.204 NA
ATOM     24  H   UNL     1      -0.996  -7.178   1.401  0.00  0.00    +0.144 HD
ATOM     25  H   UNL     1       0.367  -8.063   0.975  0.00  0.00    +0.144 HD
ENDBRANCH  20  23
ENDBRANCH   3  20
TORSDOF 6
