REMARK  Name = ZINC22930773
REMARK  8 active torsions:
REMARK  status: ('A' for Active; 'I' for Inactive)
REMARK    1  A    between atoms: C_1  and  C_2
REMARK    2  A    between atoms: C_2  and  C_4
REMARK    3  A    between atoms: C_2  and  N_18
REMARK    4  A    between atoms: N_6  and  C_7
REMARK    5  A    between atoms: C_8  and  C_15
REMARK    6  A    between atoms: N_21  and  C_24
REMARK    7  A    between atoms: C_24  and  C_25
REMARK    8  A    between atoms: N_27  and  C_28
REMARK                            x       y       z     vdW  Elec       q    Type
REMARK                         _______ _______ _______ _____ _____    ______ ____
ROOT
ATOM      1  C   UNL     1       7.284   2.849  -0.288  0.00  0.00    +0.034 C 
ATOM      2  C   UNL     1       7.149   2.080  -1.604  0.00  0.00    +0.140 C 
ENDROOT
BRANCH   2   3
ATOM      3  N   UNL     1       5.871   1.356  -1.619  0.00  0.00    -0.295 NA
ATOM      4  C   UNL     1       5.668   0.620  -0.364  0.00  0.00    +0.066 C 
ATOM      5  C   UNL     1       4.367  -0.182  -0.451  0.00  0.00    -0.063 C 
ATOM      6  N   UNL     1       3.247   0.734  -0.709  0.00  0.00    +0.387 N 
ATOM      7  C   UNL     1       3.450   1.470  -1.964  0.00  0.00    -0.063 C 
ATOM      8  C   UNL     1       4.751   2.272  -1.877  0.00  0.00    +0.066 C 
ATOM      9  H   UNL     1       3.210   1.465   0.112  0.00  0.00    -0.081 HD
BRANCH   6  10
ATOM     10  C   UNL     1       1.968   0.010  -0.724  0.00  0.00    +0.019 C 
BRANCH  10  11
ATOM     11  C   UNL     1       0.831   0.999  -0.744  0.00  0.00    +0.201 C 
ATOM     12  O   UNL     1       1.063   2.190  -0.745  0.00  0.00    -0.278 OA
ATOM     13  N   UNL     1      -0.443   0.561  -0.760  0.00  0.00    -0.287 N 
ATOM     14  H   UNL     1      -0.653  -0.516  -0.841  0.00  0.00    +0.155 HD
BRANCH  13  15
ATOM     15  C   UNL     1      -1.499   1.476  -0.674  0.00  0.00    +0.033 A 
ATOM     16  C   UNL     1      -1.355   2.636   0.075  0.00  0.00    +0.026 A 
ATOM     17  C   UNL     1      -2.396   3.540   0.154  0.00  0.00    +0.040 A 
ATOM     18  C   UNL     1      -3.587   3.285  -0.504  0.00  0.00    +0.124 A 
ATOM     19  C   UNL     1      -3.735   2.126  -1.248  0.00  0.00    +0.040 A 
ATOM     20  C   UNL     1      -2.695   1.222  -1.334  0.00  0.00    +0.026 A 
ATOM     21  F   UNL     1      -4.607   4.168  -0.422  0.00  0.00    -0.205 F 
ENDBRANCH  13  15
ENDBRANCH  10  11
ENDBRANCH   6  10
ENDBRANCH   2   3
BRANCH   2  22
ATOM     22  C   UNL     1       8.285   1.097  -1.729  0.00  0.00    +0.235 C 
ATOM     23  O   UNL     1       8.085  -0.086  -1.552  0.00  0.00    -0.274 OA
ATOM     24  N   UNL     1       9.522   1.532  -2.038  0.00  0.00    -0.278 N 
ATOM     25  H   UNL     1       9.704   2.605  -2.199  0.00  0.00    +0.155 HD
BRANCH  24  26
ATOM     26  C   UNL     1      10.567   0.627  -2.153  0.00  0.00    +0.084 A 
ATOM     27  C   UNL     1      11.892   0.878  -2.465  0.00  0.00    +0.068 A 
ATOM     28  C   UNL     1      12.803  -0.264  -2.520  0.00  0.00    -0.023 A 
ATOM     29  C   UNL     1      12.238  -1.458  -2.265  0.00  0.00    -0.004 A 
ATOM     30  S   UNL     1      10.529  -1.091  -1.950  0.00  0.00    -0.077 S 
ATOM     31  C   UNL     1      13.235  -2.582  -2.342  0.00  0.00    +0.043 C 
ATOM     32  C   UNL     1      14.612  -1.887  -2.259  0.00  0.00    +0.010 C 
ATOM     33  C   UNL     1      14.289  -0.483  -2.808  0.00  0.00    +0.037 C 
BRANCH  27  34
ATOM     34  C   UNL     1      12.366   2.241  -2.728  0.00  0.00    +0.244 C 
ATOM     35  O   UNL     1      12.781   2.928  -1.812  0.00  0.00    -0.270 OA
ATOM     36  N   UNL     1      12.341   2.733  -3.982  0.00  0.00    -0.325 N 
ATOM     37  H   UNL     1      12.697   3.755  -4.179  0.00  0.00    +0.145 HD
ATOM     38  H   UNL     1      11.966   2.113  -4.809  0.00  0.00    +0.145 HD
ENDBRANCH  27  34
ENDBRANCH  24  26
ENDBRANCH   2  22
TORSDOF 7
