REMARK  Name = ZINC40679628
REMARK  8 active torsions:
REMARK  status: ('A' for Active; 'I' for Inactive)
REMARK    1  A    between atoms: C_1  and  C_2
REMARK    2  A    between atoms: C_2  and  N_3
REMARK    3  A    between atoms: N_3  and  C_4
REMARK    4  A    between atoms: C_11  and  N_25
REMARK    5  A    between atoms: C_12  and  N_16
REMARK    6  A    between atoms: N_16  and  C_17
REMARK    7  A    between atoms: C_22  and  O_23
REMARK    8  A    between atoms: O_23  and  C_24
REMARK                            x       y       z     vdW  Elec       q    Type
REMARK                         _______ _______ _______ _____ _____    ______ ____
ROOT
ATOM      1  N   UNL     1       0.353  -0.371  -1.107  0.00  0.00    -0.284 N 
ATOM      2  C   UNL     1      -0.344  -0.803  -2.230  0.00  0.00    +0.151 A 
ATOM      3  C   UNL     1       0.333  -1.379  -3.307  0.00  0.00    +0.104 A 
ATOM      4  C   UNL     1      -0.416  -1.794  -4.410  0.00  0.00    +0.126 A 
ATOM      5  N   UNL     1      -1.736  -1.627  -4.393  0.00  0.00    -0.333 N 
ATOM      6  C   UNL     1      -2.336  -1.079  -3.356  0.00  0.00    +0.200 A 
ATOM      7  N   UNL     1      -1.668  -0.678  -2.293  0.00  0.00    -0.220 NA
ATOM      8  H   UNL     1      -2.264  -1.913  -5.154  0.00  0.00    +0.168 HD
ENDROOT
BRANCH   1   9
ATOM      9  C   UNL     1       0.745   0.966  -0.999  0.00  0.00    +0.035 A 
ATOM     10  C   UNL     1       1.343   1.424   0.168  0.00  0.00    +0.023 A 
ATOM     11  C   UNL     1       1.728   2.746   0.272  0.00  0.00    +0.002 A 
ATOM     12  C   UNL     1       1.520   3.614  -0.785  0.00  0.00    +0.000 A 
ATOM     13  C   UNL     1       0.925   3.161  -1.948  0.00  0.00    +0.002 A 
ATOM     14  C   UNL     1       0.542   1.839  -2.061  0.00  0.00    +0.023 A 
ENDBRANCH   1   9
BRANCH   3  15
ATOM     15  N   UNL     1       1.728  -1.534  -3.282  0.00  0.00    -0.353 N 
ATOM     16  H   UNL     1       2.227  -1.309  -2.482  0.00  0.00    +0.143 HD
ATOM     17  H   UNL     1       2.193  -1.868  -4.066  0.00  0.00    +0.143 HD
ENDBRANCH   3  15
BRANCH   1  19
ATOM     18  C   UNL     1      -0.456  -1.336   0.989  0.00  0.00    +0.025 C 
ATOM     19  C   UNL     1       0.678  -1.318  -0.038  0.00  0.00    +0.109 C 
ENDBRANCH   1  19
BRANCH   4  20
ATOM     20  N   UNL     1       0.208  -2.373  -5.509  0.00  0.00    -0.296 N 
ATOM     21  H   UNL     1       1.176  -2.429  -5.544  0.00  0.00    +0.154 HD
BRANCH  20  22
ATOM     22  C   UNL     1      -0.560  -2.877  -6.565  0.00  0.00    +0.075 A 
ATOM     23  C   UNL     1      -0.712  -4.247  -6.723  0.00  0.00    +0.027 A 
ATOM     24  C   UNL     1      -1.472  -4.742  -7.767  0.00  0.00    +0.002 A 
ATOM     25  C   UNL     1      -2.080  -3.875  -8.655  0.00  0.00    +0.004 A 
ATOM     26  C   UNL     1      -1.933  -2.509  -8.504  0.00  0.00    +0.047 A 
ATOM     27  C   UNL     1      -1.179  -2.004  -7.457  0.00  0.00    +0.141 A 
BRANCH  27  28
ATOM     28  O   UNL     1      -1.038  -0.660  -7.304  0.00  0.00    -0.493 OA
ATOM     29  C   UNL     1      -1.701   0.174  -8.256  0.00  0.00    +0.277 C 
ENDBRANCH  27  28
ENDBRANCH  20  22
ENDBRANCH   4  20
TORSDOF 6
