REMARK  Name = ZINC55147788
REMARK  5 active torsions:
REMARK  status: ('A' for Active; 'I' for Inactive)
REMARK    1  A    between atoms: C_5  and  C_8
REMARK    2  A    between atoms: C_8  and  O_9
REMARK    3  A    between atoms: C_10  and  C_12
REMARK    4  A    between atoms: C_15  and  C_18
REMARK    5  A    between atoms: C_18  and  N_19
REMARK                            x       y       z     vdW  Elec       q    Type
REMARK                         _______ _______ _______ _____ _____    ______ ____
ROOT
ATOM      1  C   UNL     1      -0.131   1.671   0.429  0.00  0.00    +0.003 C 
ATOM      2  C   UNL     1       1.295   2.224   0.478  0.00  0.00    +0.019 C 
ATOM      3  C   UNL     1       2.039   1.602   1.664  0.00  0.00    +0.108 C 
ATOM      4  N   UNL     1       1.963   0.139   1.554  0.00  0.00    -0.296 N 
ATOM      5  C   UNL     1       0.643  -0.491   1.411  0.00  0.00    +0.101 C 
ATOM      6  C   UNL     1      -0.085   0.155   0.228  0.00  0.00    +0.025 C 
ATOM      7  C   UNL     1       3.082  -0.612   1.584  0.00  0.00    +0.219 C 
ATOM      8  O   UNL     1       3.001  -1.822   1.587  0.00  0.00    -0.275 OA
ENDROOT
BRANCH   7   9
ATOM      9  C   UNL     1       4.434   0.053   1.614  0.00  0.00    +0.075 C 
ATOM     10  C   UNL     1       4.627   0.874   0.337  0.00  0.00    +0.013 C 
ATOM     11  C   UNL     1       4.539  -0.048  -0.880  0.00  0.00    +0.002 C 
ATOM     12  C   UNL     1       5.631  -1.117  -0.791  0.00  0.00    -0.029 C 
ATOM     13  C   UNL     1       5.438  -1.938   0.486  0.00  0.00    +0.002 C 
ATOM     14  C   UNL     1       5.526  -1.016   1.703  0.00  0.00    +0.013 C 
BRANCH  12  15
ATOM     15  C   UNL     1       5.542  -2.039  -2.009  0.00  0.00    -0.083 C 
BRANCH  15  16
ATOM     16  N   UNL     1       6.662  -2.990  -1.985  0.00  0.00    +0.378 N 
ATOM     17  H   UNL     1       6.604  -3.598  -2.788  0.00  0.00    -0.090 HD
ATOM     18  H   UNL     1       7.534  -2.483  -2.010  0.00  0.00    -0.090 HD
ATOM     19  H   UNL     1       6.617  -3.541  -1.141  0.00  0.00    -0.090 HD
ENDBRANCH  15  16
ENDBRANCH  12  15
ENDBRANCH   7   9
BRANCH   5  20
ATOM     20  C   UNL     1       0.815  -1.990   1.154  0.00  0.00    +0.178 C 
BRANCH  20  21
ATOM     21  O   UNL     1       1.519  -2.185  -0.074  0.00  0.00    -0.393 OA
ATOM     22  H   UNL     1       1.664  -3.114  -0.301  0.00  0.00    +0.209 HD
ENDBRANCH  20  21
ENDBRANCH   5  20
TORSDOF 5
