REMARK  Name = ZINC36068524
REMARK  9 active torsions:
REMARK  status: ('A' for Active; 'I' for Inactive)
REMARK    1  A    between atoms: C_3  and  C_9
REMARK    2  A    between atoms: C_9  and  N_10
REMARK    3  A    between atoms: N_10  and  C_11
REMARK    4  A    between atoms: N_10  and  C_21
REMARK    5  A    between atoms: C_11  and  C_12
REMARK    6  A    between atoms: C_21  and  C_22
REMARK    7  A    between atoms: C_24  and  C_27
REMARK    8  A    between atoms: N_29  and  C_30
REMARK    9  A    between atoms: C_30  and  C_31
REMARK                            x       y       z     vdW  Elec       q    Type
REMARK                         _______ _______ _______ _____ _____    ______ ____
ROOT
ATOM      1  N   UNL     1       4.219   2.217   1.338  0.00  0.00    +0.391 N 
ATOM      2  H   UNL     1       3.437   2.466   1.924  0.00  0.00    -0.080 HD
ENDROOT
BRANCH   1   3
ATOM      3  C   UNL     1       3.795   2.212  -0.069  0.00  0.00    -0.040 C 
BRANCH   3   6
ATOM      4  C   UNL     1       0.233   0.983  -0.301  0.00  0.00    +0.002 A 
ATOM      5  C   UNL     1       1.325   1.817  -0.151  0.00  0.00    +0.003 A 
ATOM      6  C   UNL     1       2.605   1.302  -0.231  0.00  0.00    -0.044 A 
ATOM      7  C   UNL     1       2.794  -0.049  -0.461  0.00  0.00    +0.061 A 
ATOM      8  C   UNL     1       1.700  -0.884  -0.610  0.00  0.00    +0.059 A 
ATOM      9  C   UNL     1       0.419  -0.367  -0.530  0.00  0.00    +0.021 A 
ATOM     10 CL   UNL     1       1.935  -2.580  -0.899  0.00  0.00    -0.082 Cl
ATOM     11 CL   UNL     1       4.401  -0.697  -0.562  0.00  0.00    -0.082 Cl
ENDBRANCH   3   6
ENDBRANCH   1   3
BRANCH   1  12
ATOM     12  C   UNL     1       5.299   3.197   1.520  0.00  0.00    -0.042 C 
BRANCH  12  13
ATOM     13  C   UNL     1       4.769   4.583   1.258  0.00  0.00    -0.060 A 
ATOM     14  C   UNL     1       4.813   5.109  -0.020  0.00  0.00    +0.005 A 
ATOM     15  C   UNL     1       4.328   6.380  -0.265  0.00  0.00    +0.050 A 
ATOM     16  C   UNL     1       3.796   7.130   0.770  0.00  0.00    +0.166 A 
ATOM     17  C   UNL     1       3.751   6.601   2.058  0.00  0.00    +0.166 A 
ATOM     18  C   UNL     1       4.234   5.324   2.295  0.00  0.00    +0.051 A 
ATOM     19  O   UNL     1       3.188   7.525   2.890  0.00  0.00    -0.453 OA
ATOM     20  C   UNL     1       3.263   8.777   2.182  0.00  0.00    +0.466 C 
ATOM     21  O   UNL     1       3.261   8.386   0.796  0.00  0.00    -0.453 OA
ENDBRANCH  12  13
ENDBRANCH   1  12
BRANCH   1  22
ATOM     22  C   UNL     1       4.703   0.881   1.708  0.00  0.00    +0.020 C 
BRANCH  22  23
ATOM     23  C   UNL     1       5.046   0.860   3.176  0.00  0.00    +0.179 A 
ATOM     24  N   UNL     1       4.204   0.648   4.142  0.00  0.00    -0.210 NA
ATOM     25  C   UNL     1       4.878   0.704   5.322  0.00  0.00    +0.163 A 
ATOM     26  C   UNL     1       6.182   0.962   5.027  0.00  0.00    +0.230 A 
ATOM     27  O   UNL     1       6.269   1.051   3.690  0.00  0.00    -0.449 OA
BRANCH  25  28
ATOM     28  C   UNL     1       4.306   0.521   6.668  0.00  0.00    +0.266 C 
ATOM     29  O   UNL     1       5.001   0.687   7.653  0.00  0.00    -0.268 OA
ATOM     30  N   UNL     1       3.012   0.169   6.808  0.00  0.00    -0.308 N 
ATOM     31  H   UNL     1       2.477  -0.034   6.025  0.00  0.00    +0.149 HD
BRANCH  30  32
ATOM     32  C   UNL     1       2.414   0.092   8.143  0.00  0.00    +0.136 C 
BRANCH  32  33
ATOM     33  C   UNL     1       0.948  -0.326   8.022  0.00  0.00    +0.135 C 
ATOM     34  C   UNL     1       0.286  -0.380   9.422  0.00  0.00    +0.035 C 
ATOM     35  C   UNL     1      -1.207  -0.166   9.051  0.00  0.00    +0.031 C 
ATOM     36  C   UNL     1      -1.111   0.793   7.845  0.00  0.00    +0.160 C 
ATOM     37  O   UNL     1       0.206   0.664   7.292  0.00  0.00    -0.375 OA
ENDBRANCH  32  33
ENDBRANCH  30  32
ENDBRANCH  25  28
ENDBRANCH  22  23
ENDBRANCH   1  22
TORSDOF 9
