REMARK  Name = ZINC61991014
REMARK  4 active torsions:
REMARK  status: ('A' for Active; 'I' for Inactive)
REMARK    1  A    between atoms: C_5  and  N_7
REMARK    2  A    between atoms: N_7  and  C_8
REMARK    3  A    between atoms: C_8  and  C_16
REMARK    4  A    between atoms: N_11  and  C_13
REMARK                            x       y       z     vdW  Elec       q    Type
REMARK                         _______ _______ _______ _____ _____    ______ ____
ROOT
ATOM      1  C   UNL     1      -0.066  -2.745  -0.065  0.00  0.00    +0.092 C 
ATOM      2  C   UNL     1      -0.822  -2.298   1.203  0.00  0.00    +0.015 C 
ATOM      3  C   UNL     1      -1.144  -3.604   1.959  0.00  0.00    -0.076 C 
ATOM      4  N   UNL     1      -0.125  -4.574   1.483  0.00  0.00    +0.383 N 
ATOM      5  C   UNL     1       0.004  -4.284   0.032  0.00  0.00    -0.043 C 
ATOM      6  H   UNL     1       0.754  -4.422   1.953  0.00  0.00    -0.081 HD
ENDROOT
BRANCH   1   7
ATOM      7  C   UNL     1      -0.823  -2.332  -1.301  0.00  0.00    +0.232 C 
ATOM      8  O   UNL     1      -1.617  -3.095  -1.809  0.00  0.00    -0.274 OA
ATOM      9  N   UNL     1      -0.617  -1.115  -1.843  0.00  0.00    -0.328 N 
ATOM     10  H   UNL     1      -0.038  -0.478  -1.397  0.00  0.00    +0.145 HD
ATOM     11  H   UNL     1      -1.049  -0.877  -2.678  0.00  0.00    +0.145 HD
ENDBRANCH   1   7
BRANCH   4  12
ATOM     12  C   UNL     1      -0.590  -5.952   1.692  0.00  0.00    -0.069 C 
ATOM     13  C   UNL     1       0.160  -6.802   2.720  0.00  0.00    -0.017 C 
ATOM     14  C   UNL     1       0.326  -7.085   1.225  0.00  0.00    -0.017 C 
ENDBRANCH   4  12
BRANCH   1  15
ATOM     15  N   UNL     1       1.283  -2.174  -0.082  0.00  0.00    -0.331 N 
ATOM     16  H   UNL     1       1.583  -1.617   0.653  0.00  0.00    +0.147 HD
BRANCH  15  21
ATOM     17  C   UNL     1       2.598  -3.567  -3.219  0.00  0.00    +0.002 A 
ATOM     18  C   UNL     1       3.832  -2.947  -3.284  0.00  0.00    +0.001 A 
ATOM     19  C   UNL     1       4.223  -2.071  -2.288  0.00  0.00    +0.017 A 
ATOM     20  C   UNL     1       3.380  -1.812  -1.224  0.00  0.00    +0.039 A 
ATOM     21  C   UNL     1       2.138  -2.433  -1.156  0.00  0.00    +0.042 A 
ATOM     22  C   UNL     1       1.750  -3.313  -2.159  0.00  0.00    +0.024 A 
ATOM     23 BR   UNL     1       3.914  -0.615   0.138  0.00  0.00    -0.048 Br
ENDBRANCH  15  21
ENDBRANCH   1  15
TORSDOF 4
