REMARK  Name = ZINC09639741
REMARK  13 active torsions:
REMARK  status: ('A' for Active; 'I' for Inactive)
REMARK    1  A    between atoms: C_1  and  C_2
REMARK    2  A    between atoms: C_2  and  C_3
REMARK    3  A    between atoms: C_2  and  O_4
REMARK    4  A    between atoms: O_4  and  C_5
REMARK    5  A    between atoms: C_8  and  C_11
REMARK    6  A    between atoms: N_13  and  C_14
REMARK    7  A    between atoms: C_15  and  C_27
REMARK    8  A    between atoms: C_19  and  C_25
REMARK    9  A    between atoms: C_19  and  C_26
REMARK   10  A    between atoms: C_21  and  C_23
REMARK   11  A    between atoms: C_21  and  C_24
REMARK   12  A    between atoms: C_27  and  O_29
REMARK   13  A    between atoms: O_29  and  C_30
REMARK                            x       y       z     vdW  Elec       q    Type
REMARK                         _______ _______ _______ _____ _____    ______ ____
ROOT
ATOM      1  C   UNL     1      -3.608  -7.402  -2.684  0.00  0.00    +0.086 A 
ATOM      2  C   UNL     1      -4.808  -8.094  -2.800  0.00  0.00    +0.091 A 
ATOM      3  C   UNL     1      -4.749  -9.411  -3.393  0.00  0.00    -0.024 A 
ATOM      4  C   UNL     1      -3.508  -9.810  -3.759  0.00  0.00    -0.016 A 
ATOM      5  S   UNL     1      -2.464  -8.450  -3.328  0.00  0.00    -0.079 S 
ATOM      6  C   UNL     1      -3.145 -11.119  -4.376  0.00  0.00    -0.041 C 
ATOM      7  N   UNL     1      -4.322 -11.902  -4.749  0.00  0.00    +0.389 N 
ATOM      8  C   UNL     1      -5.572 -11.169  -4.897  0.00  0.00    -0.069 C 
ATOM      9  C   UNL     1      -5.915 -10.356  -3.642  0.00  0.00    +0.024 C 
ATOM     10  C   UNL     1      -6.708 -12.185  -5.123  0.00  0.00    -0.010 C 
ATOM     11  C   UNL     1      -5.527 -10.238  -6.110  0.00  0.00    -0.010 C 
ATOM     12  C   UNL     1      -2.258 -10.877  -5.605  0.00  0.00    -0.005 C 
ATOM     13  C   UNL     1      -2.323 -11.925  -3.351  0.00  0.00    -0.005 C 
ATOM     14  H   UNL     1      -4.125 -12.388  -5.625  0.00  0.00    -0.084 HD
ATOM     15  H   UNL     1      -4.458 -12.636  -4.051  0.00  0.00    -0.084 HD
ENDROOT
BRANCH   1  18
ATOM     16  C   UNL     1      -2.162  -5.614  -2.121  0.00  0.00    +0.249 C 
ATOM     17  O   UNL     1      -1.221  -6.252  -2.551  0.00  0.00    -0.270 OA
ATOM     18  N   UNL     1      -3.404  -6.138  -2.156  0.00  0.00    -0.275 N 
ATOM     19  H   UNL     1      -4.155  -5.629  -1.813  0.00  0.00    +0.156 HD
BRANCH  16  23
ATOM     20  C   UNL     1      -1.538  -1.738  -0.505  0.00  0.00    +0.121 A 
ATOM     21  C   UNL     1      -0.461  -2.465  -0.996  0.00  0.00    +0.046 A 
ATOM     22  C   UNL     1      -0.659  -3.723  -1.521  0.00  0.00    +0.016 A 
ATOM     23  C   UNL     1      -1.946  -4.267  -1.559  0.00  0.00    +0.037 A 
ATOM     24  C   UNL     1      -3.026  -3.532  -1.064  0.00  0.00    +0.016 A 
ATOM     25  C   UNL     1      -2.819  -2.277  -0.536  0.00  0.00    +0.046 A 
BRANCH  20  26
ATOM     26  O   UNL     1      -1.339  -0.499   0.012  0.00  0.00    -0.489 OA
BRANCH  26  28
ATOM     27  C   UNL     1      -1.982   1.170   1.638  0.00  0.00    +0.051 C 
ATOM     28  C   UNL     1      -2.466   0.143   0.612  0.00  0.00    +0.167 C 
ATOM     29  C   UNL     1      -3.284   0.851  -0.470  0.00  0.00    +0.051 C 
ENDBRANCH  26  28
ENDBRANCH  20  26
ENDBRANCH  16  23
ENDBRANCH   1  18
BRANCH   2  30
ATOM     30  C   UNL     1      -6.067  -7.506  -2.336  0.00  0.00    +0.342 C 
ATOM     31  O   UNL     1      -6.742  -6.838  -3.096  0.00  0.00    -0.245 OA
BRANCH  30  32
ATOM     32  O   UNL     1      -6.477  -7.706  -1.067  0.00  0.00    -0.464 OA
ATOM     33  C   UNL     1      -7.714  -7.104  -0.683  0.00  0.00    +0.280 C 
ENDBRANCH  30  32
ENDBRANCH   2  30
TORSDOF 6
