REMARK  Name = ZINC00090046
REMARK  7 active torsions:
REMARK  status: ('A' for Active; 'I' for Inactive)
REMARK    1  A    between atoms: C_1  and  C_2
REMARK    2  A    between atoms: C_2  and  O_3
REMARK    3  A    between atoms: O_3  and  C_4
REMARK    4  A    between atoms: C_9  and  O_10
REMARK    5  A    between atoms: O_10  and  C_11
REMARK    6  A    between atoms: C_12  and  C_16
REMARK    7  A    between atoms: C_21  and  O_22
REMARK                            x       y       z     vdW  Elec       q    Type
REMARK                         _______ _______ _______ _____ _____    ______ ____
ROOT
ATOM      1  C   UNL     1       5.108  -0.912  -4.076  0.00  0.00    +0.162 A 
ATOM      2  C   UNL     1       5.240  -2.009  -3.242  0.00  0.00    +0.053 A 
ATOM      3  C   UNL     1       4.796  -1.949  -1.930  0.00  0.00    -0.044 A 
ATOM      4  C   UNL     1       4.222  -0.791  -1.448  0.00  0.00    -0.050 A 
ATOM      5  C   UNL     1       4.088   0.311  -2.281  0.00  0.00    +0.052 A 
ATOM      6  C   UNL     1       4.527   0.256  -3.592  0.00  0.00    +0.162 A 
ATOM      7  C   UNL     1       3.731  -0.678  -0.029  0.00  0.00    -0.006 C 
ATOM      8  C   UNL     1       4.800  -2.793   0.409  0.00  0.00    -0.077 C 
ATOM      9  C   UNL     1       4.952  -3.173  -1.064  0.00  0.00    +0.016 C 
ATOM     10  N   UNL     1       3.560  -2.011   0.566  0.00  0.00    +0.387 N 
ATOM     11  H   UNL     1       2.789  -2.497   0.095  0.00  0.00    -0.085 HD
ATOM     12  H   UNL     1       3.344  -1.912   1.565  0.00  0.00    -0.085 HD
ENDROOT
BRANCH   7  13
ATOM     13  C   UNL     1       2.407   0.041  -0.016  0.00  0.00    -0.014 A 
ATOM     14  C   UNL     1       2.334   1.348   0.426  0.00  0.00    +0.026 A 
ATOM     15  C   UNL     1       1.118   2.008   0.438  0.00  0.00    +0.041 A 
ATOM     16  C   UNL     1      -0.027   1.361   0.007  0.00  0.00    +0.023 A 
ATOM     17  C   UNL     1       0.042   0.055  -0.436  0.00  0.00    +0.047 A 
ATOM     18  C   UNL     1       1.260  -0.609  -0.449  0.00  0.00    +0.119 A 
ATOM     19 CL   UNL     1       1.029   3.650   0.994  0.00  0.00    -0.084 Cl
BRANCH  18  20
ATOM     20  O   UNL     1       1.330  -1.895  -0.884  0.00  0.00    -0.507 OA
ATOM     21  H   UNL     1       1.126  -2.552  -0.204  0.00  0.00    +0.292 HD
ENDBRANCH  18  20
ENDBRANCH   7  13
BRANCH   6  22
ATOM     22  O   UNL     1       4.391   1.338  -4.404  0.00  0.00    -0.491 OA
ATOM     23  C   UNL     1       3.785   2.502  -3.838  0.00  0.00    +0.277 C 
ENDBRANCH   6  22
BRANCH   1  24
ATOM     24  O   UNL     1       5.545  -0.976  -5.362  0.00  0.00    -0.489 OA
BRANCH  24  26
ATOM     25  C   UNL     1       6.559  -2.090  -7.253  0.00  0.00    +0.048 C 
ATOM     26  C   UNL     1       6.131  -2.208  -5.789  0.00  0.00    +0.226 C 
ENDBRANCH  24  26
ENDBRANCH   1  24
TORSDOF 5
