REMARK  Name = ZINC39945004
REMARK  6 active torsions:
REMARK  status: ('A' for Active; 'I' for Inactive)
REMARK    1  A    between atoms: C_6  and  C_7
REMARK    2  A    between atoms: C_7  and  O_9
REMARK    3  A    between atoms: O_9  and  C_10
REMARK    4  A    between atoms: C_10  and  C_11
REMARK    5  A    between atoms: N_13  and  C_14
REMARK    6  A    between atoms: C_16  and  C_24
REMARK                            x       y       z     vdW  Elec       q    Type
REMARK                         _______ _______ _______ _____ _____    ______ ____
ROOT
ATOM      1  C   UNL     1      -3.695  -0.988   0.541  0.00  0.00    +0.328 C 
ENDROOT
BRANCH   1   2
ATOM      2  C   UNL     1      -4.902  -0.086   0.556  0.00  0.00    +0.252 C 
ATOM      3  O   UNL     1      -4.817   1.033   1.016  0.00  0.00    -0.272 OA
ATOM      4  N   UNL     1      -6.077  -0.523   0.060  0.00  0.00    -0.299 N 
ATOM      5  H   UNL     1      -6.145  -1.418  -0.308  0.00  0.00    +0.150 HD
BRANCH   4   6
ATOM      6  C   UNL     1      -7.250   0.354   0.075  0.00  0.00    +0.151 C 
ATOM      7  C   UNL     1      -8.214   0.033  -1.090  0.00  0.00    +0.132 C 
ATOM      8  C   UNL     1      -8.835   1.292  -1.662  0.00  0.00    -0.046 C 
ATOM      9  C   UNL     1      -8.232   2.440  -1.410  0.00  0.00    -0.013 C 
ATOM     10  S   UNL     1      -6.811   2.079  -0.393  0.00  0.00    -0.106 S 
ATOM     11  C   UNL     1      -8.935   3.612  -2.053  0.00  0.00    +0.042 C 
ATOM     12  C   UNL     1      -9.861   2.974  -3.112  0.00  0.00    +0.009 C 
ATOM     13  C   UNL     1     -10.079   1.570  -2.517  0.00  0.00    +0.033 C 
BRANCH   7  14
ATOM     14  C   UNL     1      -7.450  -0.675  -2.180  0.00  0.00    +0.220 C 
ATOM     15  O   UNL     1      -6.840  -0.033  -3.009  0.00  0.00    -0.275 OA
ATOM     16  N   UNL     1      -7.445  -2.022  -2.233  0.00  0.00    -0.329 N 
ATOM     17  H   UNL     1      -7.990  -2.534  -1.615  0.00  0.00    +0.145 HD
ATOM     18  H   UNL     1      -6.897  -2.479  -2.890  0.00  0.00    +0.145 HD
ENDBRANCH   7  14
ENDBRANCH   4   6
ENDBRANCH   1   2
BRANCH   1  19
ATOM     19  O   UNL     1      -2.582  -0.303   1.117  0.00  0.00    -0.452 OA
BRANCH  19  20
ATOM     20  C   UNL     1      -1.415  -0.975   1.180  0.00  0.00    +0.340 C 
ATOM     21  O   UNL     1      -1.346  -2.111   0.756  0.00  0.00    -0.245 OA
BRANCH  20  27
ATOM     22  C   UNL     1      -0.303   0.981   2.251  0.00  0.00    +0.017 A 
ATOM     23  C   UNL     1       0.790   1.589   2.792  0.00  0.00    +0.027 A 
ATOM     24  C   UNL     1       2.006   0.913   2.867  0.00  0.00    +0.047 A 
ATOM     25  C   UNL     1       2.101  -0.407   2.378  0.00  0.00    +0.004 A 
ATOM     26  C   UNL     1       0.982  -1.026   1.827  0.00  0.00    +0.025 A 
ATOM     27  C   UNL     1      -0.223  -0.331   1.762  0.00  0.00    +0.060 A 
ATOM     28  C   UNL     1       3.484  -0.817   2.603  0.00  0.00    -0.019 A 
ATOM     29  C   UNL     1       4.119   0.219   3.184  0.00  0.00    +0.020 A 
ATOM     30  N   UNL     1       3.247   1.259   3.347  0.00  0.00    -0.358 N 
ATOM     31  H   UNL     1       3.470   2.115   3.743  0.00  0.00    +0.166 HD
ATOM     32  C   UNL     1       5.577   0.192   3.579  0.00  0.00    +0.053 C 
ATOM     33  C   UNL     1       6.047  -1.267   3.609  0.00  0.00    +0.006 C 
ATOM     34  C   UNL     1       5.650  -1.959   2.302  0.00  0.00    +0.005 C 
ATOM     35  C   UNL     1       4.127  -2.137   2.265  0.00  0.00    +0.037 C 
ENDBRANCH  20  27
ENDBRANCH  19  20
ENDBRANCH   1  19
TORSDOF 6
