REMARK  Name = ZINC20168010
REMARK  13 active torsions:
REMARK  status: ('A' for Active; 'I' for Inactive)
REMARK    1  A    between atoms: C_1  and  C_2
REMARK    2  A    between atoms: C_2  and  O_3
REMARK    3  A    between atoms: O_3  and  C_4
REMARK    4  A    between atoms: C_4  and  C_6
REMARK    5  A    between atoms: C_7  and  C_33
REMARK    6  A    between atoms: C_8  and  C_30
REMARK    7  A    between atoms: C_10  and  N_11
REMARK    8  A    between atoms: C_12  and  C_14
REMARK    9  A    between atoms: C_14  and  N_15
REMARK   10  A    between atoms: N_15  and  C_16
REMARK   11  A    between atoms: N_15  and  C_23
REMARK   12  A    between atoms: C_16  and  C_17
REMARK   13  A    between atoms: C_23  and  C_24
REMARK                            x       y       z     vdW  Elec       q    Type
REMARK                         _______ _______ _______ _____ _____    ______ ____
ROOT
ATOM      1  N   UNL     1      -1.462  -3.191  -1.947  0.00  0.00    -0.281 N 
ATOM      2  C   UNL     1      -1.471  -3.845  -3.126  0.00  0.00    +0.201 C 
ATOM      3  O   UNL     1      -1.687  -5.037  -3.156  0.00  0.00    -0.278 OA
ATOM      4  H   UNL     1      -1.266  -2.109  -1.920  0.00  0.00    +0.155 HD
ENDROOT
BRANCH   1   9
ATOM      5  C   UNL     1      -1.731  -3.387   0.535  0.00  0.00    +0.091 A 
ATOM      6  C   UNL     1      -1.986  -4.289   1.558  0.00  0.00    -0.015 A 
ATOM      7  C   UNL     1      -2.199  -5.596   1.214  0.00  0.00    +0.079 A 
ATOM      8  S   UNL     1      -2.028  -5.569  -0.560  0.00  0.00    -0.068 S 
ATOM      9  C   UNL     1      -1.699  -3.880  -0.774  0.00  0.00    +0.087 A 
ATOM     10  C   UNL     1      -2.034  -3.843   2.996  0.00  0.00    +0.046 C 
BRANCH   7  11
ATOM     11  C   UNL     1      -2.490  -6.735   2.087  0.00  0.00    +0.248 C 
ATOM     12  O   UNL     1      -2.574  -6.574   3.291  0.00  0.00    -0.270 OA
ATOM     13  N   UNL     1      -2.665  -7.962   1.558  0.00  0.00    -0.325 N 
ATOM     14  H   UNL     1      -2.884  -8.818   2.213  0.00  0.00    +0.145 HD
ATOM     15  H   UNL     1      -2.590  -8.108   0.470  0.00  0.00    +0.145 HD
ENDBRANCH   7  11
BRANCH   5  16
ATOM     16  C   UNL     1      -1.497  -1.967   0.817  0.00  0.00    +0.342 C 
ATOM     17  O   UNL     1      -2.432  -1.189   0.837  0.00  0.00    -0.245 OA
BRANCH  16  18
ATOM     18  O   UNL     1      -0.246  -1.524   1.053  0.00  0.00    -0.461 OA
BRANCH  18  20
ATOM     19  C   UNL     1       1.389   0.206   1.567  0.00  0.00    +0.048 C 
ATOM     20  C   UNL     1      -0.089  -0.106   1.325  0.00  0.00    +0.229 C 
ENDBRANCH  18  20
ENDBRANCH  16  18
ENDBRANCH   5  16
ENDBRANCH   1   9
BRANCH   2  21
ATOM     21  C   UNL     1      -1.213  -3.093  -4.406  0.00  0.00    +0.020 C 
BRANCH  21  22
ATOM     22  N   UNL     1      -1.277  -4.023  -5.542  0.00  0.00    +0.391 N 
ATOM     23  H   UNL     1      -0.612  -4.870  -5.323  0.00  0.00    -0.080 HD
BRANCH  22  24
ATOM     24  C   UNL     1      -2.638  -4.550  -5.714  0.00  0.00    -0.042 C 
BRANCH  24  25
ATOM     25  C   UNL     1      -2.595  -5.771  -6.596  0.00  0.00    -0.064 A 
ATOM     26  C   UNL     1      -2.853  -5.656  -7.949  0.00  0.00    +0.002 A 
ATOM     27  C   UNL     1      -2.809  -6.776  -8.759  0.00  0.00    +0.000 A 
ATOM     28  C   UNL     1      -2.516  -8.012  -8.214  0.00  0.00    +0.000 A 
ATOM     29  C   UNL     1      -2.264  -8.128  -6.859  0.00  0.00    +0.000 A 
ATOM     30  C   UNL     1      -2.303  -7.008  -6.051  0.00  0.00    +0.002 A 
ENDBRANCH  24  25
ENDBRANCH  22  24
BRANCH  22  31
ATOM     31  C   UNL     1      -0.801  -3.382  -6.775  0.00  0.00    -0.042 C 
BRANCH  31  32
ATOM     32  C   UNL     1       0.699  -3.246  -6.723  0.00  0.00    -0.064 A 
ATOM     33  C   UNL     1       1.272  -2.069  -6.279  0.00  0.00    +0.002 A 
ATOM     34  C   UNL     1       2.648  -1.946  -6.227  0.00  0.00    +0.000 A 
ATOM     35  C   UNL     1       3.451  -2.997  -6.629  0.00  0.00    +0.000 A 
ATOM     36  C   UNL     1       2.878  -4.172  -7.078  0.00  0.00    +0.000 A 
ATOM     37  C   UNL     1       1.502  -4.297  -7.125  0.00  0.00    +0.002 A 
ENDBRANCH  31  32
ENDBRANCH  22  31
ENDBRANCH  21  22
ENDBRANCH   2  21
TORSDOF 11
