REMARK  Name = ZINC63783185
REMARK  8 active torsions:
REMARK  status: ('A' for Active; 'I' for Inactive)
REMARK    1  A    between atoms: C_4  and  C_7
REMARK    2  A    between atoms: C_7  and  N_8
REMARK    3  A    between atoms: C_9  and  C_11
REMARK    4  A    between atoms: C_11  and  C_12
REMARK    5  A    between atoms: C_15  and  C_19
REMARK    6  A    between atoms: N_21  and  C_22
REMARK    7  A    between atoms: C_22  and  C_23
REMARK    8  A    between atoms: C_23  and  C_24
REMARK                            x       y       z     vdW  Elec       q    Type
REMARK                         _______ _______ _______ _____ _____    ______ ____
ROOT
ATOM      1  C   UNL     1       7.099  -2.600   2.966  0.00  0.00    +0.158 C 
ATOM      2  N   UNL     1       7.545  -2.907   4.351  0.00  0.00    -0.265 NA
ATOM      3  C   UNL     1       8.424  -4.090   4.155  0.00  0.00    +0.297 C 
ATOM      4  O   UNL     1       7.780  -4.860   3.124  0.00  0.00    -0.270 OA
ATOM      5  N   UNL     1       6.942  -3.935   2.343  0.00  0.00    -0.181 NA
ATOM      6  H   UNL     1       8.061  -2.135   4.745  0.00  0.00    +0.126 HD
ATOM      7  H   UNL     1       7.224  -3.917   1.374  0.00  0.00    +0.156 HD
ENDROOT
BRANCH   3   8
ATOM      8  C   UNL     1       8.518  -4.890   5.429  0.00  0.00    +0.259 C 
ATOM      9  O   UNL     1       7.992  -5.981   5.500  0.00  0.00    -0.271 OA
ATOM     10  N   UNL     1       9.186  -4.394   6.489  0.00  0.00    -0.312 N 
ATOM     11  H   UNL     1       9.607  -3.521   6.432  0.00  0.00    +0.149 HD
BRANCH  10  12
ATOM     12  C   UNL     1       9.278  -5.171   7.727  0.00  0.00    +0.108 C 
BRANCH  12  13
ATOM     13  C   UNL     1      10.083  -4.387   8.764  0.00  0.00    +0.052 C 
BRANCH  13  14
ATOM     14  C   UNL     1      10.177  -5.187  10.038  0.00  0.00    -0.040 C 
ATOM     15  C   UNL     1      11.187  -6.005  10.411  0.00  0.00    +0.002 A 
ATOM     16  C   UNL     1      12.452  -6.381   9.767  0.00  0.00    +0.048 A 
ATOM     17  C   UNL     1      13.280  -7.245  10.401  0.00  0.00    +0.124 A 
ATOM     18  C   UNL     1      12.959  -7.787  11.655  0.00  0.00    +0.040 A 
ATOM     19  C   UNL     1      11.816  -7.489  12.308  0.00  0.00    +0.029 A 
ATOM     20  C   UNL     1      10.873  -6.592  11.733  0.00  0.00    +0.043 A 
ATOM     21  N   UNL     1       9.715  -6.153  12.161  0.00  0.00    -0.380 N 
ATOM     22  C   UNL     1       9.165  -5.232  11.160  0.00  0.00    +0.144 C 
ATOM     23  F   UNL     1      14.444  -7.593   9.811  0.00  0.00    -0.205 F 
ATOM     24  H   UNL     1       9.293  -6.394  13.001  0.00  0.00    +0.160 HD
ENDBRANCH  13  14
ENDBRANCH  12  13
ENDBRANCH  10  12
ENDBRANCH   3   8
BRANCH   1  25
ATOM     25  C   UNL     1       5.764  -1.853   2.984  0.00  0.00    +0.132 C 
BRANCH  25  27
ATOM     26  N   UNL     1       4.152  -0.952   1.338  0.00  0.00    -0.311 N 
ATOM     27  C   UNL     1       5.311  -1.601   1.569  0.00  0.00    +0.216 C 
ATOM     28  O   UNL     1       5.989  -1.981   0.638  0.00  0.00    -0.276 OA
ATOM     29  H   UNL     1       3.610  -0.648   2.082  0.00  0.00    +0.149 HD
BRANCH  26  30
ATOM     30  C   UNL     1       3.711  -0.707  -0.038  0.00  0.00    +0.139 C 
BRANCH  30  34
ATOM     31  C   UNL     1      -0.017   1.378   0.010  0.00  0.00    +0.000 A 
ATOM     32  C   UNL     1       1.171   2.086   0.002  0.00  0.00    +0.000 A 
ATOM     33  C   UNL     1       2.377   1.411  -0.013  0.00  0.00    +0.005 A 
ATOM     34  C   UNL     1       2.396   0.029  -0.020  0.00  0.00    -0.030 A 
ATOM     35  C   UNL     1       1.208  -0.679  -0.012  0.00  0.00    +0.005 A 
ATOM     36  C   UNL     1       0.002  -0.004   0.002  0.00  0.00    +0.000 A 
ENDBRANCH  30  34
ENDBRANCH  26  30
ENDBRANCH  25  27
ENDBRANCH   1  25
TORSDOF 8
