REMARK  Name = ZINC04729658
REMARK  9 active torsions:
REMARK  status: ('A' for Active; 'I' for Inactive)
REMARK    1  A    between atoms: C_1  and  C_2
REMARK    2  A    between atoms: C_2  and  O_3
REMARK    3  A    between atoms: O_3  and  C_4
REMARK    4  A    between atoms: C_8  and  C_11
REMARK    5  A    between atoms: C_9  and  O_10
REMARK    6  A    between atoms: C_14  and  C_25
REMARK    7  A    between atoms: C_16  and  C_18
REMARK    8  A    between atoms: C_29  and  O_31
REMARK    9  A    between atoms: O_31  and  C_32
REMARK                            x       y       z     vdW  Elec       q    Type
REMARK                         _______ _______ _______ _____ _____    ______ ____
ROOT
ATOM      1  C   UNL     1       1.025   7.516   0.423  0.00  0.00    -0.028 C 
ATOM      2  C   UNL     1       1.250   6.055   0.028  0.00  0.00    +0.044 C 
ATOM      3  C   UNL     1      -0.064   5.325   0.030  0.00  0.00    +0.040 C 
ATOM      4  N   UNL     1      -1.196   5.922   0.044  0.00  0.00    -0.299 NA
ATOM      5  C   UNL     1      -1.356   7.371   0.064  0.00  0.00    +0.081 C 
ATOM      6  N   UNL     1      -0.115   8.039  -0.356  0.00  0.00    +0.401 N 
ATOM      7  H   UNL     1       0.046   7.862  -1.354  0.00  0.00    -0.081 HD
ATOM      8  H   UNL     1      -0.201   9.050  -0.196  0.00  0.00    -0.081 HD
ENDROOT
BRANCH   5   9
ATOM      9  C   UNL     1      -1.711   7.812   1.461  0.00  0.00    -0.040 A 
ATOM     10  C   UNL     1      -1.322   9.060   1.911  0.00  0.00    +0.006 A 
ATOM     11  C   UNL     1      -1.652   9.468   3.189  0.00  0.00    +0.038 A 
ATOM     12  C   UNL     1      -2.362   8.621   4.024  0.00  0.00    +0.123 A 
ATOM     13  C   UNL     1      -2.746   7.369   3.574  0.00  0.00    +0.038 A 
ATOM     14  C   UNL     1      -2.420   6.966   2.293  0.00  0.00    +0.006 A 
ATOM     15  F   UNL     1      -2.680   9.016   5.276  0.00  0.00    -0.205 F 
ENDBRANCH   5   9
BRANCH   1  20
ATOM     16  C   UNL     1       4.470   9.060   0.707  0.00  0.00    +0.162 A 
ATOM     17  C   UNL     1       4.527   9.811  -0.456  0.00  0.00    +0.049 A 
ATOM     18  C   UNL     1       3.454   9.817  -1.328  0.00  0.00    +0.004 A 
ATOM     19  C   UNL     1       2.325   9.070  -1.046  0.00  0.00    +0.006 A 
ATOM     20  C   UNL     1       2.259   8.324   0.116  0.00  0.00    -0.016 A 
ATOM     21  C   UNL     1       3.331   8.313   0.994  0.00  0.00    +0.160 A 
BRANCH  21  22
ATOM     22  O   UNL     1       3.270   7.574   2.134  0.00  0.00    -0.503 OA
ATOM     23  H   UNL     1       3.598   6.670   2.034  0.00  0.00    +0.292 HD
ENDBRANCH  21  22
BRANCH  16  24
ATOM     24  O   UNL     1       5.524   9.053   1.566  0.00  0.00    -0.489 OA
BRANCH  24  26
ATOM     25  C   UNL     1       7.735   9.710   2.286  0.00  0.00    +0.048 C 
ATOM     26  C   UNL     1       6.659   9.843   1.207  0.00  0.00    +0.226 C 
ENDBRANCH  24  26
ENDBRANCH  16  24
ENDBRANCH   1  20
BRANCH   3  27
ATOM     27  C   UNL     1      -0.049   3.849   0.022  0.00  0.00    -0.001 A 
ATOM     28  C   UNL     1       1.167   3.160   0.007  0.00  0.00    +0.010 A 
ATOM     29  C   UNL     1       1.177   1.781   0.000  0.00  0.00    +0.004 A 
ATOM     30  C   UNL     1      -0.013   1.076   0.008  0.00  0.00    +0.045 A 
ATOM     31  C   UNL     1      -1.226   1.751   0.017  0.00  0.00    +0.121 A 
ATOM     32  C   UNL     1      -1.248   3.135   0.030  0.00  0.00    +0.055 A 
BRANCH  31  33
ATOM     33  O   UNL     1      -2.392   1.052   0.019  0.00  0.00    -0.495 OA
ATOM     34  C   UNL     1      -2.294  -0.373   0.012  0.00  0.00    +0.277 C 
ENDBRANCH  31  33
ENDBRANCH   3  27
TORSDOF 7
