REMARK  Name = ZINC16759626
REMARK  7 active torsions:
REMARK  status: ('A' for Active; 'I' for Inactive)
REMARK    1  A    between atoms: C_1  and  C_2
REMARK    2  A    between atoms: C_5  and  N_8
REMARK    3  A    between atoms: C_11  and  C_16
REMARK    4  A    between atoms: C_16  and  O_17
REMARK    5  A    between atoms: O_17  and  C_18
REMARK    6  A    between atoms: C_18  and  C_20
REMARK    7  A    between atoms: C_21  and  C_35
REMARK                            x       y       z     vdW  Elec       q    Type
REMARK                         _______ _______ _______ _____ _____    ______ ____
ROOT
ATOM      1  C   UNL     1       3.434   7.690   0.428  0.00  0.00    +0.308 C 
ENDROOT
BRANCH   1   5
ATOM      2  N   UNL     1       1.162   3.484   0.009  0.00  0.00    -0.284 N 
ATOM      3  C   UNL     1       2.347   4.188   0.106  0.00  0.00    +0.224 A 
ATOM      4  N   UNL     1       2.328   5.515   0.208  0.00  0.00    -0.196 NA
ATOM      5  C   UNL     1       3.461   6.188   0.306  0.00  0.00    +0.173 A 
ATOM      6  N   UNL     1       4.617   5.548   0.292  0.00  0.00    -0.196 NA
ATOM      7  C   UNL     1       4.644   4.222   0.185  0.00  0.00    +0.217 A 
ATOM      8  N   UNL     1       3.507   3.541   0.092  0.00  0.00    -0.181 NA
ATOM      9  N   UNL     1       5.852   3.554   0.172  0.00  0.00    -0.327 N 
ATOM     10  H   UNL     1       0.320   3.960  -0.061  0.00  0.00    +0.155 HD
ATOM     11  H   UNL     1       5.872   2.588   0.094  0.00  0.00    +0.145 HD
ATOM     12  H   UNL     1       6.682   4.052   0.240  0.00  0.00    +0.145 HD
BRANCH   2  17
ATOM     13  C   UNL     1       1.221  -2.188   0.024  0.00  0.00    +0.044 C 
ATOM     14  C   UNL     1       1.205  -0.681   0.021  0.00  0.00    -0.050 A 
ATOM     15  C   UNL     1       2.143   0.021   0.755  0.00  0.00    +0.005 A 
ATOM     16  C   UNL     1       2.132   1.402   0.754  0.00  0.00    +0.023 A 
ATOM     17  C   UNL     1       1.177   2.086   0.013  0.00  0.00    +0.034 A 
ATOM     18  C   UNL     1       0.236   1.378  -0.725  0.00  0.00    +0.023 A 
ATOM     19  C   UNL     1       0.253  -0.003  -0.718  0.00  0.00    +0.005 A 
ENDBRANCH   2  17
ENDBRANCH   1   5
BRANCH   1  20
ATOM     20  O   UNL     1       3.472   8.284  -0.897  0.00  0.00    -0.453 OA
BRANCH  20  21
ATOM     21  C   UNL     1       3.454   9.631  -0.965  0.00  0.00    +0.347 C 
ATOM     22  O   UNL     1       3.409  10.291   0.056  0.00  0.00    -0.244 OA
BRANCH  21  23
ATOM     23  C   UNL     1       3.490  10.299  -2.268  0.00  0.00    +0.102 A 
ATOM     24  C   UNL     1       3.479  11.636  -2.540  0.00  0.00    -0.015 A 
ATOM     25  C   UNL     1       3.519  12.076  -3.864  0.00  0.00    +0.076 A 
ATOM     26  C   UNL     1       3.570  11.062  -4.849  0.00  0.00    +0.116 A 
ATOM     27  S   UNL     1       3.565   9.566  -3.893  0.00  0.00    -0.062 S 
ATOM     28  N   UNL     1       3.612  11.345  -6.144  0.00  0.00    -0.226 NA
ATOM     29  C   UNL     1       3.608  12.574  -6.579  0.00  0.00    +0.114 A 
ATOM     30  N   UNL     1       3.561  13.636  -5.724  0.00  0.00    -0.296 N 
ATOM     31  C   UNL     1       3.516  13.460  -4.392  0.00  0.00    +0.263 A 
ATOM     32  O   UNL     1       3.474  14.415  -3.637  0.00  0.00    -0.267 OA
ATOM     33  C   UNL     1       3.562  14.989  -6.296  0.00  0.00    +0.126 C 
ATOM     34  C   UNL     1       2.194  15.275  -6.911  0.00  0.00    +0.022 C 
ATOM     35  C   UNL     1       2.146  14.843  -8.367  0.00  0.00    +0.002 C 
ATOM     36  C   UNL     1       2.281  13.338  -8.523  0.00  0.00    +0.008 C 
ATOM     37  C   UNL     1       3.656  12.858  -8.063  0.00  0.00    +0.074 C 
ATOM     38  C   UNL     1       3.426  12.636  -1.413  0.00  0.00    +0.046 C 
ENDBRANCH  21  23
ENDBRANCH  20  21
ENDBRANCH   1  20
TORSDOF 5
