REMARK  Name = ZINC39684372
REMARK  10 active torsions:
REMARK  status: ('A' for Active; 'I' for Inactive)
REMARK    1  A    between atoms: C_1  and  C_2
REMARK    2  A    between atoms: C_2  and  C_4
REMARK    3  A    between atoms: C_2  and  N_8
REMARK    4  A    between atoms: C_4  and  C_5
REMARK    5  A    between atoms: C_4  and  C_6
REMARK    6  A    between atoms: C_4  and  C_7
REMARK    7  A    between atoms: C_9  and  C_11
REMARK    8  A    between atoms: C_22  and  C_24
REMARK    9  A    between atoms: C_24  and  C_25
REMARK   10  A    between atoms: C_25  and  C_26
REMARK                            x       y       z     vdW  Elec       q    Type
REMARK                         _______ _______ _______ _____ _____    ______ ____
ROOT
ATOM      1  C   UNL     1      -3.442  -1.177   1.191  0.00  0.00    +0.100 C 
ATOM      2  C   UNL     1      -4.400  -0.149   0.548  0.00  0.00    +0.121 C 
ATOM      3  N   UNL     1      -5.639  -0.235   1.355  0.00  0.00    -0.300 N 
ATOM      4  C   UNL     1      -5.161  -0.393   2.749  0.00  0.00    +0.115 C 
ATOM      5  C   UNL     1      -3.945  -1.333   2.637  0.00  0.00    -0.004 C 
ATOM      6  C   UNL     1      -2.859  -0.911   3.622  0.00  0.00    -0.010 C 
ATOM      7  C   UNL     1      -3.360  -1.131   5.052  0.00  0.00    -0.082 C 
ATOM      8  N   UNL     1      -3.699  -2.546   5.242  0.00  0.00    +0.379 N 
ATOM      9  C   UNL     1      -4.807  -2.920   4.356  0.00  0.00    -0.082 C 
ATOM     10  C   UNL     1      -4.367  -2.776   2.896  0.00  0.00    -0.010 C 
ATOM     11  C   UNL     1      -6.914  -0.183   0.920  0.00  0.00    +0.216 C 
ATOM     12  O   UNL     1      -7.829  -0.268   1.712  0.00  0.00    -0.276 OA
ATOM     13  H   UNL     1      -2.893  -3.115   5.029  0.00  0.00    -0.086 HD
ATOM     14  H   UNL     1      -3.970  -2.700   6.202  0.00  0.00    -0.086 HD
ENDROOT
BRANCH   1  16
ATOM     15  N   UNL     1      -0.993  -1.516   1.122  0.00  0.00    -0.312 N 
ATOM     16  C   UNL     1      -2.029  -0.655   1.181  0.00  0.00    +0.218 C 
ATOM     17  O   UNL     1      -1.823   0.539   1.225  0.00  0.00    -0.275 OA
ATOM     18  H   UNL     1      -1.158  -2.471   1.086  0.00  0.00    +0.149 HD
BRANCH  15  20
ATOM     19  C   UNL     1       0.784  -0.655  -0.322  0.00  0.00    +0.028 C 
ATOM     20  C   UNL     1       0.381  -1.009   1.111  0.00  0.00    +0.075 C 
BRANCH  20  21
ATOM     21  C   UNL     1       1.325  -2.083   1.656  0.00  0.00    -0.020 C 
ATOM     22  C   UNL     1       2.760  -1.553   1.645  0.00  0.00    +0.012 C 
ATOM     23  C   UNL     1       0.923  -2.436   3.089  0.00  0.00    +0.012 C 
ATOM     24  C   UNL     1       1.236  -3.333   0.778  0.00  0.00    +0.012 C 
ENDBRANCH  20  21
ENDBRANCH  15  20
ENDBRANCH   1  16
BRANCH  11  25
ATOM     25  C   UNL     1      -7.202  -0.019  -0.550  0.00  0.00    +0.096 C 
BRANCH  25  26
ATOM     26  C   UNL     1      -8.716   0.011  -0.772  0.00  0.00    +0.013 C 
BRANCH  26  27
ATOM     27  C   UNL     1      -9.009   0.178  -2.265  0.00  0.00    -0.011 C 
ATOM     28  C   UNL     1      -8.569   1.579  -2.736  0.00  0.00    +0.003 C 
ATOM     29  C   UNL     1      -9.651   1.991  -3.765  0.00  0.00    +0.000 C 
ATOM     30  C   UNL     1     -10.951   1.432  -3.135  0.00  0.00    +0.000 C 
ATOM     31  C   UNL     1     -10.524   0.084  -2.518  0.00  0.00    +0.003 C 
ENDBRANCH  26  27
ENDBRANCH  25  26
ENDBRANCH  11  25
TORSDOF 6
