REMARK  Name = ZINC43741659
REMARK  10 active torsions:
REMARK  status: ('A' for Active; 'I' for Inactive)
REMARK    1  A    between atoms: C_1  and  C_2
REMARK    2  A    between atoms: C_2  and  C_4
REMARK    3  A    between atoms: C_10  and  C_40
REMARK    4  A    between atoms: N_22  and  O_23
REMARK    5  A    between atoms: O_23  and  C_24
REMARK    6  A    between atoms: C_24  and  C_25
REMARK    7  A    between atoms: N_27  and  C_28
REMARK    8  A    between atoms: C_28  and  C_29
REMARK    9  A    between atoms: C_29  and  C_30
REMARK   10  A    between atoms: C_38  and  C_39
REMARK                            x       y       z     vdW  Elec       q    Type
REMARK                         _______ _______ _______ _____ _____    ______ ____
ROOT
ATOM      1  C   UNL     1      -1.365  -0.907   0.203  0.00  0.00    +0.061 C 
ATOM      2  C   UNL     1      -1.845  -1.482   1.558  0.00  0.00    +0.012 C 
ATOM      3  C   UNL     1      -1.935  -3.022   1.373  0.00  0.00    +0.005 C 
ATOM      4  C   UNL     1      -2.113  -3.175  -0.141  0.00  0.00    -0.001 C 
ATOM      5  C   UNL     1      -1.111  -2.120  -0.686  0.00  0.00    -0.019 C 
ATOM      6  C   UNL     1      -1.400  -1.948  -2.165  0.00  0.00    +0.008 C 
ATOM      7  C   UNL     1      -1.077  -3.286  -2.848  0.00  0.00    +0.005 C 
ATOM      8  C   UNL     1      -1.880  -4.436  -2.248  0.00  0.00    +0.002 C 
ATOM      9  C   UNL     1      -1.726  -4.526  -0.717  0.00  0.00    -0.003 C 
ATOM     10  C   UNL     1      -2.660  -5.608  -0.169  0.00  0.00    +0.008 C 
ATOM     11  C   UNL     1      -2.213  -6.972  -0.700  0.00  0.00    +0.031 C 
ATOM     12  C   UNL     1      -2.165  -6.915  -2.216  0.00  0.00    -0.062 C 
ATOM     13  C   UNL     1      -2.753  -7.898  -2.889  0.00  0.00    +0.026 C 
ATOM     14  C   UNL     1      -2.725  -7.904  -4.362  0.00  0.00    +0.080 C 
ATOM     15  N   UNL     1      -3.588  -8.573  -5.058  0.00  0.00    -0.089 NA
ATOM     16  C   UNL     1      -1.632  -7.084  -5.019  0.00  0.00    +0.059 C 
ATOM     17  C   UNL     1      -1.651  -5.698  -4.376  0.00  0.00    +0.017 C 
ATOM     18  C   UNL     1      -1.422  -5.754  -2.884  0.00  0.00    -0.007 C 
ATOM     19  C   UNL     1       0.080  -5.901  -2.633  0.00  0.00    +0.016 C 
ATOM     20  C   UNL     1       0.323  -2.617  -0.489  0.00  0.00    +0.012 C 
ENDROOT
BRANCH   1  22
ATOM     21  C   UNL     1       0.295   0.936  -0.611  0.00  0.00    +0.086 C 
ATOM     22  C   UNL     1      -0.092  -0.122   0.390  0.00  0.00    +0.134 C 
ATOM     23  O   UNL     1       0.618  -0.340   1.342  0.00  0.00    -0.297 OA
ENDBRANCH   1  22
BRANCH  15  24
ATOM     24  O   UNL     1      -4.594  -9.326  -4.405  0.00  0.00    -0.384 OA
BRANCH  24  25
ATOM     25  C   UNL     1      -5.476 -10.013  -5.295  0.00  0.00    +0.358 C 
BRANCH  25  26
ATOM     26  C   UNL     1      -6.500 -10.778  -4.496  0.00  0.00    +0.253 C 
ATOM     27  O   UNL     1      -6.477 -10.738  -3.284  0.00  0.00    -0.272 OA
ATOM     28  N   UNL     1      -7.442 -11.506  -5.128  0.00  0.00    -0.312 N 
ATOM     29  H   UNL     1      -7.460 -11.538  -6.098  0.00  0.00    +0.149 HD
BRANCH  28  30
ATOM     30  C   UNL     1      -8.437 -12.249  -4.352  0.00  0.00    +0.110 C 
BRANCH  30  31
ATOM     31  C   UNL     1      -9.382 -12.985  -5.305  0.00  0.00    +0.073 C 
BRANCH  31  32
ATOM     32  C   UNL     1     -10.406 -13.749  -4.506  0.00  0.00    +0.035 A 
ATOM     33  C   UNL     1     -10.245 -14.981  -3.986  0.00  0.00    +0.105 A 
ATOM     34  N   UNL     1     -11.411 -15.294  -3.341  0.00  0.00    -0.352 N 
ATOM     35  H   UNL     1     -11.603 -16.117  -2.866  0.00  0.00    +0.166 HD
ATOM     36  C   UNL     1     -12.245 -14.242  -3.491  0.00  0.00    +0.171 A 
ATOM     37  N   UNL     1     -11.635 -13.320  -4.185  0.00  0.00    -0.350 N 
ATOM     38  H   UNL     1     -12.012 -12.460  -4.430  0.00  0.00    +0.166 HD
ENDBRANCH  31  32
ENDBRANCH  30  31
ENDBRANCH  28  30
ENDBRANCH  25  26
ENDBRANCH  24  25
ENDBRANCH  15  24
TORSDOF 7
