REMARK  Name = ZINC36813213
REMARK  3 active torsions:
REMARK  status: ('A' for Active; 'I' for Inactive)
REMARK    1  A    between atoms: C_8  and  N_13
REMARK    2  A    between atoms: C_9  and  N_12
REMARK    3  A    between atoms: N_13  and  C_14
REMARK                            x       y       z     vdW  Elec       q    Type
REMARK                         _______ _______ _______ _____ _____    ______ ____
ROOT
ATOM      1  C   UNL     1      -0.732  -3.204  -2.167  0.00  0.00    +0.017 A 
ATOM      2  C   UNL     1      -0.355  -2.002  -2.683  0.00  0.00    +0.027 A 
ATOM      3  C   UNL     1       0.856  -1.416  -2.277  0.00  0.00    +0.048 A 
ATOM      4  C   UNL     1       1.664  -2.094  -1.331  0.00  0.00    +0.022 A 
ATOM      5  C   UNL     1       1.246  -3.330  -0.818  0.00  0.00    +0.027 A 
ATOM      6  C   UNL     1       0.065  -3.868  -1.236  0.00  0.00    +0.019 A 
ATOM      7 BR   UNL     1      -0.498  -5.535  -0.544  0.00  0.00    -0.050 Br
ATOM      8  C   UNL     1       2.881  -1.504  -0.922  0.00  0.00    +0.059 A 
ATOM      9  C   UNL     1       3.227  -0.276  -1.476  0.00  0.00    +0.062 A 
ATOM     10  C   UNL     1       2.376   0.325  -2.401  0.00  0.00    +0.107 A 
ATOM     11  N   UNL     1       1.248  -0.236  -2.770  0.00  0.00    -0.359 N 
ATOM     12  H   UNL     1       0.684   0.216  -3.417  0.00  0.00    +0.165 HD
ENDROOT
BRANCH   9  13
ATOM     13  N   UNL     1       4.424   0.354  -1.105  0.00  0.00    -0.355 N 
ATOM     14  H   UNL     1       5.059  -0.109  -0.537  0.00  0.00    +0.142 HD
ATOM     15  H   UNL     1       4.617   1.252  -1.417  0.00  0.00    +0.142 HD
ENDBRANCH   9  13
BRANCH   8  16
ATOM     16  N   UNL     1       3.708  -2.131   0.004  0.00  0.00    -0.339 N 
ATOM     17  H   UNL     1       3.462  -2.145   0.943  0.00  0.00    +0.146 HD
BRANCH  16  18
ATOM     18  C   UNL     1       4.950  -2.772  -0.437  0.00  0.00    +0.075 C 
ATOM     19  C   UNL     1       5.885  -2.957   0.762  0.00  0.00    +0.050 C 
ATOM     20  C   UNL     1       7.145  -3.697   0.307  0.00  0.00    +0.161 C 
ATOM     21  O   UNL     1       6.777  -4.951  -0.272  0.00  0.00    -0.380 OA
ATOM     22  C   UNL     1       5.941  -4.838  -1.425  0.00  0.00    +0.161 C 
ATOM     23  C   UNL     1       4.632  -4.144  -1.040  0.00  0.00    +0.050 C 
ENDBRANCH  16  18
ENDBRANCH   8  16
TORSDOF 3
