REMARK  Name = ZINC37943708
REMARK  12 active torsions:
REMARK  status: ('A' for Active; 'I' for Inactive)
REMARK    1  A    between atoms: C_1  and  C_2
REMARK    2  A    between atoms: C_2  and  N_3
REMARK    3  A    between atoms: N_3  and  C_4
REMARK    4  A    between atoms: N_3  and  C_6
REMARK    5  A    between atoms: C_4  and  C_5
REMARK    6  A    between atoms: C_6  and  C_7
REMARK    7  A    between atoms: C_7  and  N_8
REMARK    8  A    between atoms: N_8  and  C_9
REMARK    9  A    between atoms: C_9  and  C_11
REMARK   10  A    between atoms: C_9  and  C_20
REMARK   11  A    between atoms: C_16  and  O_17
REMARK   12  A    between atoms: O_17  and  C_18
REMARK                            x       y       z     vdW  Elec       q    Type
REMARK                         _______ _______ _______ _____ _____    ______ ____
ROOT
ATOM      1  C   UNL     1      -2.818  -3.878  -1.939  0.00  0.00    +0.174 C 
ENDROOT
BRANCH   1   2
ATOM      2  C   UNL     1      -3.066  -5.315  -1.560  0.00  0.00    +0.021 A 
ATOM      3  C   UNL     1      -2.027  -6.226  -1.582  0.00  0.00    +0.024 A 
ATOM      4  C   UNL     1      -2.255  -7.545  -1.234  0.00  0.00    +0.018 A 
ATOM      5  C   UNL     1      -3.523  -7.956  -0.863  0.00  0.00    +0.019 A 
ATOM      6  C   UNL     1      -4.564  -7.049  -0.839  0.00  0.00    +0.047 A 
ATOM      7  C   UNL     1      -4.337  -5.724  -1.183  0.00  0.00    +0.125 A 
ATOM      8 BR   UNL     1      -0.831  -8.789  -1.265  0.00  0.00    -0.050 Br
BRANCH   7   9
ATOM      9  O   UNL     1      -5.359  -4.829  -1.155  0.00  0.00    -0.495 OA
ATOM     10  C   UNL     1      -6.641  -5.320  -0.757  0.00  0.00    +0.277 C 
ENDBRANCH   7   9
ENDBRANCH   1   2
BRANCH   1  11
ATOM     11  C   UNL     1      -3.272  -3.647  -3.357  0.00  0.00    +0.232 C 
ATOM     12  O   UNL     1      -2.478  -3.275  -4.195  0.00  0.00    -0.274 OA
ATOM     13  N   UNL     1      -4.560  -3.855  -3.695  0.00  0.00    -0.328 N 
ATOM     14  H   UNL     1      -5.195  -4.153  -3.025  0.00  0.00    +0.145 HD
ATOM     15  H   UNL     1      -4.852  -3.707  -4.608  0.00  0.00    +0.145 HD
ENDBRANCH   1  11
BRANCH   1  16
ATOM     16  N   UNL     1      -1.383  -3.584  -1.831  0.00  0.00    -0.304 NA
ATOM     17  H   UNL     1      -0.885  -3.905  -2.648  0.00  0.00    +0.123 HD
BRANCH  16  18
ATOM     18  C   UNL     1      -1.155  -2.151  -1.603  0.00  0.00    +0.063 C 
BRANCH  18  19
ATOM     19  C   UNL     1       0.348  -1.884  -1.496  0.00  0.00    -0.064 C 
BRANCH  19  20
ATOM     20  N   UNL     1       0.576  -0.451  -1.269  0.00  0.00    +0.380 N 
ATOM     21  H   UNL     1       0.124   0.081  -1.998  0.00  0.00    -0.082 HD
BRANCH  20  23
ATOM     22  C   UNL     1       0.128   1.449   0.210  0.00  0.00    -0.017 C 
ATOM     23  C   UNL     1       0.019  -0.067   0.035  0.00  0.00    -0.082 C 
ENDBRANCH  20  23
BRANCH  20  24
ATOM     24  C   UNL     1       2.019  -0.176  -1.285  0.00  0.00    -0.082 C 
ATOM     25  C   UNL     1       2.573  -0.440  -2.687  0.00  0.00    -0.017 C 
ENDBRANCH  20  24
ENDBRANCH  19  20
ENDBRANCH  18  19
ENDBRANCH  16  18
ENDBRANCH   1  16
TORSDOF 9
