REMARK  Name = ZINC42117423
REMARK  10 active torsions:
REMARK  status: ('A' for Active; 'I' for Inactive)
REMARK    1  A    between atoms: C_1  and  C_2
REMARK    2  A    between atoms: C_11  and  N_13
REMARK    3  A    between atoms: N_13  and  C_14
REMARK    4  A    between atoms: C_14  and  C_15
REMARK    5  A    between atoms: C_15  and  C_17
REMARK    6  A    between atoms: C_15  and  N_20
REMARK    7  A    between atoms: C_17  and  C_18
REMARK    8  A    between atoms: C_17  and  C_19
REMARK    9  A    between atoms: N_20  and  C_21
REMARK   10  A    between atoms: N_20  and  C_22
REMARK                            x       y       z     vdW  Elec       q    Type
REMARK                         _______ _______ _______ _____ _____    ______ ____
ROOT
ATOM      1  C   UNL     1       0.639  -4.250  -3.770  0.00  0.00    +0.046 C 
ATOM      2  C   UNL     1       0.480  -5.227  -2.633  0.00  0.00    -0.028 A 
ATOM      3  C   UNL     1       0.360  -6.576  -2.897  0.00  0.00    +0.020 A 
ATOM      4  C   UNL     1       0.214  -7.480  -1.860  0.00  0.00    +0.019 A 
ATOM      5  C   UNL     1       0.188  -7.029  -0.551  0.00  0.00    +0.022 A 
ATOM      6  C   UNL     1       0.308  -5.684  -0.286  0.00  0.00    +0.001 A 
ATOM      7  C   UNL     1       0.461  -4.766  -1.318  0.00  0.00    +0.042 A 
ATOM      8  N   UNL     1       0.568  -3.474  -0.803  0.00  0.00    -0.283 N 
ATOM      9  C   UNL     1       0.502  -3.454   0.539  0.00  0.00    +0.239 C 
ATOM     10  O   UNL     1       0.567  -2.473   1.250  0.00  0.00    -0.273 OA
ATOM     11  C   UNL     1       0.319  -4.886   0.997  0.00  0.00    +0.173 C 
ATOM     12 BR   UNL     1       0.049  -9.327  -2.230  0.00  0.00    -0.050 Br
ATOM     13  H   UNL     1       0.678  -2.680  -1.350  0.00  0.00    +0.155 HD
ENDROOT
BRANCH  11  14
ATOM     14  N   UNL     1       1.447  -5.290   1.846  0.00  0.00    -0.304 NA
ATOM     15  H   UNL     1       1.672  -6.264   1.709  0.00  0.00    +0.123 HD
BRANCH  14  16
ATOM     16  C   UNL     1       1.170  -5.008   3.260  0.00  0.00    +0.067 C 
BRANCH  16  17
ATOM     17  C   UNL     1       2.366  -5.441   4.111  0.00  0.00    -0.053 C 
BRANCH  17  18
ATOM     18  N   UNL     1       3.518  -4.580   3.811  0.00  0.00    +0.379 N 
ATOM     19  C   UNL     1       4.761  -5.302   4.114  0.00  0.00    -0.096 C 
ATOM     20  C   UNL     1       3.499  -4.213   2.389  0.00  0.00    -0.096 C 
ATOM     21  H   UNL     1       3.469  -3.745   4.375  0.00  0.00    -0.082 HD
ENDBRANCH  17  18
BRANCH  17  22
ATOM     22  C   UNL     1       2.009  -5.318   5.593  0.00  0.00    -0.030 C 
ATOM     23  C   UNL     1       3.192  -5.785   6.443  0.00  0.00    +0.005 C 
ATOM     24  C   UNL     1       1.690  -3.858   5.922  0.00  0.00    +0.005 C 
ENDBRANCH  17  22
ENDBRANCH  16  17
ENDBRANCH  14  16
ENDBRANCH  11  14
TORSDOF 5
