REMARK  Name = ZINC66242922
REMARK  6 active torsions:
REMARK  status: ('A' for Active; 'I' for Inactive)
REMARK    1  A    between atoms: N_9  and  C_10
REMARK    2  A    between atoms: C_10  and  C_11
REMARK    3  A    between atoms: C_14  and  C_17
REMARK    4  A    between atoms: C_17  and  N_18
REMARK    5  A    between atoms: N_20  and  C_21
REMARK    6  A    between atoms: C_21  and  C_22
REMARK                            x       y       z     vdW  Elec       q    Type
REMARK                         _______ _______ _______ _____ _____    ______ ____
ROOT
ATOM      1  C   UNL     1       5.399  -0.285   1.368  0.00  0.00    -0.030 A 
ATOM      2  C   UNL     1       5.274   0.923   2.029  0.00  0.00    +0.005 A 
ATOM      3  C   UNL     1       5.728   1.050   3.328  0.00  0.00    +0.006 A 
ATOM      4  C   UNL     1       6.307  -0.031   3.967  0.00  0.00    -0.028 A 
ATOM      5  C   UNL     1       6.431  -1.239   3.307  0.00  0.00    +0.006 A 
ATOM      6  C   UNL     1       5.973  -1.367   2.009  0.00  0.00    +0.005 A 
ENDROOT
BRANCH   1   7
ATOM      7  C   UNL     1       4.903  -0.424  -0.048  0.00  0.00    +0.140 C 
BRANCH   7  16
ATOM      8  C   UNL     1      -0.017   1.378   0.010  0.00  0.00    +0.000 A 
ATOM      9  C   UNL     1       1.174   2.082   0.002  0.00  0.00    +0.002 A 
ATOM     10  C   UNL     1       2.377   1.411  -0.013  0.00  0.00    +0.023 A 
ATOM     11  C   UNL     1       2.405   0.014  -0.021  0.00  0.00    +0.033 A 
ATOM     12  C   UNL     1       1.206  -0.682  -0.013  0.00  0.00    -0.025 A 
ATOM     13  C   UNL     1       0.002  -0.004   0.002  0.00  0.00    +0.005 A 
ATOM     14  C   UNL     1       1.510  -2.163  -0.023  0.00  0.00    +0.056 C 
ATOM     15  C   UNL     1       3.046  -2.241  -0.038  0.00  0.00    +0.110 C 
ATOM     16  N   UNL     1       3.501  -0.849  -0.036  0.00  0.00    -0.325 N 
ENDBRANCH   7  16
ENDBRANCH   1   7
BRANCH   4  17
ATOM     17  C   UNL     1       6.803   0.108   5.383  0.00  0.00    +0.151 C 
BRANCH  17  18
ATOM     18  N   UNL     1       5.724  -0.231   6.314  0.00  0.00    -0.354 N 
ATOM     19  C   UNL     1       5.943  -0.177   7.670  0.00  0.00    +0.169 C 
ATOM     20  N   UNL     1       4.983  -0.479   8.499  0.00  0.00    -0.355 N 
ATOM     21  N   UNL     1       7.175   0.197   8.153  0.00  0.00    -0.371 N 
ATOM     22  H   UNL     1       4.854  -0.495   5.974  0.00  0.00    +0.163 HD
ATOM     23  H   UNL     1       7.889   0.422   7.537  0.00  0.00    +0.159 HD
ATOM     24  H   UNL     1       7.330   0.236   9.110  0.00  0.00    +0.159 HD
ATOM     25  H   UNL     1       4.114  -0.743   8.158  0.00  0.00    +0.162 HD
BRANCH  20  26
ATOM     26  C   UNL     1       5.217  -0.420   9.944  0.00  0.00    +0.147 C 
BRANCH  26  27
ATOM     27  C   UNL     1       3.939  -0.820  10.684  0.00  0.00    +0.137 C 
ATOM     28  C   UNL     1       4.138  -0.645  12.205  0.00  0.00    +0.035 C 
ATOM     29  C   UNL     1       3.397  -1.884  12.778  0.00  0.00    +0.031 C 
ATOM     30  C   UNL     1       3.683  -2.934  11.676  0.00  0.00    +0.160 C 
ATOM     31  O   UNL     1       3.647  -2.200  10.439  0.00  0.00    -0.375 OA
ENDBRANCH  26  27
ENDBRANCH  20  26
ENDBRANCH  17  18
ENDBRANCH   4  17
TORSDOF 6
