REMARK  Name = ZINC40701966
REMARK  11 active torsions:
REMARK  status: ('A' for Active; 'I' for Inactive)
REMARK    1  A    between atoms: C_1  and  C_2
REMARK    2  A    between atoms: C_2  and  C_3
REMARK    3  A    between atoms: C_3  and  C_4
REMARK    4  A    between atoms: C_4  and  O_5
REMARK    5  A    between atoms: O_5  and  C_6
REMARK    6  A    between atoms: C_9  and  N_12
REMARK    7  A    between atoms: C_14  and  N_32
REMARK    8  A    between atoms: C_15  and  N_19
REMARK    9  A    between atoms: N_19  and  C_20
REMARK   10  A    between atoms: N_19  and  C_22
REMARK   11  A    between atoms: C_20  and  C_21
REMARK                            x       y       z     vdW  Elec       q    Type
REMARK                         _______ _______ _______ _____ _____    ______ ____
ROOT
ATOM      1  N   UNL     1       1.792  -7.922  -3.173  0.00  0.00    -0.299 N 
ATOM      2  C   UNL     1       2.371  -8.456  -4.318  0.00  0.00    +0.126 A 
ATOM      3  C   UNL     1       2.382  -9.837  -4.529  0.00  0.00    +0.104 A 
ATOM      4  C   UNL     1       2.976 -10.320  -5.696  0.00  0.00    +0.151 A 
ATOM      5  N   UNL     1       3.506  -9.454  -6.557  0.00  0.00    -0.220 NA
ATOM      6  C   UNL     1       3.474  -8.159  -6.320  0.00  0.00    +0.200 A 
ATOM      7  N   UNL     1       2.919  -7.660  -5.233  0.00  0.00    -0.333 N 
ATOM      8  H   UNL     1       1.479  -8.510  -2.468  0.00  0.00    +0.154 HD
ATOM      9  H   UNL     1       2.913  -6.700  -5.097  0.00  0.00    +0.168 HD
ENDROOT
BRANCH   1  13
ATOM     10  C   UNL     1       1.403  -3.791  -2.768  0.00  0.00    +0.121 A 
ATOM     11  C   UNL     1       1.161  -4.393  -3.994  0.00  0.00    +0.047 A 
ATOM     12  C   UNL     1       1.290  -5.761  -4.129  0.00  0.00    +0.027 A 
ATOM     13  C   UNL     1       1.662  -6.535  -3.037  0.00  0.00    +0.033 A 
ATOM     14  C   UNL     1       1.904  -5.931  -1.810  0.00  0.00    +0.027 A 
ATOM     15  C   UNL     1       1.780  -4.562  -1.678  0.00  0.00    +0.047 A 
BRANCH  10  16
ATOM     16  O   UNL     1       1.277  -2.443  -2.635  0.00  0.00    -0.492 OA
BRANCH  16  17
ATOM     17  C   UNL     1       0.886  -1.711  -3.799  0.00  0.00    +0.229 C 
BRANCH  17  18
ATOM     18  C   UNL     1       0.796  -0.222  -3.458  0.00  0.00    +0.041 C 
BRANCH  18  20
ATOM     19  C   UNL     1       0.288   2.050  -4.363  0.00  0.00    +0.004 C 
ATOM     20  C   UNL     1       0.378   0.561  -4.704  0.00  0.00    -0.000 C 
ENDBRANCH  18  20
ENDBRANCH  17  18
ENDBRANCH  16  17
ENDBRANCH  10  16
ENDBRANCH   1  13
BRANCH   3  21
ATOM     21  N   UNL     1       1.811 -10.714  -3.594  0.00  0.00    -0.353 N 
ATOM     22  H   UNL     1       1.341 -10.361  -2.822  0.00  0.00    +0.143 HD
ATOM     23  H   UNL     1       1.887 -11.673  -3.719  0.00  0.00    +0.143 HD
ENDBRANCH   3  21
BRANCH   4  24
ATOM     24  N   UNL     1       3.014 -11.686  -5.956  0.00  0.00    -0.283 N 
BRANCH  24  25
ATOM     25  C   UNL     1       4.149 -12.426  -5.628  0.00  0.00    +0.043 A 
ATOM     26  C   UNL     1       4.259 -13.018  -4.387  0.00  0.00    +0.024 A 
ATOM     27  C   UNL     1       5.388 -13.759  -4.051  0.00  0.00    +0.002 A 
ATOM     28  C   UNL     1       6.412 -13.920  -4.934  0.00  0.00    +0.008 A 
ATOM     29  C   UNL     1       6.339 -13.334  -6.208  0.00  0.00    -0.016 A 
ATOM     30  C   UNL     1       5.192 -12.582  -6.566  0.00  0.00    +0.003 A 
ATOM     31  C   UNL     1       5.118 -12.001  -7.841  0.00  0.00    +0.010 A 
ATOM     32  C   UNL     1       6.144 -12.172  -8.720  0.00  0.00    +0.001 A 
ATOM     33  C   UNL     1       7.270 -12.916  -8.372  0.00  0.00    +0.001 A 
ATOM     34  C   UNL     1       7.381 -13.483  -7.140  0.00  0.00    +0.008 A 
ENDBRANCH  24  25
BRANCH  24  35
ATOM     35  C   UNL     1       1.861 -12.347  -6.573  0.00  0.00    +0.109 C 
ATOM     36  C   UNL     1       2.059 -12.408  -8.089  0.00  0.00    +0.025 C 
ENDBRANCH  24  35
ENDBRANCH   4  24
TORSDOF 9
