REMARK  Name = ZINC45813627
REMARK  11 active torsions:
REMARK  status: ('A' for Active; 'I' for Inactive)
REMARK    1  A    between atoms: C_1  and  C_2
REMARK    2  A    between atoms: C_2  and  C_3
REMARK    3  A    between atoms: C_2  and  C_4
REMARK    4  A    between atoms: C_4  and  C_6
REMARK    5  A    between atoms: C_4  and  N_13
REMARK    6  A    between atoms: N_8  and  C_9
REMARK    7  A    between atoms: C_9  and  C_10
REMARK    8  A    between atoms: C_9  and  C_11
REMARK    9  A    between atoms: C_9  and  C_12
REMARK   10  A    between atoms: N_13  and  C_14
REMARK   11  A    between atoms: C_14  and  C_15
REMARK                            x       y       z     vdW  Elec       q    Type
REMARK                         _______ _______ _______ _____ _____    ______ ____
ROOT
ATOM      1  C   UNL     1      -1.465  -0.328   0.158  0.00  0.00    +0.019 C 
ENDROOT
BRANCH   1   2
ATOM      2  C   UNL     1      -2.147   0.173  -1.089  0.00  0.00    +0.200 C 
ATOM      3  O   UNL     1      -2.548  -0.614  -1.919  0.00  0.00    -0.278 OA
ATOM      4  N   UNL     1      -2.312   1.497  -1.281  0.00  0.00    -0.312 N 
ATOM      5  H   UNL     1      -1.925   2.130  -0.655  0.00  0.00    +0.149 HD
BRANCH   4   6
ATOM      6  C   UNL     1      -3.076   1.981  -2.433  0.00  0.00    +0.026 C 
ATOM      7  C   UNL     1      -4.504   1.437  -2.364  0.00  0.00    +0.031 C 
ATOM      8  C   UNL     1      -3.111   3.510  -2.417  0.00  0.00    +0.031 C 
ATOM      9  C   UNL     1      -2.410   1.500  -3.724  0.00  0.00    +0.031 C 
ENDBRANCH   4   6
ENDBRANCH   1   2
BRANCH   1  11
ATOM     10  C   UNL     1       0.525  -0.827  -1.267  0.00  0.00    +0.006 C 
ATOM     11  C   UNL     1       0.048  -0.149   0.019  0.00  0.00    -0.023 C 
ATOM     12  C   UNL     1       0.382   1.343  -0.037  0.00  0.00    +0.006 C 
ENDBRANCH   1  11
BRANCH   1  13
ATOM     13  N   UNL     1      -1.775  -1.752   0.346  0.00  0.00    +0.390 N 
ATOM     14  H   UNL     1      -2.775  -1.884   0.328  0.00  0.00    -0.084 HD
ATOM     15  H   UNL     1      -1.351  -2.289  -0.395  0.00  0.00    -0.084 HD
BRANCH  13  16
ATOM     16  C   UNL     1      -1.245  -2.201   1.641  0.00  0.00    -0.038 C 
BRANCH  16  17
ATOM     17  C   UNL     1      -1.470  -3.684   1.788  0.00  0.00    -0.026 A 
ATOM     18  C   UNL     1      -0.660  -4.710   1.430  0.00  0.00    +0.010 A 
ATOM     19  C   UNL     1      -1.077  -6.007   1.664  0.00  0.00    +0.023 A 
ATOM     20  C   UNL     1      -2.284  -6.214   2.246  0.00  0.00    +0.055 A 
ATOM     21  S   UNL     1      -2.868  -4.544   2.488  0.00  0.00    -0.088 S 
ATOM     22 BR   UNL     1      -3.127  -7.847   2.692  0.00  0.00    -0.043 Br
ENDBRANCH  16  17
ENDBRANCH  13  16
ENDBRANCH   1  13
TORSDOF 6
