REMARK  Name = ZINC22149238
REMARK  12 active torsions:
REMARK  status: ('A' for Active; 'I' for Inactive)
REMARK    1  A    between atoms: C_1  and  C_2
REMARK    2  A    between atoms: C_2  and  C_3
REMARK    3  A    between atoms: C_2  and  C_4
REMARK    4  A    between atoms: C_2  and  C_18
REMARK    5  A    between atoms: C_4  and  N_5
REMARK    6  A    between atoms: N_5  and  S_6
REMARK    7  A    between atoms: S_6  and  C_9
REMARK    8  A    between atoms: C_13  and  C_15
REMARK    9  A    between atoms: C_15  and  N_17
REMARK   10  A    between atoms: C_18  and  N_19
REMARK   11  A    between atoms: N_19  and  C_20
REMARK   12  A    between atoms: N_19  and  C_21
REMARK                            x       y       z     vdW  Elec       q    Type
REMARK                         _______ _______ _______ _____ _____    ______ ____
ROOT
ATOM      1  S   UNL     1      -1.412   2.279   0.900  0.00  0.00    +0.058 S 
ATOM      2  O   UNL     1      -2.422   1.307   1.137  0.00  0.00    -0.153 OA
ATOM      3  O   UNL     1      -1.127   3.321   1.823  0.00  0.00    -0.153 OA
ENDROOT
BRANCH   1   4
ATOM      4  C   UNL     1      -1.810   3.055  -0.631  0.00  0.00    +0.106 A 
ATOM      5  C   UNL     1      -1.347   4.332  -0.898  0.00  0.00    +0.028 A 
ATOM      6  C   UNL     1      -1.650   4.947  -2.099  0.00  0.00    +0.003 A 
ATOM      7  C   UNL     1      -2.426   4.295  -3.035  0.00  0.00    +0.010 A 
ATOM      8  C   UNL     1      -2.901   3.009  -2.770  0.00  0.00    +0.005 A 
ATOM      9  C   UNL     1      -2.586   2.392  -1.558  0.00  0.00    +0.038 A 
BRANCH   8  10
ATOM     10  C   UNL     1      -3.732   2.306  -3.767  0.00  0.00    +0.077 C 
ATOM     11  S   UNL     1      -4.995   1.272  -3.252  0.00  0.00    -0.035 S 
BRANCH  10  12
ATOM     12  N   UNL     1      -3.496   2.478  -5.083  0.00  0.00    -0.352 N 
ATOM     13  H   UNL     1      -4.115   1.953  -5.826  0.00  0.00    +0.143 HD
ATOM     14  H   UNL     1      -2.684   3.142  -5.414  0.00  0.00    +0.143 HD
ENDBRANCH  10  12
ENDBRANCH   8  10
ENDBRANCH   1   4
BRANCH   1  15
ATOM     15  N   UNL     1       0.002   1.446   0.674  0.00  0.00    -0.190 NA
ATOM     16  H   UNL     1      -0.027   0.350   0.588  0.00  0.00    +0.148 HD
BRANCH  15  17
ATOM     17  C   UNL     1       1.239   2.172   0.375  0.00  0.00    +0.110 C 
BRANCH  17  19
ATOM     18  C   UNL     1       2.469   0.755   2.025  0.00  0.00    +0.010 C 
ATOM     19  C   UNL     1       2.437   1.242   0.574  0.00  0.00    -0.036 C 
ATOM     20  C   UNL     1       2.311   0.040  -0.364  0.00  0.00    +0.010 C 
BRANCH  19  21
ATOM     21  C   UNL     1       3.729   1.999   0.262  0.00  0.00    -0.072 C 
BRANCH  21  22
ATOM     22  N   UNL     1       4.884   1.146   0.570  0.00  0.00    +0.376 N 
ATOM     23  C   UNL     1       5.209   0.270  -0.563  0.00  0.00    -0.097 C 
ATOM     24  C   UNL     1       6.046   1.955   0.961  0.00  0.00    -0.097 C 
ATOM     25  H   UNL     1       4.614   0.508   1.425  0.00  0.00    -0.083 HD
ENDBRANCH  21  22
ENDBRANCH  19  21
ENDBRANCH  17  19
ENDBRANCH  15  17
ENDBRANCH   1  15
TORSDOF 8
