REMARK  Name = ZINC50516344
REMARK  6 active torsions:
REMARK  status: ('A' for Active; 'I' for Inactive)
REMARK    1  A    between atoms: C_3  and  N_20
REMARK    2  A    between atoms: C_4  and  O_9
REMARK    3  A    between atoms: C_6  and  C_7
REMARK    4  A    between atoms: C_7  and  N_8
REMARK    5  A    between atoms: O_9  and  C_10
REMARK    6  A    between atoms: C_17  and  O_19
REMARK                            x       y       z     vdW  Elec       q    Type
REMARK                         _______ _______ _______ _____ _____    ______ ____
ROOT
ATOM      1  C   UNL     1      -0.010   1.385   0.112  0.00  0.00    +0.004 A 
ATOM      2  C   UNL     1       1.160   2.078  -0.142  0.00  0.00    +0.036 A 
ATOM      3  C   UNL     1       2.365   1.404  -0.192  0.00  0.00    +0.168 A 
ATOM      4  C   UNL     1       2.401   0.033   0.012  0.00  0.00    +0.151 A 
ATOM      5  C   UNL     1       1.226  -0.660   0.267  0.00  0.00    +0.049 A 
ATOM      6  C   UNL     1       0.023   0.018   0.316  0.00  0.00    -0.061 A 
ENDROOT
BRANCH   3   7
ATOM      7  N   UNL     1       3.617   2.146  -0.464  0.00  0.00    +0.060 N 
ATOM      8  O   UNL     1       3.585   3.341  -0.643  0.00  0.00    -0.126 OA
ATOM      9  O   UNL     1       4.671   1.556  -0.508  0.00  0.00    -0.126 OA
ENDBRANCH   3   7
BRANCH   6  10
ATOM     10  C   UNL     1      -1.254  -0.733   0.592  0.00  0.00    -0.050 C 
BRANCH  10  11
ATOM     11  N   UNL     1      -1.840  -1.184  -0.677  0.00  0.00    +0.381 N 
ATOM     12  H   UNL     1      -2.040  -0.384  -1.259  0.00  0.00    -0.090 HD
ATOM     13  H   UNL     1      -1.189  -1.791  -1.152  0.00  0.00    -0.090 HD
ATOM     14  H   UNL     1      -2.695  -1.687  -0.492  0.00  0.00    -0.090 HD
ENDBRANCH  10  11
ENDBRANCH   6  10
BRANCH   4  15
ATOM     15  O   UNL     1       3.586  -0.632  -0.037  0.00  0.00    -0.482 OA
BRANCH  15  16
ATOM     16  C   UNL     1       3.535  -2.056   0.066  0.00  0.00    +0.224 C 
ATOM     17  C   UNL     1       3.431  -2.439   1.560  0.00  0.00    +0.213 C 
ATOM     18  S   UNL     1       4.462  -3.970   1.612  0.00  0.00    -0.025 S 
ATOM     19  O   UNL     1       5.148  -4.033   2.855  0.00  0.00    -0.174 OA
ATOM     20  O   UNL     1       3.684  -5.076   1.179  0.00  0.00    -0.174 OA
ATOM     21  C   UNL     1       5.652  -3.498   0.281  0.00  0.00    +0.201 C 
ATOM     22  C   UNL     1       4.755  -2.638  -0.632  0.00  0.00    +0.177 C 
BRANCH  22  23
ATOM     23  O   UNL     1       4.314  -3.445  -1.725  0.00  0.00    -0.386 OA
ATOM     24  H   UNL     1       5.032  -3.856  -2.226  0.00  0.00    +0.210 HD
ENDBRANCH  22  23
ENDBRANCH  15  16
ENDBRANCH   4  15
TORSDOF 6
