REMARK  Name = ZINC51965264
REMARK  12 active torsions:
REMARK  status: ('A' for Active; 'I' for Inactive)
REMARK    1  A    between atoms: C_1  and  C_2
REMARK    2  A    between atoms: C_2  and  C_4
REMARK    3  A    between atoms: C_2  and  N_16
REMARK    4  A    between atoms: C_7  and  N_10
REMARK    5  A    between atoms: C_11  and  C_13
REMARK    6  A    between atoms: C_17  and  C_19
REMARK    7  A    between atoms: C_19  and  N_20
REMARK    8  A    between atoms: N_20  and  C_21
REMARK    9  A    between atoms: C_21  and  C_23
REMARK   10  A    between atoms: C_21  and  C_28
REMARK   11  A    between atoms: C_28  and  C_29
REMARK   12  A    between atoms: C_28  and  C_30
REMARK                            x       y       z     vdW  Elec       q    Type
REMARK                         _______ _______ _______ _____ _____    ______ ____
ROOT
ATOM      1  N   UNL     1       1.014  -0.486  -1.308  0.00  0.00    -0.310 N 
ATOM      2  C   UNL     1       0.178  -0.621  -2.356  0.00  0.00    +0.196 C 
ATOM      3  O   UNL     1      -0.989  -0.308  -2.245  0.00  0.00    -0.278 OA
ATOM      4  H   UNL     1       1.947  -0.736  -1.396  0.00  0.00    +0.149 HD
ENDROOT
BRANCH   1   6
ATOM      5  C   UNL     1       0.543   1.568  -0.067  0.00  0.00    +0.033 C 
ATOM      6  C   UNL     1       0.514   0.038  -0.035  0.00  0.00    +0.100 C 
BRANCH   6   7
ATOM      7  C   UNL     1       1.386  -0.457   1.090  0.00  0.00    -0.027 A 
ATOM      8  C   UNL     1       2.758  -0.515   0.925  0.00  0.00    +0.007 A 
ATOM      9  C   UNL     1       3.560  -0.969   1.954  0.00  0.00    +0.023 A 
ATOM     10  C   UNL     1       2.988  -1.367   3.155  0.00  0.00    +0.033 A 
ATOM     11  C   UNL     1       1.610  -1.307   3.317  0.00  0.00    +0.023 A 
ATOM     12  C   UNL     1       0.814  -0.848   2.287  0.00  0.00    +0.007 A 
BRANCH  10  13
ATOM     13  N   UNL     1       3.797  -1.827   4.199  0.00  0.00    -0.285 N 
ATOM     14  C   UNL     1       5.033  -1.317   4.369  0.00  0.00    +0.220 C 
ATOM     15  O   UNL     1       5.409  -0.394   3.677  0.00  0.00    -0.275 OA
ATOM     16  H   UNL     1       3.469  -2.514   4.801  0.00  0.00    +0.155 HD
BRANCH  14  17
ATOM     17  C   UNL     1       5.948  -1.892   5.419  0.00  0.00    +0.075 C 
ATOM     18  C   UNL     1       6.272  -1.015   6.631  0.00  0.00    +0.013 C 
ATOM     19  C   UNL     1       7.338  -1.269   5.563  0.00  0.00    +0.013 C 
ENDBRANCH  14  17
ENDBRANCH  10  13
ENDBRANCH   6   7
ENDBRANCH   1   6
BRANCH   2  20
ATOM     20  C   UNL     1       0.692  -1.161  -3.666  0.00  0.00    +0.016 C 
BRANCH  20  21
ATOM     21  N   UNL     1      -0.406  -1.210  -4.640  0.00  0.00    +0.390 N 
ATOM     22  H   UNL     1      -1.172  -1.743  -4.258  0.00  0.00    -0.084 HD
ATOM     23  H   UNL     1      -0.718  -0.272  -4.843  0.00  0.00    -0.084 HD
BRANCH  21  24
ATOM     24  C   UNL     1       0.065  -1.847  -5.877  0.00  0.00    -0.031 C 
BRANCH  24  25
ATOM     25  C   UNL     1       1.112  -0.977  -6.523  0.00  0.00    -0.024 A 
ATOM     26  C   UNL     1       2.261  -1.342  -7.143  0.00  0.00    +0.009 A 
ATOM     27  C   UNL     1       3.080  -0.360  -7.669  0.00  0.00    +0.008 A 
ATOM     28  C   UNL     1       2.709   0.938  -7.551  0.00  0.00    +0.045 A 
ATOM     29  S   UNL     1       1.158   0.801  -6.678  0.00  0.00    -0.103 S 
ENDBRANCH  24  25
BRANCH  24  30
ATOM     30  C   UNL     1      -1.112  -2.027  -6.838  0.00  0.00    -0.027 C 
ATOM     31  C   UNL     1      -0.631  -2.735  -8.107  0.00  0.00    +0.006 C 
ATOM     32  C   UNL     1      -2.196  -2.871  -6.164  0.00  0.00    +0.006 C 
ENDBRANCH  24  30
ENDBRANCH  21  24
ENDBRANCH  20  21
ENDBRANCH   2  20
TORSDOF 9
