REMARK  Name = ZINC06320799
REMARK  16 active torsions:
REMARK  status: ('A' for Active; 'I' for Inactive)
REMARK    1  A    between atoms: C_1  and  C_2
REMARK    2  A    between atoms: C_6  and  C_15
REMARK    3  A    between atoms: C_13  and  C_14
REMARK    4  A    between atoms: C_15  and  N_16
REMARK    5  A    between atoms: N_16  and  C_17
REMARK    6  A    between atoms: N_16  and  C_26
REMARK    7  A    between atoms: C_17  and  C_18
REMARK    8  A    between atoms: C_21  and  O_24
REMARK    9  A    between atoms: O_24  and  C_25
REMARK   10  A    between atoms: C_26  and  N_28
REMARK   11  A    between atoms: N_28  and  C_29
REMARK   12  A    between atoms: C_29  and  C_30
REMARK   13  A    between atoms: C_30  and  C_31
REMARK   14  A    between atoms: C_31  and  N_67
REMARK   15  A    between atoms: C_32  and  N_67
REMARK   16  A    between atoms: C_33  and  N_67
REMARK                            x       y       z     vdW  Elec       q    Type
REMARK                         _______ _______ _______ _____ _____    ______ ____
ROOT
ATOM      1  N   UNL     1      -5.531   3.864  -1.308  0.00  0.00    -0.304 N 
ENDROOT
BRANCH   1   2
ATOM      2  C   UNL     1      -6.328   2.862  -1.730  0.00  0.00    +0.133 C 
ATOM      3  S   UNL     1      -6.822   1.643  -0.634  0.00  0.00    -0.019 S 
BRANCH   2   4
ATOM      4  N   UNL     1      -6.735   2.820  -3.014  0.00  0.00    -0.326 N 
ATOM      5  H   UNL     1      -6.455   3.510  -3.634  0.00  0.00    +0.148 HD
BRANCH   4   6
ATOM      6  C   UNL     1      -7.602   1.731  -3.472  0.00  0.00    +0.101 C 
BRANCH   6   7
ATOM      7  C   UNL     1      -7.914   1.919  -4.958  0.00  0.00    +0.000 C 
BRANCH   7   8
ATOM      8  C   UNL     1      -8.819   0.781  -5.436  0.00  0.00    -0.078 C 
BRANCH   8  11
ATOM      9  C   UNL     1      -7.907   0.811  -7.679  0.00  0.00    -0.097 C 
ATOM     10  C   UNL     1     -10.169   0.032  -7.302  0.00  0.00    -0.097 C 
ATOM     11  N   UNL     1      -9.129   0.989  -6.867  0.00  0.00    +0.376 N 
ATOM     12  H   UNL     1      -9.481   1.945  -6.997  0.00  0.00    -0.083 HD
ENDBRANCH   8  11
ENDBRANCH   7   8
ENDBRANCH   6   7
ENDBRANCH   4   6
ENDBRANCH   2   4
ENDBRANCH   1   2
BRANCH   1  13
ATOM     13  C   UNL     1      -5.003   3.854   0.058  0.00  0.00    +0.147 C 
BRANCH  13  19
ATOM     14  C   UNL     1     -10.647   4.270   4.914  0.00  0.00    +0.044 C 
ATOM     15  C   UNL     1      -9.565   4.928   4.097  0.00  0.00    -0.047 A 
ATOM     16  C   UNL     1      -8.758   4.164   3.303  0.00  0.00    +0.013 A 
ATOM     17  C   UNL     1      -7.753   4.774   2.545  0.00  0.00    -0.001 A 
ATOM     18  C   UNL     1      -6.870   3.986   1.683  0.00  0.00    +0.020 A 
ATOM     19  C   UNL     1      -5.925   4.635   0.959  0.00  0.00    +0.035 A 
ATOM     20  C   UNL     1      -5.793   6.037   1.054  0.00  0.00    +0.254 A 
ATOM     21  O   UNL     1      -4.930   6.598   0.402  0.00  0.00    -0.268 OA
ATOM     22  N   UNL     1      -6.596   6.768   1.847  0.00  0.00    -0.322 N 
ATOM     23  H   UNL     1      -6.479   7.730   1.889  0.00  0.00    +0.169 HD
ATOM     24  C   UNL     1      -7.584   6.171   2.600  0.00  0.00    +0.049 A 
ATOM     25  C   UNL     1      -8.415   6.927   3.420  0.00  0.00    +0.030 A 
ATOM     26  C   UNL     1      -9.398   6.304   4.159  0.00  0.00    -0.046 A 
ATOM     27  C   UNL     1     -10.301   7.126   5.042  0.00  0.00    +0.044 C 
ENDBRANCH  13  19
ENDBRANCH   1  13
BRANCH   1  28
ATOM     28  C   UNL     1      -5.193   4.962  -2.216  0.00  0.00    +0.142 C 
BRANCH  28  29
ATOM     29  C   UNL     1      -3.881   4.667  -2.896  0.00  0.00    -0.030 A 
ATOM     30  C   UNL     1      -2.691   4.994  -2.272  0.00  0.00    +0.009 A 
ATOM     31  C   UNL     1      -1.487   4.719  -2.890  0.00  0.00    +0.046 A 
ATOM     32  C   UNL     1      -1.472   4.124  -4.143  0.00  0.00    +0.120 A 
ATOM     33  C   UNL     1      -2.667   3.802  -4.770  0.00  0.00    +0.046 A 
ATOM     34  C   UNL     1      -3.868   4.074  -4.145  0.00  0.00    +0.009 A 
BRANCH  32  35
ATOM     35  O   UNL     1      -0.288   3.857  -4.756  0.00  0.00    -0.495 OA
ATOM     36  C   UNL     1       0.902   4.216  -4.051  0.00  0.00    +0.277 C 
ENDBRANCH  32  35
ENDBRANCH  28  29
ENDBRANCH   1  28
TORSDOF 11
