REMARK  Name = ZINC45551600
REMARK  9 active torsions:
REMARK  status: ('A' for Active; 'I' for Inactive)
REMARK    1  A    between atoms: C_1  and  C_2
REMARK    2  A    between atoms: C_2  and  C_3
REMARK    3  A    between atoms: C_2  and  N_4
REMARK    4  A    between atoms: N_4  and  C_5
REMARK    5  A    between atoms: C_5  and  C_6
REMARK    6  A    between atoms: C_5  and  C_7
REMARK    7  A    between atoms: C_5  and  C_16
REMARK    8  A    between atoms: C_7  and  S_8
REMARK    9  A    between atoms: S_8  and  C_9
REMARK                            x       y       z     vdW  Elec       q    Type
REMARK                         _______ _______ _______ _____ _____    ______ ____
ROOT
ATOM      1  C   UNL     1      -1.845  -1.303   0.507  0.00  0.00    +0.017 C 
ATOM      2  C   UNL     1      -1.626  -2.474  -0.453  0.00  0.00    +0.000 C 
ENDROOT
BRANCH   1   3
ATOM      3  C   UNL     1      -1.264  -1.644   1.856  0.00  0.00    +0.200 C 
ATOM      4  O   UNL     1      -1.001  -2.796   2.129  0.00  0.00    -0.278 OA
ATOM      5  N   UNL     1      -1.038  -0.669   2.758  0.00  0.00    -0.330 N 
ATOM      6  H   UNL     1      -1.248   0.252   2.540  0.00  0.00    +0.145 HD
ATOM      7  H   UNL     1      -0.664  -0.889   3.626  0.00  0.00    +0.145 HD
ENDBRANCH   1   3
BRANCH   1   8
ATOM      8  N   UNL     1      -1.180  -0.105  -0.023  0.00  0.00    +0.390 N 
ATOM      9  H   UNL     1      -1.226   0.635   0.661  0.00  0.00    -0.084 HD
ATOM     10  H   UNL     1      -1.644   0.190  -0.869  0.00  0.00    -0.084 HD
BRANCH   8  12
ATOM     11  C   UNL     1       0.867   0.771  -1.041  0.00  0.00    -0.014 C 
ATOM     12  C   UNL     1       0.225  -0.414  -0.317  0.00  0.00    -0.077 C 
ATOM     13  C   UNL     1       0.974  -0.678   0.991  0.00  0.00    -0.014 C 
ENDBRANCH   8  12
ENDBRANCH   1   8
BRANCH   1  14
ATOM     14  C   UNL     1      -3.344  -1.034   0.651  0.00  0.00    +0.071 C 
BRANCH  14  15
ATOM     15  S   UNL     1      -4.070  -0.769  -0.990  0.00  0.00    -0.126 S 
BRANCH  15  16
ATOM     16  C   UNL     1      -5.776  -0.476  -0.659  0.00  0.00    +0.008 A 
ATOM     17  C   UNL     1      -6.243  -0.486   0.649  0.00  0.00    +0.016 A 
ATOM     18  C   UNL     1      -7.580  -0.255   0.906  0.00  0.00    +0.016 A 
ATOM     19  C   UNL     1      -8.455  -0.015  -0.139  0.00  0.00    +0.018 A 
ATOM     20  C   UNL     1      -7.993  -0.004  -1.444  0.00  0.00    +0.016 A 
ATOM     21  C   UNL     1      -6.656  -0.229  -1.706  0.00  0.00    +0.016 A 
ATOM     22 BR   UNL     1     -10.285   0.300   0.216  0.00  0.00    -0.050 Br
ENDBRANCH  15  16
ENDBRANCH  14  15
ENDBRANCH   1  14
TORSDOF 6
