REMARK  Name = ZINC14957775
REMARK  7 active torsions:
REMARK  status: ('A' for Active; 'I' for Inactive)
REMARK    1  A    between atoms: C_6  and  C_7
REMARK    2  A    between atoms: C_7  and  O_19
REMARK    3  A    between atoms: C_12  and  C_13
REMARK    4  A    between atoms: C_12  and  N_68
REMARK    5  A    between atoms: C_21  and  C_23
REMARK    6  A    between atoms: N_25  and  C_26
REMARK    7  A    between atoms: C_26  and  C_27
REMARK                            x       y       z     vdW  Elec       q    Type
REMARK                         _______ _______ _______ _____ _____    ______ ____
ROOT
ATOM      1  C   UNL     1       4.696   0.127   5.043  0.00  0.00    +0.010 A 
ATOM      2  C   UNL     1       5.244  -0.208   6.262  0.00  0.00    +0.047 A 
ATOM      3  C   UNL     1       5.821  -1.459   6.441  0.00  0.00    +0.136 A 
ATOM      4  C   UNL     1       5.831  -2.370   5.368  0.00  0.00    +0.021 A 
ATOM      5  C   UNL     1       5.266  -2.013   4.142  0.00  0.00    +0.018 A 
ATOM      6  C   UNL     1       4.704  -0.776   3.989  0.00  0.00    -0.015 A 
ATOM      7  C   UNL     1       6.497  -3.570   5.872  0.00  0.00    +0.063 A 
ATOM      8  C   UNL     1       6.827  -3.303   7.163  0.00  0.00    +0.190 A 
ATOM      9  O   UNL     1       6.423  -2.057   7.488  0.00  0.00    -0.450 OA
ENDROOT
BRANCH   6  10
ATOM     10  C   UNL     1       4.095  -0.389   2.667  0.00  0.00    +0.088 C 
ATOM     11  C   UNL     1       4.221   1.124   2.468  0.00  0.00    +0.021 C 
ATOM     12  C   UNL     1       3.548   1.519   1.151  0.00  0.00    -0.076 C 
ATOM     13  C   UNL     1       1.987  -0.325   1.330  0.00  0.00    -0.076 C 
ATOM     14  C   UNL     1       2.613  -0.775   2.651  0.00  0.00    +0.021 C 
ATOM     15  N   UNL     1       2.120   1.142   1.211  0.00  0.00    +0.380 N 
ATOM     16  H   UNL     1       1.693   1.583   2.034  0.00  0.00    -0.082 HD
BRANCH  10  17
ATOM     17  O   UNL     1       4.776  -1.068   1.610  0.00  0.00    -0.384 OA
ATOM     18  H   UNL     1       4.737  -2.032   1.672  0.00  0.00    +0.211 HD
ENDBRANCH  10  17
BRANCH  15  19
ATOM     19  C   UNL     1       1.423   1.615  -0.003  0.00  0.00    -0.075 C 
BRANCH  19  20
ATOM     20  C   UNL     1      -0.021   1.111   0.024  0.00  0.00    -0.028 C 
ATOM     21  C   UNL     1      -0.734   1.669   1.257  0.00  0.00    +0.002 C 
ATOM     22  C   UNL     1      -2.179   1.165   1.283  0.00  0.00    +0.000 C 
ATOM     23  C   UNL     1      -2.905   1.631   0.020  0.00  0.00    +0.000 C 
ATOM     24  C   UNL     1      -2.192   1.073  -1.214  0.00  0.00    +0.000 C 
ATOM     25  C   UNL     1      -0.748   1.577  -1.240  0.00  0.00    +0.002 C 
ENDBRANCH  19  20
ENDBRANCH  15  19
ENDBRANCH   6  10
BRANCH   8  26
ATOM     26  C   UNL     1       7.518  -4.231   8.069  0.00  0.00    +0.279 C 
ATOM     27  O   UNL     1       7.841  -5.337   7.676  0.00  0.00    -0.267 OA
ATOM     28  N   UNL     1       7.794  -3.858   9.334  0.00  0.00    -0.306 N 
ATOM     29  H   UNL     1       7.537  -2.977   9.647  0.00  0.00    +0.149 HD
BRANCH  28  30
ATOM     30  C   UNL     1       8.483  -4.784  10.236  0.00  0.00    +0.136 C 
BRANCH  30  31
ATOM     31  C   UNL     1       8.673  -4.119  11.601  0.00  0.00    +0.135 C 
ATOM     32  C   UNL     1       9.397  -5.084  12.559  0.00  0.00    +0.035 C 
ATOM     33  C   UNL     1      10.674  -4.317  12.978  0.00  0.00    +0.031 C 
ATOM     34  C   UNL     1      10.285  -2.848  12.673  0.00  0.00    +0.160 C 
ATOM     35  O   UNL     1       9.500  -2.951  11.465  0.00  0.00    -0.375 OA
ENDBRANCH  30  31
ENDBRANCH  28  30
ENDBRANCH   8  26
TORSDOF 7
