REMARK  Name = ZINC67632932
REMARK  12 active torsions:
REMARK  status: ('A' for Active; 'I' for Inactive)
REMARK    1  A    between atoms: C_1  and  C_2
REMARK    2  A    between atoms: C_2  and  C_3
REMARK    3  A    between atoms: C_2  and  C_4
REMARK    4  A    between atoms: C_4  and  C_6
REMARK    5  A    between atoms: C_4  and  N_19
REMARK    6  A    between atoms: N_8  and  C_9
REMARK    7  A    between atoms: C_9  and  C_10
REMARK    8  A    between atoms: N_14  and  C_16
REMARK    9  A    between atoms: C_16  and  C_17
REMARK   10  A    between atoms: C_16  and  C_18
REMARK   11  A    between atoms: N_22  and  C_23
REMARK   12  A    between atoms: C_23  and  C_24
REMARK                            x       y       z     vdW  Elec       q    Type
REMARK                         _______ _______ _______ _____ _____    ______ ____
ROOT
ATOM      1  C   UNL     1      -1.331  -0.567  -0.124  0.00  0.00    +0.163 C 
ENDROOT
BRANCH   1   2
ATOM      2  N   UNL     1      -2.351  -0.282  -1.136  0.00  0.00    -0.288 N 
ATOM      3  C   UNL     1      -2.969   0.916  -1.151  0.00  0.00    +0.300 C 
ATOM      4  O   UNL     1      -2.679   1.760  -0.324  0.00  0.00    -0.253 OA
ATOM      5  N   UNL     1      -3.908   1.178  -2.081  0.00  0.00    -0.295 N 
ATOM      6  H   UNL     1      -2.582  -0.955  -1.795  0.00  0.00    +0.151 HD
ATOM      7  H   UNL     1      -4.139   0.505  -2.740  0.00  0.00    +0.151 HD
BRANCH   5   8
ATOM      8  C   UNL     1      -4.579   2.480  -2.097  0.00  0.00    +0.141 C 
BRANCH   8   9
ATOM      9  C   UNL     1      -5.576   2.517  -3.227  0.00  0.00    -0.030 A 
ATOM     10  C   UNL     1      -5.187   2.956  -4.478  0.00  0.00    +0.005 A 
ATOM     11  C   UNL     1      -6.102   2.990  -5.514  0.00  0.00    +0.000 A 
ATOM     12  C   UNL     1      -7.406   2.585  -5.298  0.00  0.00    +0.000 A 
ATOM     13  C   UNL     1      -7.795   2.145  -4.047  0.00  0.00    +0.000 A 
ATOM     14  C   UNL     1      -6.879   2.107  -3.012  0.00  0.00    +0.005 A 
ENDBRANCH   8   9
ENDBRANCH   5   8
ENDBRANCH   1   2
BRANCH   1  15
ATOM     15  C   UNL     1      -1.241  -2.056   0.093  0.00  0.00    +0.234 C 
ATOM     16  O   UNL     1      -1.648  -2.818  -0.757  0.00  0.00    -0.274 OA
ATOM     17  N   UNL     1      -0.708  -2.540   1.233  0.00  0.00    -0.314 N 
ATOM     18  H   UNL     1      -0.317  -1.933   1.881  0.00  0.00    +0.149 HD
BRANCH  17  19
ATOM     19  C   UNL     1      -0.721  -3.981   1.493  0.00  0.00    +0.106 C 
BRANCH  19  20
ATOM     20  C   UNL     1      -0.060  -4.262   2.844  0.00  0.00    -0.012 C 
ATOM     21  C   UNL     1       1.466  -3.989   2.783  0.00  0.00    -0.015 C 
ATOM     22  C   UNL     1       2.029  -4.915   3.882  0.00  0.00    -0.078 C 
ATOM     23  N   UNL     1       1.038  -5.984   4.102  0.00  0.00    +0.381 N 
ATOM     24  C   UNL     1      -0.095  -5.774   3.176  0.00  0.00    -0.074 C 
ATOM     25  H   UNL     1       0.708  -5.950   5.055  0.00  0.00    -0.081 HD
BRANCH  23  26
ATOM     26  C   UNL     1       1.655  -7.291   3.841  0.00  0.00    -0.075 C 
ATOM     27  C   UNL     1       2.818  -7.509   4.812  0.00  0.00    -0.014 C 
ATOM     28  C   UNL     1       0.614  -8.395   4.037  0.00  0.00    -0.014 C 
ENDBRANCH  23  26
ENDBRANCH  19  20
ENDBRANCH  17  19
ENDBRANCH   1  15
BRANCH   1  30
ATOM     29  C   UNL     1       0.337  -0.618  -1.984  0.00  0.00    +0.009 C 
ATOM     30  C   UNL     1       0.023  -0.039  -0.603  0.00  0.00    +0.012 C 
ATOM     31  C   UNL     1      -0.026   1.488  -0.689  0.00  0.00    +0.009 C 
ENDBRANCH   1  30
TORSDOF 8
