REMARK  Name = ZINC41513563
REMARK  13 active torsions:
REMARK  status: ('A' for Active; 'I' for Inactive)
REMARK    1  A    between atoms: C_1  and  C_2
REMARK    2  A    between atoms: C_4  and  O_31
REMARK    3  A    between atoms: C_5  and  C_21
REMARK    4  A    between atoms: C_11  and  C_12
REMARK    5  A    between atoms: C_21  and  N_22
REMARK    6  A    between atoms: N_22  and  C_23
REMARK    7  A    between atoms: N_22  and  C_27
REMARK    8  A    between atoms: C_23  and  C_24
REMARK    9  A    between atoms: C_24  and  C_25
REMARK   10  A    between atoms: C_24  and  C_26
REMARK   11  A    between atoms: C_27  and  C_28
REMARK   12  A    between atoms: C_28  and  C_29
REMARK   13  A    between atoms: C_28  and  C_30
REMARK                            x       y       z     vdW  Elec       q    Type
REMARK                         _______ _______ _______ _____ _____    ______ ____
ROOT
ATOM      1  C   UNL     1      -0.461   1.460   0.224  0.00  0.00    +0.045 C 
ATOM      2  C   UNL     1      -0.314  -0.036   0.122  0.00  0.00    -0.033 A 
ATOM      3  C   UNL     1      -0.107  -0.622  -1.095  0.00  0.00    +0.050 A 
ATOM      4  C   UNL     1       0.029  -2.004  -1.192  0.00  0.00    +0.122 A 
ATOM      5  C   UNL     1      -0.044  -2.800  -0.061  0.00  0.00    +0.020 A 
ATOM      6  C   UNL     1      -0.253  -2.221   1.185  0.00  0.00    +0.145 A 
ATOM      7  C   UNL     1      -0.383  -0.825   1.270  0.00  0.00    +0.071 A 
ATOM      8  C   UNL     1      -0.585  -0.514   2.697  0.00  0.00    +0.232 C 
ATOM      9  O   UNL     1      -0.746   0.582   3.206  0.00  0.00    -0.283 OA
ATOM     10  C   UNL     1      -0.549  -1.821   3.369  0.00  0.00    +0.176 C 
ATOM     11  C   UNL     1      -0.692  -2.043   4.700  0.00  0.00    +0.062 C 
ATOM     12  O   UNL     1      -0.361  -2.765   2.416  0.00  0.00    -0.451 OA
ENDROOT
BRANCH  11  13
ATOM     13  C   UNL     1      -0.905  -0.914   5.614  0.00  0.00    +0.032 A 
ATOM     14  C   UNL     1      -0.064   0.207   5.558  0.00  0.00    +0.132 A 
ATOM     15  C   UNL     1      -0.273   1.265   6.422  0.00  0.00    +0.039 A 
ATOM     16  C   UNL     1      -1.307   1.220   7.339  0.00  0.00    +0.004 A 
ATOM     17  C   UNL     1      -2.142   0.117   7.401  0.00  0.00    +0.021 A 
ATOM     18  C   UNL     1      -1.953  -0.946   6.542  0.00  0.00    +0.051 A 
ATOM     19 CL   UNL     1      -3.006  -2.324   6.618  0.00  0.00    -0.083 Cl
ATOM     20  F   UNL     1       0.948   0.252   4.664  0.00  0.00    -0.205 F 
ENDBRANCH  11  13
BRANCH   4  21
ATOM     21  O   UNL     1       0.233  -2.576  -2.406  0.00  0.00    -0.506 OA
ATOM     22  H   UNL     1       1.165  -2.664  -2.647  0.00  0.00    +0.292 HD
ENDBRANCH   4  21
BRANCH   5  23
ATOM     23  C   UNL     1       0.104  -4.295  -0.181  0.00  0.00    -0.036 C 
BRANCH  23  24
ATOM     24  N   UNL     1       1.521  -4.659  -0.047  0.00  0.00    +0.383 N 
ATOM     25  H   UNL     1       2.066  -4.146  -0.723  0.00  0.00    -0.081 HD
BRANCH  24  26
ATOM     26  C   UNL     1       1.986  -4.330   1.308  0.00  0.00    -0.075 C 
BRANCH  26  27
ATOM     27  C   UNL     1       3.493  -4.577   1.404  0.00  0.00    -0.034 C 
ATOM     28  C   UNL     1       4.226  -3.631   0.451  0.00  0.00    +0.005 C 
ATOM     29  C   UNL     1       3.961  -4.319   2.838  0.00  0.00    +0.005 C 
ENDBRANCH  26  27
ENDBRANCH  24  26
BRANCH  24  30
ATOM     30  C   UNL     1       1.681  -6.100  -0.282  0.00  0.00    -0.075 C 
BRANCH  30  31
ATOM     31  C   UNL     1       1.331  -6.421  -1.737  0.00  0.00    -0.034 C 
ATOM     32  C   UNL     1       2.349  -5.755  -2.665  0.00  0.00    +0.005 C 
ATOM     33  C   UNL     1       1.365  -7.936  -1.947  0.00  0.00    +0.005 C 
ENDBRANCH  30  31
ENDBRANCH  24  30
ENDBRANCH  23  24
ENDBRANCH   5  23
TORSDOF 8
