REMARK  Name = ZINC65305832
REMARK  12 active torsions:
REMARK  status: ('A' for Active; 'I' for Inactive)
REMARK    1  A    between atoms: C_1  and  C_2
REMARK    2  A    between atoms: C_2  and  C_3
REMARK    3  A    between atoms: C_2  and  C_4
REMARK    4  A    between atoms: C_4  and  C_5
REMARK    5  A    between atoms: C_5  and  C_7
REMARK    6  A    between atoms: C_5  and  N_19
REMARK    7  A    between atoms: N_9  and  C_10
REMARK    8  A    between atoms: C_20  and  C_22
REMARK    9  A    between atoms: C_22  and  C_23
REMARK   10  A    between atoms: C_23  and  C_24
REMARK   11  A    between atoms: C_29  and  O_30
REMARK   12  A    between atoms: O_30  and  C_31
REMARK                            x       y       z     vdW  Elec       q    Type
REMARK                         _______ _______ _______ _____ _____    ______ ____
ROOT
ATOM      1  C   UNL     1      -0.042  -0.124   2.497  0.00  0.00    +0.159 C 
ENDROOT
BRANCH   1   2
ATOM      2  C   UNL     1       0.746  -0.514   3.721  0.00  0.00    +0.236 C 
ATOM      3  O   UNL     1       0.277  -1.297   4.520  0.00  0.00    -0.274 OA
ATOM      4  N   UNL     1       1.972   0.008   3.929  0.00  0.00    -0.277 N 
ATOM      5  H   UNL     1       2.346   0.634   3.290  0.00  0.00    +0.152 HD
BRANCH   4   6
ATOM      6  C   UNL     1       2.737  -0.372   5.118  0.00  0.00    +0.269 C 
ATOM      7  N   UNL     1       2.236   0.353   6.293  0.00  0.00    -0.348 N 
ATOM      8  C   UNL     1       3.217   1.072   6.757  0.00  0.00    +0.061 A 
ATOM      9  C   UNL     1       3.328   1.994   7.896  0.00  0.00    +0.027 A 
ATOM     10  C   UNL     1       4.501   2.612   8.138  0.00  0.00    +0.002 A 
ATOM     11  C   UNL     1       5.642   2.413   7.340  0.00  0.00    +0.002 A 
ATOM     12  C   UNL     1       5.648   1.590   6.273  0.00  0.00    +0.027 A 
ATOM     13  C   UNL     1       4.424   0.861   5.912  0.00  0.00    +0.061 A 
ATOM     14  N   UNL     1       4.143   0.021   4.959  0.00  0.00    -0.348 N 
ATOM     15  H   UNL     1       4.751  -0.290   4.270  0.00  0.00    +0.163 HD
ATOM     16  H   UNL     1       1.337   0.305   6.656  0.00  0.00    +0.163 HD
ENDBRANCH   4   6
ENDBRANCH   1   2
BRANCH   1  17
ATOM     17  N   UNL     1      -1.330  -0.821   2.503  0.00  0.00    -0.304 N 
ATOM     18  C   UNL     1      -2.382  -0.298   1.842  0.00  0.00    +0.214 C 
ATOM     19  O   UNL     1      -2.262   0.749   1.243  0.00  0.00    -0.276 OA
ATOM     20  H   UNL     1      -1.426  -1.658   2.983  0.00  0.00    +0.149 HD
BRANCH  18  21
ATOM     21  C   UNL     1      -3.708  -1.015   1.848  0.00  0.00    +0.100 C 
BRANCH  21  22
ATOM     22  C   UNL     1      -4.724  -0.215   1.030  0.00  0.00    +0.048 C 
BRANCH  22  23
ATOM     23  C   UNL     1      -6.049  -0.932   1.036  0.00  0.00    -0.005 A 
ATOM     24  C   UNL     1      -6.377  -1.788   0.002  0.00  0.00    +0.007 A 
ATOM     25  C   UNL     1      -7.593  -2.446   0.007  0.00  0.00    +0.000 A 
ATOM     26  C   UNL     1      -8.484  -2.250   1.046  0.00  0.00    +0.004 A 
ATOM     27  C   UNL     1      -8.161  -1.396   2.082  0.00  0.00    +0.046 A 
ATOM     28  C   UNL     1      -6.939  -0.738   2.083  0.00  0.00    +0.123 A 
BRANCH  28  29
ATOM     29  O   UNL     1      -6.616   0.098   3.104  0.00  0.00    -0.495 OA
ATOM     30  C   UNL     1      -7.580   0.250   4.148  0.00  0.00    +0.277 C 
ENDBRANCH  28  29
ENDBRANCH  22  23
ENDBRANCH  21  22
ENDBRANCH  18  21
ENDBRANCH   1  17
BRANCH   1  31
ATOM     31  C   UNL     1       0.742  -0.511   1.242  0.00  0.00    +0.034 C 
BRANCH  31  33
ATOM     32  C   UNL     1      -0.019   1.526   0.010  0.00  0.00    +0.007 C 
ATOM     33  C   UNL     1       0.002  -0.004   0.002  0.00  0.00    -0.015 C 
ATOM     34  C   UNL     1       0.718  -0.497  -1.257  0.00  0.00    +0.007 C 
ENDBRANCH  31  33
ENDBRANCH   1  31
TORSDOF 9
