REMARK  Name = ZINC15034148
REMARK  8 active torsions:
REMARK  status: ('A' for Active; 'I' for Inactive)
REMARK    1  A    between atoms: C_4  and  C_7
REMARK    2  A    between atoms: C_16  and  C_17
REMARK    3  A    between atoms: C_16  and  N_55
REMARK    4  A    between atoms: N_19  and  C_20
REMARK    5  A    between atoms: C_20  and  C_21
REMARK    6  A    between atoms: C_21  and  C_22
REMARK    7  A    between atoms: C_25  and  O_28
REMARK    8  A    between atoms: O_28  and  C_29
REMARK                            x       y       z     vdW  Elec       q    Type
REMARK                         _______ _______ _______ _____ _____    ______ ____
ROOT
ATOM      1  C   UNL     1       1.278   2.115   0.001  0.00  0.00    +0.020 C 
ENDROOT
BRANCH   1  10
ATOM      2  C   UNL     1       2.213   4.335   0.242  0.00  0.00    -0.005 C 
ATOM      3  C   UNL     1       1.857   5.818   0.220  0.00  0.00    -0.047 A 
ATOM      4  C   UNL     1       2.663   6.819   0.757  0.00  0.00    +0.010 A 
ATOM      5  C   UNL     1       2.269   8.112   0.694  0.00  0.00    +0.045 A 
ATOM      6  S   UNL     1       0.699   7.979  -0.149  0.00  0.00    -0.101 S 
ATOM      7  C   UNL     1       0.688   6.220  -0.353  0.00  0.00    -0.010 A 
ATOM      8  C   UNL     1      -0.338   5.345  -0.996  0.00  0.00    +0.024 C 
ATOM      9  C   UNL     1       0.300   3.963  -1.220  0.00  0.00    -0.072 C 
ATOM     10  N   UNL     1       0.968   3.557   0.040  0.00  0.00    +0.393 N 
ATOM     11  H   UNL     1       0.333   3.740   0.826  0.00  0.00    -0.080 HD
BRANCH   2  15
ATOM     12  C   UNL     1       3.874   3.307   4.042  0.00  0.00    +0.000 A 
ATOM     13  C   UNL     1       4.705   3.513   2.957  0.00  0.00    +0.000 A 
ATOM     14  C   UNL     1       4.168   3.846   1.727  0.00  0.00    +0.002 A 
ATOM     15  C   UNL     1       2.799   3.972   1.583  0.00  0.00    -0.057 A 
ATOM     16  C   UNL     1       1.968   3.771   2.669  0.00  0.00    +0.002 A 
ATOM     17  C   UNL     1       2.505   3.434   3.897  0.00  0.00    +0.000 A 
ENDBRANCH   2  15
ENDBRANCH   1  10
BRANCH   1  18
ATOM     18  C   UNL     1      -0.016   1.344   0.009  0.00  0.00    +0.197 C 
ATOM     19  O   UNL     1      -1.075   1.936   0.018  0.00  0.00    -0.278 OA
ATOM     20  N   UNL     1       0.002  -0.004   0.002  0.00  0.00    -0.317 N 
ATOM     21  H   UNL     1       0.849  -0.478  -0.009  0.00  0.00    +0.149 HD
BRANCH  20  22
ATOM     22  C   UNL     1      -1.256  -0.754   0.010  0.00  0.00    +0.109 C 
BRANCH  22  23
ATOM     23  C   UNL     1      -0.957  -2.254  -0.001  0.00  0.00    +0.054 C 
BRANCH  23  24
ATOM     24  C   UNL     1      -2.251  -3.025   0.007  0.00  0.00    -0.046 A 
ATOM     25  C   UNL     1      -2.830  -3.390   1.209  0.00  0.00    +0.007 A 
ATOM     26  C   UNL     1      -4.020  -4.092   1.219  0.00  0.00    +0.046 A 
ATOM     27  C   UNL     1      -4.628  -4.441   0.022  0.00  0.00    +0.127 A 
ATOM     28  C   UNL     1      -4.043  -4.079  -1.182  0.00  0.00    +0.046 A 
ATOM     29  C   UNL     1      -2.856  -3.372  -1.187  0.00  0.00    +0.007 A 
BRANCH  27  30
ATOM     30  O   UNL     1      -5.796  -5.136   0.030  0.00  0.00    -0.434 OA
BRANCH  30  31
ATOM     31  C   UNL     1      -6.341  -5.475   1.306  0.00  0.00    +0.541 C 
ATOM     32  F   UNL     1      -5.427  -6.268   2.009  0.00  0.00    -0.166 F 
ATOM     33  F   UNL     1      -6.596  -4.305   2.030  0.00  0.00    -0.166 F 
ENDBRANCH  30  31
ENDBRANCH  27  30
ENDBRANCH  23  24
ENDBRANCH  22  23
ENDBRANCH  20  22
ENDBRANCH   1  18
TORSDOF 8
