REMARK  Name = ZINC36847261
REMARK  10 active torsions:
REMARK  status: ('A' for Active; 'I' for Inactive)
REMARK    1  A    between atoms: C_1  and  C_2
REMARK    2  A    between atoms: C_2  and  O_3
REMARK    3  A    between atoms: O_3  and  C_4
REMARK    4  A    between atoms: C_7  and  N_10
REMARK    5  A    between atoms: N_10  and  C_11
REMARK    6  A    between atoms: C_11  and  N_13
REMARK    7  A    between atoms: N_13  and  C_14
REMARK    8  A    between atoms: C_14  and  C_15
REMARK    9  A    between atoms: C_15  and  S_16
REMARK   10  A    between atoms: S_16  and  N_19
REMARK                            x       y       z     vdW  Elec       q    Type
REMARK                         _______ _______ _______ _____ _____    ______ ____
ROOT
ATOM      1  C   UNL     1       2.129  -9.845  -4.377  0.00  0.00    +0.204 C 
ENDROOT
BRANCH   1   2
ATOM      2  S   UNL     1       2.810 -10.518  -5.918  0.00  0.00    +0.033 S 
ATOM      3  O   UNL     1       1.986 -10.155  -7.017  0.00  0.00    -0.158 OA
ATOM      4  O   UNL     1       4.214 -10.309  -5.965  0.00  0.00    -0.158 OA
BRANCH   2   5
ATOM      5  N   UNL     1       2.631 -12.159  -5.781  0.00  0.00    -0.178 NA
ATOM      6  C   UNL     1       3.689 -12.979  -5.174  0.00  0.00    +0.128 C 
ATOM      7  C   UNL     1       3.083 -13.787  -4.021  0.00  0.00    +0.123 C 
ATOM      8  N   UNL     1       1.863 -14.450  -4.503  0.00  0.00    -0.314 N 
ATOM      9  C   UNL     1       0.804 -13.631  -5.110  0.00  0.00    +0.123 C 
ATOM     10  C   UNL     1       1.409 -12.821  -6.258  0.00  0.00    +0.128 C 
ATOM     11  C   UNL     1       1.713 -15.827  -4.388  0.00  0.00    +0.099 A 
ATOM     12  C   UNL     1       2.661 -16.568  -3.689  0.00  0.00    +0.042 A 
ATOM     13  C   UNL     1       2.499 -17.937  -3.582  0.00  0.00    +0.005 A 
ATOM     14  C   UNL     1       1.391 -18.522  -4.180  0.00  0.00    +0.018 A 
ATOM     15  C   UNL     1       0.489 -17.727  -4.858  0.00  0.00    +0.084 A 
ATOM     16  N   UNL     1       0.666 -16.422  -4.939  0.00  0.00    -0.350 N 
ATOM     17  H   UNL     1       0.016 -15.885  -5.419  0.00  0.00    +0.166 HD
ENDBRANCH   2   5
ENDBRANCH   1   2
BRANCH   1  18
ATOM     18  C   UNL     1       2.243  -8.319  -4.394  0.00  0.00    +0.127 C 
BRANCH  18  19
ATOM     19  N   UNL     1       1.693  -7.775  -3.149  0.00  0.00    -0.325 N 
ATOM     20  H   UNL     1       1.333  -8.373  -2.476  0.00  0.00    +0.148 HD
BRANCH  19  21
ATOM     21  C   UNL     1       1.687  -6.444  -2.941  0.00  0.00    +0.135 C 
ATOM     22  S   UNL     1       2.321  -5.388  -4.130  0.00  0.00    -0.019 S 
BRANCH  21  23
ATOM     23  N   UNL     1       1.181  -5.943  -1.796  0.00  0.00    -0.297 N 
ATOM     24  H   UNL     1       0.895  -6.543  -1.089  0.00  0.00    +0.154 HD
BRANCH  23  28
ATOM     25  C   UNL     1       0.844  -1.818  -1.293  0.00  0.00    +0.121 A 
ATOM     26  C   UNL     1       0.511  -2.397  -2.508  0.00  0.00    +0.047 A 
ATOM     27  C   UNL     1       0.622  -3.764  -2.676  0.00  0.00    +0.027 A 
ATOM     28  C   UNL     1       1.068  -4.557  -1.627  0.00  0.00    +0.033 A 
ATOM     29  C   UNL     1       1.402  -3.976  -0.411  0.00  0.00    +0.027 A 
ATOM     30  C   UNL     1       1.294  -2.609  -0.246  0.00  0.00    +0.047 A 
BRANCH  25  31
ATOM     31  O   UNL     1       0.734  -0.472  -1.129  0.00  0.00    -0.492 OA
BRANCH  31  33
ATOM     32  C   UNL     1       0.207   1.764  -1.876  0.00  0.00    +0.048 C 
ATOM     33  C   UNL     1       0.264   0.281  -2.248  0.00  0.00    +0.225 C 
ENDBRANCH  31  33
ENDBRANCH  25  31
ENDBRANCH  23  28
ENDBRANCH  21  23
ENDBRANCH  19  21
ENDBRANCH  18  19
ENDBRANCH   1  18
TORSDOF 9
