REMARK  Name = ZINC66940162
REMARK  9 active torsions:
REMARK  status: ('A' for Active; 'I' for Inactive)
REMARK    1  A    between atoms: C_1  and  C_2
REMARK    2  A    between atoms: C_2  and  C_4
REMARK    3  A    between atoms: C_2  and  N_16
REMARK    4  A    between atoms: C_7  and  O_10
REMARK    5  A    between atoms: O_10  and  C_11
REMARK    6  A    between atoms: C_11  and  C_12
REMARK    7  A    between atoms: N_16  and  C_17
REMARK    8  A    between atoms: C_17  and  C_19
REMARK    9  A    between atoms: C_17  and  C_26
REMARK                            x       y       z     vdW  Elec       q    Type
REMARK                         _______ _______ _______ _____ _____    ______ ____
ROOT
ATOM      1  N   UNL     1       0.794   0.193   1.435  0.00  0.00    +0.394 N 
ATOM      2  H   UNL     1       0.769   0.807   2.235  0.00  0.00    -0.083 HD
ATOM      3  H   UNL     1       0.407  -0.704   1.685  0.00  0.00    -0.083 HD
ENDROOT
BRANCH   1   5
ATOM      4  C   UNL     1       0.496   2.202   0.066  0.00  0.00    -0.009 C 
ATOM      5  C   UNL     1       0.006   0.780   0.343  0.00  0.00    -0.043 C 
BRANCH   5   6
ATOM      6  C   UNL     1      -1.448   0.818   0.738  0.00  0.00    -0.061 A 
ATOM      7  C   UNL     1      -1.804   1.161   2.029  0.00  0.00    +0.005 A 
ATOM      8  C   UNL     1      -3.136   1.196   2.394  0.00  0.00    +0.046 A 
ATOM      9  C   UNL     1      -4.117   0.887   1.463  0.00  0.00    +0.121 A 
ATOM     10  C   UNL     1      -3.757   0.543   0.168  0.00  0.00    +0.046 A 
ATOM     11  C   UNL     1      -2.424   0.515  -0.193  0.00  0.00    +0.005 A 
BRANCH   9  12
ATOM     12  O   UNL     1      -5.428   0.920   1.819  0.00  0.00    -0.483 OA
BRANCH  12  13
ATOM     13  C   UNL     1      -6.383   0.590   0.809  0.00  0.00    +0.342 C 
BRANCH  13  14
ATOM     14  C   UNL     1      -7.795   0.682   1.393  0.00  0.00    +0.424 C 
ATOM     15  F   UNL     1      -8.028   1.984   1.848  0.00  0.00    -0.167 F 
ATOM     16  F   UNL     1      -8.730   0.359   0.404  0.00  0.00    -0.167 F 
ATOM     17  F   UNL     1      -7.917  -0.214   2.461  0.00  0.00    -0.167 F 
ENDBRANCH  13  14
ENDBRANCH  12  13
ENDBRANCH   9  12
ENDBRANCH   5   6
ENDBRANCH   1   5
BRANCH   1  18
ATOM     18  C   UNL     1       2.186   0.020   0.995  0.00  0.00    +0.047 C 
BRANCH  18  19
ATOM     19  C   UNL     1       2.236  -0.982  -0.130  0.00  0.00    -0.053 A 
ATOM     20  C   UNL     1       1.435  -2.107  -0.088  0.00  0.00    +0.005 A 
ATOM     21  C   UNL     1       1.480  -3.026  -1.120  0.00  0.00    +0.038 A 
ATOM     22  C   UNL     1       2.328  -2.819  -2.194  0.00  0.00    +0.123 A 
ATOM     23  C   UNL     1       3.130  -1.691  -2.235  0.00  0.00    +0.038 A 
ATOM     24  C   UNL     1       3.079  -0.771  -1.205  0.00  0.00    +0.005 A 
ATOM     25  F   UNL     1       2.373  -3.717  -3.203  0.00  0.00    -0.205 F 
ENDBRANCH  18  19
BRANCH  18  26
ATOM     26  C   UNL     1       3.018  -0.477   2.148  0.00  0.00    +0.201 C 
ATOM     27  O   UNL     1       2.499  -1.110   3.043  0.00  0.00    -0.277 OA
ATOM     28  N   UNL     1       4.341  -0.219   2.186  0.00  0.00    -0.330 N 
ATOM     29  H   UNL     1       4.756   0.287   1.470  0.00  0.00    +0.145 HD
ATOM     30  H   UNL     1       4.877  -0.539   2.928  0.00  0.00    +0.145 HD
ENDBRANCH  18  26
ENDBRANCH   1  18
TORSDOF 8
