REMARK  Name = ZINC67550839
REMARK  8 active torsions:
REMARK  status: ('A' for Active; 'I' for Inactive)
REMARK    1  A    between atoms: C_1  and  C_2
REMARK    2  A    between atoms: C_9  and  C_11
REMARK    3  A    between atoms: C_11  and  C_13
REMARK    4  A    between atoms: C_11  and  N_14
REMARK    5  A    between atoms: N_17  and  C_18
REMARK    6  A    between atoms: C_20  and  C_26
REMARK    7  A    between atoms: C_23  and  O_24
REMARK    8  A    between atoms: O_24  and  C_25
REMARK                            x       y       z     vdW  Elec       q    Type
REMARK                         _______ _______ _______ _____ _____    ______ ____
ROOT
ATOM      1  N   UNL     1       2.566   0.965   4.039  0.00  0.00    -0.288 N 
ATOM      2  C   UNL     1       2.935   0.682   5.304  0.00  0.00    +0.305 C 
ATOM      3  O   UNL     1       3.072  -0.475   5.653  0.00  0.00    -0.252 OA
ATOM      4  N   UNL     1       3.152   1.681   6.182  0.00  0.00    -0.266 N 
ATOM      5  H   UNL     1       2.457   1.888   3.761  0.00  0.00    +0.151 HD
ATOM      6  H   UNL     1       2.976   2.600   5.925  0.00  0.00    +0.156 HD
ENDROOT
BRANCH   4   7
ATOM      7  C   UNL     1       3.631   1.393   7.468  0.00  0.00    +0.078 A 
ATOM      8  C   UNL     1       3.358   0.168   8.049  0.00  0.00    +0.046 A 
ATOM      9  C   UNL     1       3.838  -0.116   9.330  0.00  0.00    +0.054 A 
ATOM     10  C   UNL     1       4.591   0.839  10.019  0.00  0.00    +0.022 A 
ATOM     11  C   UNL     1       4.859   2.058   9.434  0.00  0.00    +0.049 A 
ATOM     12  C   UNL     1       4.388   2.339   8.159  0.00  0.00    +0.141 A 
BRANCH  12  13
ATOM     13  O   UNL     1       4.659   3.540   7.585  0.00  0.00    -0.493 OA
ATOM     14  C   UNL     1       5.439   4.462   8.349  0.00  0.00    +0.277 C 
ENDBRANCH  12  13
BRANCH   9  15
ATOM     15  C   UNL     1       3.559  -1.383   9.937  0.00  0.00    +0.099 C 
ATOM     16  N   UNL     1       3.337  -2.387  10.419  0.00  0.00    -0.191 NA
ENDBRANCH   9  15
ENDBRANCH   4   7
BRANCH   1  17
ATOM     17  C   UNL     1       2.331  -0.121   3.085  0.00  0.00    +0.157 C 
ATOM     18  C   UNL     1       3.658  -0.538   2.449  0.00  0.00    +0.038 C 
BRANCH  17  26
ATOM     19  C   UNL     1       0.036   1.424  -0.052  0.00  0.00    +0.028 C 
ATOM     20  C   UNL     1      -0.064  -0.096   0.088  0.00  0.00    +0.073 C 
ATOM     21  C   UNL     1       0.425  -0.764  -1.201  0.00  0.00    +0.022 C 
ATOM     22  C   UNL     1       0.454  -2.281  -1.005  0.00  0.00    +0.003 C 
ATOM     23  C   UNL     1       1.429  -2.634   0.121  0.00  0.00    +0.019 C 
ATOM     24  C   UNL     1       0.952  -1.987   1.425  0.00  0.00    +0.108 C 
ATOM     25  N   UNL     1       0.779  -0.544   1.205  0.00  0.00    -0.297 N 
ATOM     26  C   UNL     1       1.385   0.351   2.010  0.00  0.00    +0.236 C 
ATOM     27  O   UNL     1       1.170   1.536   1.870  0.00  0.00    -0.274 OA
ENDBRANCH  17  26
ENDBRANCH   1  17
TORSDOF 5
