REMARK  Name = ZINC23101397
REMARK  8 active torsions:
REMARK  status: ('A' for Active; 'I' for Inactive)
REMARK    1  A    between atoms: C_1  and  C_2
REMARK    2  A    between atoms: C_2  and  C_3
REMARK    3  A    between atoms: C_3  and  C_5
REMARK    4  A    between atoms: C_3  and  C_6
REMARK    5  A    between atoms: C_6  and  C_8
REMARK    6  A    between atoms: C_6  and  N_23
REMARK    7  A    between atoms: N_10  and  C_11
REMARK    8  A    between atoms: C_11  and  C_12
REMARK                            x       y       z     vdW  Elec       q    Type
REMARK                         _______ _______ _______ _____ _____    ______ ____
ROOT
ATOM      1  C   UNL     1       6.404   3.541   0.142  0.00  0.00    +0.161 C 
ENDROOT
BRANCH   1   2
ATOM      2  N   UNL     1       5.217   2.856  -0.373  0.00  0.00    -0.316 N 
ATOM      3  C   UNL     1       4.068   3.571  -0.634  0.00  0.00    +0.150 C 
ATOM      4  N   UNL     1       4.016   4.840  -0.386  0.00  0.00    -0.113 NA
ATOM      5  S   UNL     1       2.479   5.331  -0.831  0.00  0.00    +0.101 S 
ATOM      6  O   UNL     1       1.782   5.697   0.351  0.00  0.00    -0.146 OA
ATOM      7  O   UNL     1       2.608   6.184  -1.961  0.00  0.00    -0.146 OA
ATOM      8  C   UNL     1       1.818   3.786  -1.392  0.00  0.00    +0.123 A 
ATOM      9  C   UNL     1       2.886   2.899  -1.197  0.00  0.00    +0.043 A 
ATOM     10  C   UNL     1       2.683   1.557  -1.550  0.00  0.00    +0.013 A 
ATOM     11  C   UNL     1       1.473   1.149  -2.066  0.00  0.00    +0.001 A 
ATOM     12  C   UNL     1       0.437   2.048  -2.247  0.00  0.00    +0.002 A 
ATOM     13  C   UNL     1       0.620   3.380  -1.904  0.00  0.00    +0.030 A 
ATOM     14  H   UNL     1       5.242   1.771  -0.552  0.00  0.00    +0.148 HD
ENDBRANCH   1   2
BRANCH   1  15
ATOM     15  C   UNL     1       7.641   2.916  -0.449  0.00  0.00    +0.234 C 
ATOM     16  O   UNL     1       7.543   1.961  -1.190  0.00  0.00    -0.274 OA
ATOM     17  N   UNL     1       8.857   3.418  -0.154  0.00  0.00    -0.310 N 
ATOM     18  H   UNL     1       8.953   4.230   0.581  0.00  0.00    +0.149 HD
BRANCH  17  19
ATOM     19  C   UNL     1      10.050   2.881  -0.814  0.00  0.00    +0.141 C 
BRANCH  19  20
ATOM     20  C   UNL     1      11.271   3.609  -0.311  0.00  0.00    -0.014 A 
ATOM     21  C   UNL     1      11.960   3.139   0.799  0.00  0.00    +0.010 A 
ATOM     22  C   UNL     1      13.076   3.836   1.227  0.00  0.00    +0.042 A 
ATOM     23  C   UNL     1      13.467   4.978   0.535  0.00  0.00    +0.099 A 
ATOM     24  N   UNL     1      12.783   5.393  -0.520  0.00  0.00    -0.349 N 
ATOM     25  C   UNL     1      11.719   4.745  -0.954  0.00  0.00    +0.089 A 
ATOM     26  N   UNL     1      14.586   5.688   0.954  0.00  0.00    -0.317 N 
ATOM     27  C   UNL     1      15.812   4.855   0.858  0.00  0.00    +0.106 C 
ATOM     28  C   UNL     1      16.952   5.904   0.838  0.00  0.00    +0.020 C 
ATOM     29  C   UNL     1      16.351   7.053  -0.003  0.00  0.00    +0.020 C 
ATOM     30  C   UNL     1      14.826   6.861   0.086  0.00  0.00    +0.106 C 
ATOM     31  H   UNL     1      13.099   6.300  -1.058  0.00  0.00    +0.167 HD
ENDBRANCH  19  20
ENDBRANCH  17  19
ENDBRANCH   1  15
BRANCH   1  32
ATOM     32  C   UNL     1       6.447   3.412   1.666  0.00  0.00    +0.015 C 
ATOM     33  C   UNL     1       5.273   4.181   2.276  0.00  0.00    +0.010 C 
BRANCH  32  35
ATOM     34  C   UNL     1       7.623   1.208   1.629  0.00  0.00    +0.004 C 
ATOM     35  C   UNL     1       6.347   1.936   2.056  0.00  0.00    +0.002 C 
ENDBRANCH  32  35
ENDBRANCH   1  32
TORSDOF 6
