REMARK  Name = ZINC05633257
REMARK  13 active torsions:
REMARK  status: ('A' for Active; 'I' for Inactive)
REMARK    1  A    between atoms: C_1  and  C_2
REMARK    2  A    between atoms: C_2  and  C_3
REMARK    3  A    between atoms: C_2  and  N_4
REMARK    4  A    between atoms: N_4  and  C_5
REMARK    5  A    between atoms: C_5  and  C_6
REMARK    6  A    between atoms: N_8  and  C_9
REMARK    7  A    between atoms: C_14  and  S_15
REMARK    8  A    between atoms: S_15  and  C_16
REMARK    9  A    between atoms: C_16  and  C_17
REMARK   10  A    between atoms: N_19  and  C_20
REMARK   11  A    between atoms: C_24  and  C_25
REMARK   12  A    between atoms: C_25  and  O_27
REMARK   13  A    between atoms: O_27  and  C_28
REMARK                            x       y       z     vdW  Elec       q    Type
REMARK                         _______ _______ _______ _____ _____    ______ ____
ROOT
ATOM      1  C   UNL     1      -5.532  -1.074  -2.403  0.00  0.00    +0.047 A 
ATOM      2  C   UNL     1      -6.053  -1.796  -1.340  0.00  0.00    +0.024 A 
ATOM      3  C   UNL     1      -7.339  -2.300  -1.410  0.00  0.00    +0.002 A 
ATOM      4  C   UNL     1      -8.110  -2.086  -2.539  0.00  0.00    +0.001 A 
ATOM      5  C   UNL     1      -7.599  -1.368  -3.603  0.00  0.00    +0.016 A 
ATOM      6  C   UNL     1      -6.311  -0.854  -3.540  0.00  0.00    +0.030 A 
ENDROOT
BRANCH   1   9
ATOM      7  C   UNL     1      -3.269  -1.251  -1.685  0.00  0.00    +0.200 C 
ATOM      8  O   UNL     1      -3.548  -2.275  -1.098  0.00  0.00    -0.278 OA
ATOM      9  N   UNL     1      -4.229  -0.563  -2.334  0.00  0.00    -0.286 N 
ATOM     10  H   UNL     1      -4.019   0.286  -2.754  0.00  0.00    +0.155 HD
BRANCH   7  11
ATOM     11  C   UNL     1      -1.849  -0.747  -1.688  0.00  0.00    +0.015 C 
BRANCH  11  12
ATOM     12  N   UNL     1      -1.002  -1.667  -0.917  0.00  0.00    +0.386 N 
ATOM     13  H   UNL     1      -1.034  -2.585  -1.335  0.00  0.00    -0.085 HD
ATOM     14  H   UNL     1      -1.338  -1.718   0.033  0.00  0.00    -0.085 HD
BRANCH  12  16
ATOM     15  C   UNL     1       0.453   0.159  -0.177  0.00  0.00    -0.014 C 
ATOM     16  C   UNL     1       0.383  -1.176  -0.920  0.00  0.00    -0.078 C 
ATOM     17  C   UNL     1       1.287  -2.196  -0.225  0.00  0.00    -0.014 C 
ENDBRANCH  12  16
ENDBRANCH  11  12
ENDBRANCH   7  11
ENDBRANCH   1   9
BRANCH   6  18
ATOM     18  S   UNL     1      -5.660   0.068  -4.892  0.00  0.00    -0.114 S 
BRANCH  18  19
ATOM     19  C   UNL     1      -7.011   0.086  -6.103  0.00  0.00    +0.170 C 
BRANCH  19  20
ATOM     20  C   UNL     1      -6.579   0.853  -7.326  0.00  0.00    +0.227 C 
ATOM     21  O   UNL     1      -5.470   1.341  -7.376  0.00  0.00    -0.275 OA
ATOM     22  N   UNL     1      -7.427   0.998  -8.364  0.00  0.00    -0.284 N 
ATOM     23  H   UNL     1      -8.339   0.678  -8.293  0.00  0.00    +0.155 HD
BRANCH  22  24
ATOM     24  C   UNL     1      -6.991   1.610  -9.540  0.00  0.00    +0.055 A 
ATOM     25  C   UNL     1      -5.750   2.205  -9.646  0.00  0.00    +0.032 A 
ATOM     26  C   UNL     1      -5.393   2.780 -10.818  0.00  0.00    +0.048 A 
ATOM     27  S   UNL     1      -6.719   2.539 -11.822  0.00  0.00    -0.088 S 
ATOM     28  C   UNL     1      -7.777   1.657 -10.691  0.00  0.00    +0.117 A 
BRANCH  28  29
ATOM     29  C   UNL     1      -9.077   1.141 -10.905  0.00  0.00    +0.347 C 
ATOM     30  O   UNL     1      -9.657   0.561 -10.006  0.00  0.00    -0.244 OA
BRANCH  29  31
ATOM     31  O   UNL     1      -9.674   1.292 -12.106  0.00  0.00    -0.464 OA
ATOM     32  C   UNL     1     -10.987   0.746 -12.252  0.00  0.00    +0.280 C 
ENDBRANCH  29  31
ENDBRANCH  28  29
ENDBRANCH  22  24
ENDBRANCH  19  20
ENDBRANCH  18  19
ENDBRANCH   6  18
TORSDOF 10
