REMARK  Name = ZINC61769018
REMARK  9 active torsions:
REMARK  status: ('A' for Active; 'I' for Inactive)
REMARK    1  A    between atoms: C_1  and  C_2
REMARK    2  A    between atoms: C_5  and  C_8
REMARK    3  A    between atoms: C_8  and  C_9
REMARK    4  A    between atoms: C_8  and  N_25
REMARK    5  A    between atoms: C_9  and  N_10
REMARK    6  A    between atoms: N_13  and  C_14
REMARK    7  A    between atoms: C_16  and  N_21
REMARK    8  A    between atoms: C_19  and  C_20
REMARK    9  A    between atoms: C_22  and  C_24
REMARK                            x       y       z     vdW  Elec       q    Type
REMARK                         _______ _______ _______ _____ _____    ______ ____
ROOT
ATOM      1  N   UNL     1      -1.803  -6.047  -0.156  0.00  0.00    -0.300 N 
ATOM      2  C   UNL     1      -2.892  -6.764   0.187  0.00  0.00    +0.304 C 
ATOM      3  O   UNL     1      -3.934  -6.197   0.451  0.00  0.00    -0.253 OA
ATOM      4  N   UNL     1      -2.824  -8.109   0.238  0.00  0.00    -0.269 N 
ATOM      5  H   UNL     1      -0.971  -6.499  -0.367  0.00  0.00    +0.150 HD
ATOM      6  H   UNL     1      -2.018  -8.566  -0.051  0.00  0.00    +0.156 HD
ENDROOT
BRANCH   4   7
ATOM      7  C   UNL     1      -3.917  -8.847   0.707  0.00  0.00    +0.039 A 
ATOM      8  C   UNL     1      -4.885  -8.234   1.488  0.00  0.00    +0.047 A 
ATOM      9  C   UNL     1      -5.967  -8.969   1.951  0.00  0.00    +0.035 A 
ATOM     10  C   UNL     1      -6.077 -10.317   1.631  0.00  0.00    +0.024 A 
ATOM     11  C   UNL     1      -5.111 -10.925   0.852  0.00  0.00    +0.007 A 
ATOM     12  C   UNL     1      -4.036 -10.193   0.385  0.00  0.00    -0.029 A 
ATOM     13  C   UNL     1      -2.987 -10.859  -0.469  0.00  0.00    +0.045 C 
BRANCH   9  14
ATOM     14  N   UNL     1      -6.945  -8.355   2.740  0.00  0.00    -0.286 N 
ATOM     15  C   UNL     1      -8.237  -8.721   2.619  0.00  0.00    +0.214 C 
ATOM     16  O   UNL     1      -8.540  -9.642   1.891  0.00  0.00    -0.276 OA
ATOM     17  C   UNL     1      -9.304  -7.985   3.388  0.00  0.00    +0.109 C 
ATOM     18  H   UNL     1      -6.694  -7.665   3.374  0.00  0.00    +0.155 HD
ENDBRANCH   9  14
ENDBRANCH   4   7
BRANCH   1  19
ATOM     19  C   UNL     1      -1.876  -4.585  -0.211  0.00  0.00    +0.095 C 
BRANCH  19  20
ATOM     20  C   UNL     1      -0.557  -4.028  -0.750  0.00  0.00    -0.020 C 
BRANCH  20  25
ATOM     21  C   UNL     1       0.130  -5.686  -6.243  0.00  0.00    +0.044 C 
ATOM     22  C   UNL     1      -0.049  -5.254  -4.810  0.00  0.00    -0.050 A 
ATOM     23  C   UNL     1       0.610  -5.926  -3.798  0.00  0.00    +0.003 A 
ATOM     24  C   UNL     1       0.446  -5.529  -2.484  0.00  0.00    +0.002 A 
ATOM     25  C   UNL     1      -0.377  -4.460  -2.183  0.00  0.00    -0.059 A 
ATOM     26  C   UNL     1      -1.035  -3.787  -3.195  0.00  0.00    +0.002 A 
ATOM     27  C   UNL     1      -0.867  -4.181  -4.510  0.00  0.00    +0.003 A 
ENDBRANCH  20  25
BRANCH  20  28
ATOM     28  N   UNL     1      -0.580  -2.561  -0.680  0.00  0.00    +0.385 N 
ATOM     29  C   UNL     1      -0.643  -2.117   0.736  0.00  0.00    -0.078 C 
ATOM     30  C   UNL     1      -0.102  -0.666   0.676  0.00  0.00    -0.020 C 
ATOM     31  C   UNL     1       1.020  -0.759  -0.384  0.00  0.00    -0.020 C 
ATOM     32  C   UNL     1       0.679  -2.005  -1.222  0.00  0.00    -0.078 C 
ATOM     33  H   UNL     1      -1.369  -2.200  -1.194  0.00  0.00    -0.081 HD
ENDBRANCH  20  28
ENDBRANCH  19  20
ENDBRANCH   1  19
TORSDOF 6
