REMARK  Name = ZINC48831039
REMARK  9 active torsions:
REMARK  status: ('A' for Active; 'I' for Inactive)
REMARK    1  A    between atoms: C_1  and  C_2
REMARK    2  A    between atoms: C_5  and  C_26
REMARK    3  A    between atoms: C_6  and  C_8
REMARK    4  A    between atoms: C_8  and  C_9
REMARK    5  A    between atoms: C_8  and  N_10
REMARK    6  A    between atoms: C_11  and  C_13
REMARK    7  A    between atoms: N_15  and  C_16
REMARK    8  A    between atoms: C_19  and  C_22
REMARK    9  A    between atoms: C_22  and  C_23
REMARK                            x       y       z     vdW  Elec       q    Type
REMARK                         _______ _______ _______ _____ _____    ______ ____
ROOT
ATOM      1  C   UNL     1       2.041  -1.696   5.558  0.00  0.00    +0.303 C 
ATOM      2  O   UNL     1       2.063  -0.488   5.441  0.00  0.00    -0.265 OA
ATOM      3  N   UNL     1       2.557  -2.275   6.660  0.00  0.00    -0.278 N 
ATOM      4  H   UNL     1       2.608  -3.242   6.721  0.00  0.00    +0.155 HD
ENDROOT
BRANCH   3   5
ATOM      5  C   UNL     1       3.018  -1.483   7.715  0.00  0.00    +0.034 A 
ATOM      6  C   UNL     1       4.105  -1.898   8.473  0.00  0.00    +0.023 A 
ATOM      7  C   UNL     1       4.558  -1.113   9.515  0.00  0.00    +0.006 A 
ATOM      8  C   UNL     1       3.930   0.085   9.804  0.00  0.00    -0.039 A 
ATOM      9  C   UNL     1       2.847   0.500   9.052  0.00  0.00    +0.006 A 
ATOM     10  C   UNL     1       2.393  -0.277   8.005  0.00  0.00    +0.023 A 
BRANCH   8  11
ATOM     11  C   UNL     1       4.427   0.939  10.942  0.00  0.00    +0.130 C 
BRANCH  11  12
ATOM     12  C   UNL     1       5.471   1.899  10.431  0.00  0.00    +0.215 C 
ATOM     13  O   UNL     1       5.781   1.890   9.258  0.00  0.00    -0.276 OA
ATOM     14  N   UNL     1       6.060   2.767  11.277  0.00  0.00    -0.329 N 
ATOM     15  H   UNL     1       5.813   2.774  12.215  0.00  0.00    +0.145 HD
ATOM     16  H   UNL     1       6.732   3.384  10.948  0.00  0.00    +0.145 HD
ENDBRANCH  11  12
ENDBRANCH   8  11
ENDBRANCH   3   5
BRANCH   1  18
ATOM     17  N   UNL     1       0.927  -1.961   3.379  0.00  0.00    -0.301 N 
ATOM     18  C   UNL     1       1.443  -2.540   4.481  0.00  0.00    +0.300 C 
ATOM     19  O   UNL     1       1.421  -3.748   4.598  0.00  0.00    -0.265 OA
ATOM     20  H   UNL     1       0.945  -0.996   3.285  0.00  0.00    +0.150 HD
BRANCH  17  21
ATOM     21  C   UNL     1       0.341  -2.789   2.322  0.00  0.00    +0.101 C 
ATOM     22  C   UNL     1      -1.143  -3.019   2.619  0.00  0.00    +0.033 C 
BRANCH  21  28
ATOM     23  C   UNL     1       0.751   1.440  -0.322  0.00  0.00    +0.044 C 
ATOM     24  C   UNL     1       0.680  -0.065  -0.269  0.00  0.00    -0.050 A 
ATOM     25  C   UNL     1       0.748  -0.801  -1.437  0.00  0.00    +0.003 A 
ATOM     26  C   UNL     1       0.683  -2.181  -1.388  0.00  0.00    +0.004 A 
ATOM     27  C   UNL     1       0.551  -2.825  -0.171  0.00  0.00    -0.046 A 
ATOM     28  C   UNL     1       0.485  -2.088   0.996  0.00  0.00    -0.024 A 
ATOM     29  C   UNL     1       0.554  -0.708   0.948  0.00  0.00    +0.009 A 
ATOM     30  C   UNL     1       0.480  -4.329  -0.118  0.00  0.00    +0.044 C 
ENDBRANCH  21  28
ENDBRANCH  17  21
ENDBRANCH   1  18
TORSDOF 6
