REMARK  Name = ZINC43740711
REMARK  9 active torsions:
REMARK  status: ('A' for Active; 'I' for Inactive)
REMARK    1  A    between atoms: C_1  and  C_2
REMARK    2  A    between atoms: C_5  and  O_44
REMARK    3  A    between atoms: C_17  and  C_43
REMARK    4  A    between atoms: C_22  and  C_23
REMARK    5  A    between atoms: C_23  and  C_25
REMARK    6  A    between atoms: C_25  and  C_26
REMARK    7  A    between atoms: C_33  and  O_34
REMARK    8  A    between atoms: O_34  and  C_35
REMARK    9  A    between atoms: N_41  and  C_42
REMARK                            x       y       z     vdW  Elec       q    Type
REMARK                         _______ _______ _______ _____ _____    ______ ____
ROOT
ATOM      1  C   UNL     1       0.197   1.412  -2.285  0.00  0.00    +0.016 C 
ATOM      2  C   UNL     1       0.094  -0.071  -1.896  0.00  0.00    -0.008 C 
ATOM      3  C   UNL     1       0.618  -0.894  -3.074  0.00  0.00    +0.014 C 
ATOM      4  C   UNL     1       2.107  -0.632  -3.297  0.00  0.00    +0.032 C 
ATOM      5  C   UNL     1       2.905  -1.004  -2.049  0.00  0.00    +0.119 C 
ATOM      6  C   UNL     1       2.471  -0.119  -0.876  0.00  0.00    +0.062 C 
ATOM      7  C   UNL     1       0.970  -0.281  -0.702  0.00  0.00    -0.065 C 
ATOM      8  C   UNL     1       0.517  -0.618   0.466  0.00  0.00    -0.027 C 
ATOM      9  C   UNL     1      -0.928  -0.879   0.741  0.00  0.00    +0.031 C 
ATOM     10  C   UNL     1      -1.839  -0.107  -0.232  0.00  0.00    +0.001 C 
ATOM     11  C   UNL     1      -1.379  -0.339  -1.661  0.00  0.00    +0.003 C 
ATOM     12  C   UNL     1      -1.843  -1.660  -2.243  0.00  0.00    +0.005 C 
ATOM     13  C   UNL     1      -3.367  -1.836  -2.224  0.00  0.00    +0.012 C 
ATOM     14  C   UNL     1      -4.020  -0.808  -1.344  0.00  0.00    -0.001 C 
ATOM     15  C   UNL     1      -3.225  -0.673  -0.030  0.00  0.00    +0.007 C 
ATOM     16  C   UNL     1      -4.240   0.173   0.757  0.00  0.00    +0.032 C 
ATOM     17  C   UNL     1      -5.533  -0.567   0.399  0.00  0.00    -0.019 C 
ATOM     18  C   UNL     1      -5.396  -1.150  -0.810  0.00  0.00    -0.003 C 
ATOM     19  C   UNL     1      -4.195   0.521  -2.079  0.00  0.00    +0.016 C 
ENDROOT
BRANCH  18  20
ATOM     20  C   UNL     1      -6.387  -1.967  -1.498  0.00  0.00    +0.158 C 
ATOM     21  O   UNL     1      -7.463  -2.181  -0.980  0.00  0.00    -0.292 OA
BRANCH  20  22
ATOM     22  C   UNL     1      -6.075  -2.547  -2.854  0.00  0.00    +0.069 C 
BRANCH  22  23
ATOM     23  C   UNL     1      -7.312  -3.263  -3.399  0.00  0.00    -0.027 C 
ATOM     24  C   UNL     1      -8.481  -2.313  -3.385  0.00  0.00    -0.012 A 
ATOM     25  C   UNL     1      -9.742  -2.721  -3.002  0.00  0.00    -0.040 A 
ATOM     26  C   UNL     1     -10.794  -1.819  -3.005  0.00  0.00    +0.053 A 
ATOM     27  C   UNL     1     -10.591  -0.504  -3.391  0.00  0.00    +0.170 A 
ATOM     28  C   UNL     1      -9.321  -0.088  -3.777  0.00  0.00    +0.208 A 
ATOM     29  C   UNL     1      -8.270  -0.994  -3.772  0.00  0.00    +0.167 A 
ATOM     30  O   UNL     1      -9.378   1.236  -4.108  0.00  0.00    -0.449 OA
ATOM     31  C   UNL     1     -10.774   1.522  -4.311  0.00  0.00    +0.467 C 
ATOM     32  O   UNL     1     -11.445   0.557  -3.479  0.00  0.00    -0.452 OA
ATOM     33  C   UNL     1     -10.010  -4.140  -2.569  0.00  0.00    +0.017 C 
ATOM     34  C   UNL     1      -8.860  -5.043  -3.014  0.00  0.00    -0.074 C 
ATOM     35  N   UNL     1      -7.593  -4.439  -2.572  0.00  0.00    +0.383 N 
ATOM     36  C   UNL     1      -6.506  -5.415  -2.720  0.00  0.00    -0.095 C 
ATOM     37  H   UNL     1      -7.670  -4.162  -1.605  0.00  0.00    -0.081 HD
BRANCH  29  38
ATOM     38  O   UNL     1      -7.027  -0.590  -4.149  0.00  0.00    -0.491 OA
ATOM     39  C   UNL     1      -6.698  -0.709  -5.534  0.00  0.00    +0.277 C 
ENDBRANCH  29  38
ENDBRANCH  22  23
ENDBRANCH  20  22
ENDBRANCH  18  20
BRANCH   5  40
ATOM     40  O   UNL     1       4.299  -0.813  -2.299  0.00  0.00    -0.391 OA
ATOM     41  H   UNL     1       4.867  -1.031  -1.548  0.00  0.00    +0.210 HD
ENDBRANCH   5  40
TORSDOF 5
