REMARK  Name = ZINC14271576
REMARK  9 active torsions:
REMARK  status: ('A' for Active; 'I' for Inactive)
REMARK    1  A    between atoms: C_1  and  C_2
REMARK    2  A    between atoms: C_2  and  C_3
REMARK    3  A    between atoms: C_2  and  C_4
REMARK    4  A    between atoms: C_2  and  C_5
REMARK    5  A    between atoms: C_12  and  N_17
REMARK    6  A    between atoms: C_13  and  C_14
REMARK    7  A    between atoms: N_17  and  C_18
REMARK    8  A    between atoms: C_18  and  N_20
REMARK    9  A    between atoms: C_21  and  C_23
REMARK                            x       y       z     vdW  Elec       q    Type
REMARK                         _______ _______ _______ _____ _____    ______ ____
ROOT
ATOM      1  C   UNL     1      13.831   6.637  -0.467  0.00  0.00    -0.000 C 
ATOM      2  C   UNL     1      14.210   5.405   0.360  0.00  0.00    +0.009 C 
ATOM      3  C   UNL     1      13.386   4.200  -0.095  0.00  0.00    +0.037 C 
ATOM      4  C   UNL     1      11.911   4.580  -0.081  0.00  0.00    -0.023 A 
ATOM      5  C   UNL     1      11.527   5.875  -0.071  0.00  0.00    -0.004 A 
ATOM      6  S   UNL     1       9.757   5.822  -0.055  0.00  0.00    -0.077 S 
ATOM      7  C   UNL     1       9.528   4.105  -0.063  0.00  0.00    +0.084 A 
ATOM      8  C   UNL     1      10.826   3.613  -0.071  0.00  0.00    +0.068 A 
ATOM      9  C   UNL     1      12.415   7.081  -0.073  0.00  0.00    +0.046 C 
ENDROOT
BRANCH   8  10
ATOM     10  C   UNL     1      11.093   2.172  -0.074  0.00  0.00    +0.244 C 
ATOM     11  O   UNL     1      11.198   1.574  -1.129  0.00  0.00    -0.270 OA
ATOM     12  N   UNL     1      11.223   1.508   1.092  0.00  0.00    -0.325 N 
ATOM     13  H   UNL     1      11.139   1.984   1.933  0.00  0.00    +0.145 HD
ATOM     14  H   UNL     1      11.399   0.554   1.090  0.00  0.00    +0.145 HD
ENDBRANCH   8  10
BRANCH   1  16
ATOM     15  C   UNL     1      14.790   8.111   1.309  0.00  0.00    +0.011 C 
ATOM     16  C   UNL     1      14.821   7.769  -0.182  0.00  0.00    -0.035 C 
ATOM     17  C   UNL     1      16.231   7.325  -0.575  0.00  0.00    +0.011 C 
ATOM     18  C   UNL     1      14.430   9.004  -0.997  0.00  0.00    +0.011 C 
ENDBRANCH   1  16
BRANCH   7  19
ATOM     19  N   UNL     1       8.339   3.394  -0.056  0.00  0.00    -0.291 N 
ATOM     20  H   UNL     1       8.353   2.425  -0.061  0.00  0.00    +0.154 HD
BRANCH  19  21
ATOM     21  C   UNL     1       7.162   4.051  -0.042  0.00  0.00    +0.141 C 
ATOM     22  S   UNL     1       7.137   5.763  -0.033  0.00  0.00    -0.018 S 
BRANCH  21  23
ATOM     23  N   UNL     1       6.005   3.360  -0.035  0.00  0.00    -0.264 N 
ATOM     24  C   UNL     1       4.828   4.017  -0.021  0.00  0.00    +0.250 C 
ATOM     25  O   UNL     1       4.810   5.232  -0.015  0.00  0.00    -0.270 OA
ATOM     26  H   UNL     1       6.019   2.390  -0.040  0.00  0.00    +0.157 HD
BRANCH  24  27
ATOM     27  C   UNL     1       3.560   3.260  -0.013  0.00  0.00    +0.038 A 
ATOM     28  C   UNL     1       3.586   1.854  -0.021  0.00  0.00    +0.013 A 
ATOM     29  C   UNL     1       2.434   1.136  -0.014  0.00  0.00    +0.009 A 
ATOM     30  C   UNL     1       1.193   1.798   0.000  0.00  0.00    -0.018 A 
ATOM     31  C   UNL     1      -0.013   1.076   0.008  0.00  0.00    +0.008 A 
ATOM     32  C   UNL     1      -1.199   1.743   0.017  0.00  0.00    +0.001 A 
ATOM     33  C   UNL     1      -1.239   3.136   0.030  0.00  0.00    +0.001 A 
ATOM     34  C   UNL     1      -0.093   3.870   0.023  0.00  0.00    +0.008 A 
ATOM     35  C   UNL     1       1.152   3.215   0.008  0.00  0.00    -0.017 A 
ATOM     36  C   UNL     1       2.353   3.941   0.001  0.00  0.00    +0.021 A 
ENDBRANCH  24  27
ENDBRANCH  21  23
ENDBRANCH  19  21
ENDBRANCH   7  19
TORSDOF 6
