REMARK  Name = ZINC64202771
REMARK  8 active torsions:
REMARK  status: ('A' for Active; 'I' for Inactive)
REMARK    1  A    between atoms: C_1  and  C_2
REMARK    2  A    between atoms: C_2  and  C_3
REMARK    3  A    between atoms: C_3  and  N_4
REMARK    4  A    between atoms: C_5  and  C_7
REMARK    5  A    between atoms: N_15  and  C_16
REMARK    6  A    between atoms: C_16  and  C_17
REMARK    7  A    between atoms: C_17  and  C_19
REMARK    8  A    between atoms: C_17  and  C_25
REMARK                            x       y       z     vdW  Elec       q    Type
REMARK                         _______ _______ _______ _____ _____    ______ ____
ROOT
ATOM      1  C   UNL     1      -1.676  -6.785   1.893  0.00  0.00    +0.078 C 
ATOM      2  C   UNL     1      -3.149  -7.195   1.828  0.00  0.00    +0.032 C 
ATOM      3  C   UNL     1      -3.715  -6.836   0.450  0.00  0.00    +0.110 C 
ATOM      4  N   UNL     1      -2.870  -7.453  -0.583  0.00  0.00    -0.286 N 
ATOM      5  C   UNL     1      -1.424  -7.198  -0.558  0.00  0.00    +0.110 C 
ATOM      6  C   UNL     1      -0.884  -7.552   0.831  0.00  0.00    +0.032 C 
ATOM      7  C   UNL     1      -3.413  -8.238  -1.534  0.00  0.00    +0.302 C 
ATOM      8  O   UNL     1      -2.720  -8.668  -2.436  0.00  0.00    -0.253 OA
ATOM      9  N   UNL     1      -4.724  -8.547  -1.486  0.00  0.00    -0.299 N 
ATOM     10  H   UNL     1      -5.293  -8.146  -0.811  0.00  0.00    +0.150 HD
ENDROOT
BRANCH   1  12
ATOM     11  N   UNL     1      -1.671  -6.541   4.354  0.00  0.00    -0.315 N 
ATOM     12  C   UNL     1      -1.126  -7.106   3.259  0.00  0.00    +0.216 C 
ATOM     13  O   UNL     1      -0.193  -7.872   3.372  0.00  0.00    -0.276 OA
ATOM     14  H   UNL     1      -2.418  -5.928   4.264  0.00  0.00    +0.149 HD
BRANCH  11  15
ATOM     15  C   UNL     1      -1.136  -6.853   5.682  0.00  0.00    +0.104 C 
BRANCH  15  17
ATOM     16  C   UNL     1      -1.369  -6.411   8.130  0.00  0.00    +0.005 C 
ATOM     17  C   UNL     1      -1.928  -6.086   6.744  0.00  0.00    +0.015 C 
ENDBRANCH  15  17
ENDBRANCH  11  15
ENDBRANCH   1  12
BRANCH   9  18
ATOM     18  C   UNL     1      -5.290  -9.490  -2.454  0.00  0.00    +0.114 C 
BRANCH  18  19
ATOM     19  C   UNL     1      -6.805  -9.574  -2.259  0.00  0.00    +0.048 C 
BRANCH  19  20
ATOM     20  C   UNL     1      -7.105 -10.137  -0.893  0.00  0.00    -0.036 C 
ATOM     21  C   UNL     1      -7.803  -9.537   0.098  0.00  0.00    -0.001 A 
ATOM     22  C   UNL     1      -8.465  -8.231   0.199  0.00  0.00    +0.010 A 
ATOM     23  C   UNL     1      -9.098  -7.904   1.348  0.00  0.00    +0.001 A 
ATOM     24  C   UNL     1      -9.138  -8.778   2.443  0.00  0.00    +0.002 A 
ATOM     25  C   UNL     1      -8.553  -9.995   2.426  0.00  0.00    +0.026 A 
ATOM     26  C   UNL     1      -7.860 -10.443   1.268  0.00  0.00    +0.043 A 
ATOM     27  N   UNL     1      -7.222 -11.559   1.010  0.00  0.00    -0.380 N 
ATOM     28  C   UNL     1      -6.693 -11.489  -0.357  0.00  0.00    +0.145 C 
ATOM     29  H   UNL     1      -7.120 -12.306   1.619  0.00  0.00    +0.160 HD
ENDBRANCH  19  20
BRANCH  19  30
ATOM     30  C   UNL     1      -7.408 -10.485  -3.330  0.00  0.00    +0.063 C 
ATOM     31  C   UNL     1      -7.296  -9.853  -4.742  0.00  0.00    +0.042 C 
ATOM     32  C   UNL     1      -8.528 -10.126  -5.544  0.00  0.00    -0.019 C 
ATOM     33  C   UNL     1      -9.639 -10.493  -4.936  0.00  0.00    +0.036 C 
ATOM     34  S   UNL     1      -9.244 -10.561  -3.196  0.00  0.00    -0.129 S 
ENDBRANCH  19  30
ENDBRANCH  18  19
ENDBRANCH   9  18
TORSDOF 7
