REMARK  Name = ZINC66940391
REMARK  7 active torsions:
REMARK  status: ('A' for Active; 'I' for Inactive)
REMARK    1  A    between atoms: C_3  and  C_6
REMARK    2  A    between atoms: C_6  and  N_7
REMARK    3  A    between atoms: C_11  and  C_14
REMARK    4  A    between atoms: C_14  and  N_15
REMARK    5  A    between atoms: N_15  and  C_16
REMARK    6  A    between atoms: C_16  and  C_18
REMARK    7  A    between atoms: C_16  and  C_25
REMARK                            x       y       z     vdW  Elec       q    Type
REMARK                         _______ _______ _______ _____ _____    ______ ____
ROOT
ATOM      1  N   UNL     1       7.826   3.823   4.146  0.00  0.00    -0.302 NA
ATOM      2  H   UNL     1       7.144   4.426   4.582  0.00  0.00    +0.123 HD
ENDROOT
BRANCH   1   3
ATOM      3  C   UNL     1       7.429   3.486   2.773  0.00  0.00    +0.083 C 
BRANCH   3   8
ATOM      4  N   UNL     1       4.235   2.004   1.357  0.00  0.00    +0.383 N 
ATOM      5  C   UNL     1       4.291   0.689   2.007  0.00  0.00    -0.078 C 
ATOM      6  C   UNL     1       4.707   0.857   3.470  0.00  0.00    -0.018 C 
ATOM      7  C   UNL     1       6.087   1.518   3.531  0.00  0.00    +0.001 C 
ATOM      8  C   UNL     1       6.036   2.854   2.785  0.00  0.00    -0.014 C 
ATOM      9  C   UNL     1       5.571   2.612   1.347  0.00  0.00    -0.074 C 
ATOM     10  H   UNL     1       3.599   2.601   1.864  0.00  0.00    -0.081 HD
BRANCH   4  11
ATOM     11  C   UNL     1       3.761   1.845  -0.024  0.00  0.00    -0.036 C 
BRANCH  11  14
ATOM     12  C   UNL     1      -0.016   1.351   0.009  0.00  0.00    +0.008 A 
ATOM     13  C   UNL     1       1.183   2.038   0.002  0.00  0.00    +0.009 A 
ATOM     14  C   UNL     1       2.343   1.336  -0.013  0.00  0.00    -0.027 A 
ATOM     15  S   UNL     1       1.754  -0.349  -0.017  0.00  0.00    -0.103 S 
ATOM     16  C   UNL     1       0.002  -0.004   0.002  0.00  0.00    +0.045 A 
ENDBRANCH  11  14
ENDBRANCH   4  11
ENDBRANCH   3   8
ENDBRANCH   1   3
BRANCH   1  17
ATOM     17  C   UNL     1       9.162   4.434   4.174  0.00  0.00    +0.171 C 
BRANCH  17  18
ATOM     18  C   UNL     1       9.294   5.297   5.402  0.00  0.00    -0.021 A 
ATOM     19  C   UNL     1       8.772   4.868   6.607  0.00  0.00    +0.008 A 
ATOM     20  C   UNL     1       8.893   5.659   7.734  0.00  0.00    +0.038 A 
ATOM     21  C   UNL     1       9.539   6.881   7.655  0.00  0.00    +0.123 A 
ATOM     22  C   UNL     1      10.062   7.310   6.447  0.00  0.00    +0.038 A 
ATOM     23  C   UNL     1       9.944   6.515   5.323  0.00  0.00    +0.008 A 
ATOM     24  F   UNL     1       9.658   7.655   8.756  0.00  0.00    -0.205 F 
ENDBRANCH  17  18
BRANCH  17  25
ATOM     25  C   UNL     1      10.209   3.350   4.206  0.00  0.00    +0.232 C 
ATOM     26  O   UNL     1       9.875   2.184   4.206  0.00  0.00    -0.274 OA
ATOM     27  N   UNL     1      11.516   3.677   4.234  0.00  0.00    -0.328 N 
ATOM     28  H   UNL     1      11.783   4.610   4.234  0.00  0.00    +0.145 HD
ATOM     29  H   UNL     1      12.190   2.980   4.255  0.00  0.00    +0.145 HD
ENDBRANCH  17  25
ENDBRANCH   1  17
TORSDOF 7
