REMARK  Name = ZINC36413169
REMARK  5 active torsions:
REMARK  status: ('A' for Active; 'I' for Inactive)
REMARK    1  A    between atoms: C_1  and  C_2
REMARK    2  A    between atoms: C_4  and  C_27
REMARK    3  A    between atoms: C_6  and  N_13
REMARK    4  A    between atoms: C_14  and  C_16
REMARK    5  A    between atoms: C_16  and  N_17
REMARK                            x       y       z     vdW  Elec       q    Type
REMARK                         _______ _______ _______ _____ _____    ______ ____
ROOT
ATOM      1  N   UNL     1      -2.880  -4.005  -0.006  0.00  0.00    -0.257 N 
ATOM      2  C   UNL     1      -4.194  -4.305  -0.001  0.00  0.00    +0.203 C 
ATOM      3  O   UNL     1      -5.019  -3.416   0.008  0.00  0.00    -0.277 OA
ATOM      4  H   UNL     1      -2.220  -4.715  -0.013  0.00  0.00    +0.158 HD
ENDROOT
BRANCH   1  10
ATOM      5  C   UNL     1      -0.018   1.503   0.010  0.00  0.00    +0.068 C 
ATOM      6  C   UNL     1       0.002  -0.004   0.002  0.00  0.00    +0.070 A 
ATOM      7  C   UNL     1      -1.255  -0.757   0.004  0.00  0.00    +0.053 A 
ATOM      8  C   UNL     1      -2.573  -0.464   0.012  0.00  0.00    +0.114 A 
ATOM      9  O   UNL     1      -3.280  -1.609   0.009  0.00  0.00    -0.445 OA
ATOM     10  C   UNL     1      -2.473  -2.681  -0.001  0.00  0.00    +0.206 A 
ATOM     11  C   UNL     1      -1.172  -2.239  -0.005  0.00  0.00    +0.110 A 
ATOM     12  C   UNL     1       0.157  -2.841  -0.015  0.00  0.00    +0.277 A 
ATOM     13  O   UNL     1       0.291  -4.051  -0.023  0.00  0.00    -0.266 OA
ATOM     14  N   UNL     1       1.236  -2.029  -0.016  0.00  0.00    -0.242 N 
ATOM     15  H   UNL     1       2.119  -2.430  -0.023  0.00  0.00    +0.192 HD
ATOM     16  N   UNL     1       1.133  -0.640  -0.012  0.00  0.00    -0.175 NA
ATOM     17  C   UNL     1      -3.158   0.924   0.023  0.00  0.00    +0.087 C 
ENDBRANCH   1  10
BRANCH   2  18
ATOM     18  C   UNL     1      -4.638  -5.745  -0.007  0.00  0.00    +0.019 C 
BRANCH  18  19
ATOM     19  N   UNL     1      -6.106  -5.805   0.000  0.00  0.00    +0.387 N 
ATOM     20  C   UNL     1      -6.611  -5.239   1.257  0.00  0.00    -0.078 C 
ATOM     21  C   UNL     1      -8.141  -5.225   1.236  0.00  0.00    -0.018 C 
ATOM     22  C   UNL     1      -8.657  -6.659   1.076  0.00  0.00    +0.000 C 
ATOM     23  C   UNL     1      -8.064  -7.264  -0.200  0.00  0.00    -0.025 C 
ATOM     24  C   UNL     1      -6.537  -7.203  -0.126  0.00  0.00    -0.065 C 
ATOM     25  C   UNL     1      -5.940  -7.810  -1.397  0.00  0.00    -0.015 C 
ATOM     26  C   UNL     1      -6.387  -9.268  -1.524  0.00  0.00    -0.002 C 
ATOM     27  C   UNL     1      -7.914  -9.329  -1.597  0.00  0.00    +0.000 C 
ATOM     28  C   UNL     1      -8.511  -8.722  -0.326  0.00  0.00    +0.002 C 
ATOM     29  H   UNL     1      -6.467  -5.272  -0.776  0.00  0.00    -0.081 HD
ENDBRANCH  18  19
ENDBRANCH   2  18
TORSDOF 3
