REMARK  Name = ZINC44165666
REMARK  15 active torsions:
REMARK  status: ('A' for Active; 'I' for Inactive)
REMARK    1  A    between atoms: C_1  and  C_2
REMARK    2  A    between atoms: C_2  and  C_39
REMARK    3  A    between atoms: C_7  and  C_12
REMARK    4  A    between atoms: C_12  and  N_13
REMARK    5  A    between atoms: C_14  and  C_16
REMARK    6  A    between atoms: C_21  and  C_24
REMARK    7  A    between atoms: C_26  and  C_35
REMARK    8  A    between atoms: C_27  and  O_34
REMARK    9  A    between atoms: C_28  and  C_30
REMARK   10  A    between atoms: C_30  and  C_31
REMARK   11  A    between atoms: C_30  and  C_32
REMARK   12  A    between atoms: C_30  and  C_33
REMARK   13  A    between atoms: C_35  and  C_36
REMARK   14  A    between atoms: C_35  and  C_37
REMARK   15  A    between atoms: C_35  and  C_38
REMARK                            x       y       z     vdW  Elec       q    Type
REMARK                         _______ _______ _______ _____ _____    ______ ____
ROOT
ATOM      1  C   UNL     1       0.596  -6.428   3.682  0.00  0.00    +0.027 C 
ATOM      2  C   UNL     1      -0.931  -6.562   3.628  0.00  0.00    +0.062 C 
ATOM      3  S   UNL     1      -1.349  -8.334   3.641  0.00  0.00    -0.163 S 
ATOM      4  C   UNL     1      -0.374  -8.963   5.043  0.00  0.00    +0.058 C 
ATOM      5  C   UNL     1       1.069  -8.470   4.885  0.00  0.00    -0.030 C 
ATOM      6  N   UNL     1       1.101  -7.006   4.929  0.00  0.00    +0.392 N 
ATOM      7  H   UNL     1       2.051  -6.701   5.074  0.00  0.00    -0.084 HD
ATOM      8  H   UNL     1       0.531  -6.685   5.697  0.00  0.00    -0.084 HD
ENDROOT
BRANCH   5   9
ATOM      9  C   UNL     1       1.912  -9.021   6.006  0.00  0.00    -0.060 A 
ATOM     10  C   UNL     1       1.875  -8.427   7.254  0.00  0.00    +0.009 A 
ATOM     11  C   UNL     1       2.648  -8.931   8.283  0.00  0.00    -0.000 A 
ATOM     12  C   UNL     1       3.460 -10.034   8.063  0.00  0.00    +0.124 A 
ATOM     13  C   UNL     1       3.495 -10.628   6.810  0.00  0.00    -0.000 A 
ATOM     14  C   UNL     1       2.717 -10.124   5.786  0.00  0.00    +0.009 A 
BRANCH  13  15
ATOM     15  C   UNL     1       4.377 -11.826   6.568  0.00  0.00    -0.009 C 
ATOM     16  C   UNL     1       4.229 -12.283   5.115  0.00  0.00    +0.015 C 
ATOM     17  C   UNL     1       5.835 -11.449   6.838  0.00  0.00    +0.015 C 
ATOM     18  C   UNL     1       3.962 -12.962   7.504  0.00  0.00    +0.015 C 
ENDBRANCH  13  15
BRANCH  11  19
ATOM     19  C   UNL     1       2.608  -8.282   9.642  0.00  0.00    -0.009 C 
ATOM     20  C   UNL     1       1.641  -7.097   9.614  0.00  0.00    +0.015 C 
ATOM     21  C   UNL     1       2.134  -9.302  10.680  0.00  0.00    +0.015 C 
ATOM     22  C   UNL     1       4.008  -7.790  10.014  0.00  0.00    +0.015 C 
ENDBRANCH  11  19
BRANCH  12  23
ATOM     23  O   UNL     1       4.221 -10.530   9.073  0.00  0.00    -0.506 OA
ATOM     24  H   UNL     1       3.779 -11.209   9.601  0.00  0.00    +0.292 HD
ENDBRANCH  12  23
ENDBRANCH   5   9
BRANCH   1  26
ATOM     25  N   UNL     1       0.615  -4.229   2.550  0.00  0.00    -0.316 N 
ATOM     26  C   UNL     1       0.973  -4.971   3.617  0.00  0.00    +0.200 C 
ATOM     27  O   UNL     1       1.599  -4.465   4.524  0.00  0.00    -0.278 OA
ATOM     28  H   UNL     1       0.114  -4.633   1.824  0.00  0.00    +0.149 HD
BRANCH  25  29
ATOM     29  C   UNL     1       0.982  -2.812   2.486  0.00  0.00    +0.108 C 
BRANCH  29  35
ATOM     30  C   UNL     1      -0.036   1.522   0.104  0.00  0.00    +0.011 C 
ATOM     31  C   UNL     1       0.002  -0.004   0.002  0.00  0.00    -0.029 C 
ATOM     32  C   UNL     1       1.124  -0.539  -0.908  0.00  0.00    -0.005 C 
ATOM     33  C   UNL     1       0.892  -2.018  -1.267  0.00  0.00    +0.004 C 
ATOM     34  C   UNL     1       1.166  -2.861  -0.013  0.00  0.00    +0.005 C 
ATOM     35  C   UNL     1       0.458  -2.207   1.182  0.00  0.00    +0.010 C 
ATOM     36  C   UNL     1       0.767  -0.686   1.152  0.00  0.00    -0.000 C 
ATOM     37  C   UNL     1       2.038  -0.396   0.327  0.00  0.00    +0.008 C 
ATOM     38  C   UNL     1      -1.371  -0.619  -0.278  0.00  0.00    +0.011 C 
ENDBRANCH  29  35
ENDBRANCH  25  29
ENDBRANCH   1  26
TORSDOF 7
