REMARK  Name = ZINC61362465
REMARK  9 active torsions:
REMARK  status: ('A' for Active; 'I' for Inactive)
REMARK    1  A    between atoms: C_1  and  C_2
REMARK    2  A    between atoms: C_2  and  C_3
REMARK    3  A    between atoms: C_3  and  C_4
REMARK    4  A    between atoms: C_3  and  C_5
REMARK    5  A    between atoms: C_3  and  N_6
REMARK    6  A    between atoms: C_7  and  C_9
REMARK    7  A    between atoms: C_9  and  C_11
REMARK    8  A    between atoms: C_9  and  N_12
REMARK    9  A    between atoms: N_12  and  C_13
REMARK                            x       y       z     vdW  Elec       q    Type
REMARK                         _______ _______ _______ _____ _____    ______ ____
ROOT
ATOM      1  N   UNL     1       2.064  -4.604  -3.498  0.00  0.00    +0.391 N 
ATOM      2  H   UNL     1       1.769  -4.133  -4.340  0.00  0.00    -0.084 HD
ATOM      3  H   UNL     1       3.038  -4.404  -3.325  0.00  0.00    -0.084 HD
ENDROOT
BRANCH   1   4
ATOM      4  C   UNL     1       1.882  -6.053  -3.659  0.00  0.00    -0.039 C 
ATOM      5  C   UNL     1       0.439  -6.346  -4.071  0.00  0.00    -0.011 C 
ATOM      6  C   UNL     1       0.284  -7.829  -4.419  0.00  0.00    +0.004 C 
ATOM      7  C   UNL     1       1.025  -8.106  -5.736  0.00  0.00    +0.042 C 
ATOM      8  C   UNL     1       2.381  -7.486  -5.652  0.00  0.00    -0.009 A 
ATOM      9  C   UNL     1       2.822  -6.569  -4.746  0.00  0.00    -0.051 A 
ATOM     10  C   UNL     1       4.144  -6.145  -4.876  0.00  0.00    +0.010 A 
ATOM     11  C   UNL     1       4.921  -6.643  -5.864  0.00  0.00    +0.045 A 
ATOM     12  S   UNL     1       3.792  -7.763  -6.689  0.00  0.00    -0.101 S 
ENDBRANCH   1   4
BRANCH   1  13
ATOM     13  C   UNL     1       1.258  -4.132  -2.365  0.00  0.00    +0.014 C 
ATOM     14  C   UNL     1       1.802  -4.733  -1.067  0.00  0.00    -0.004 C 
BRANCH  13  16
ATOM     15  N   UNL     1       0.661  -1.970  -1.321  0.00  0.00    -0.312 N 
ATOM     16  C   UNL     1       1.328  -2.629  -2.290  0.00  0.00    +0.199 C 
ATOM     17  O   UNL     1       1.985  -2.011  -3.101  0.00  0.00    -0.278 OA
ATOM     18  H   UNL     1       0.136  -2.464  -0.672  0.00  0.00    +0.149 HD
BRANCH  15  19
ATOM     19  C   UNL     1       0.729  -0.509  -1.248  0.00  0.00    +0.029 C 
ATOM     20  C   UNL     1       0.185   0.092  -2.546  0.00  0.00    +0.031 C 
ATOM     21  C   UNL     1       2.183  -0.075  -1.056  0.00  0.00    +0.031 C 
BRANCH  19  23
ATOM     22  C   UNL     1      -0.040   1.509   0.009  0.00  0.00    +0.006 C 
ATOM     23  C   UNL     1      -0.111  -0.017  -0.067  0.00  0.00    +0.022 C 
ENDBRANCH  19  23
ENDBRANCH  15  19
ENDBRANCH  13  16
ENDBRANCH   1  13
TORSDOF 5
