REMARK  Name = ZINC29568886
REMARK  9 active torsions:
REMARK  status: ('A' for Active; 'I' for Inactive)
REMARK    1  A    between atoms: C_1  and  C_2
REMARK    2  A    between atoms: C_2  and  C_3
REMARK    3  A    between atoms: C_2  and  N_4
REMARK    4  A    between atoms: N_4  and  C_5
REMARK    5  A    between atoms: C_10  and  N_11
REMARK    6  A    between atoms: C_17  and  C_19
REMARK    7  A    between atoms: C_24  and  N_29
REMARK    8  A    between atoms: N_29  and  S_30
REMARK    9  A    between atoms: S_30  and  C_33
REMARK                            x       y       z     vdW  Elec       q    Type
REMARK                         _______ _______ _______ _____ _____    ______ ____
ROOT
ATOM      1  N   UNL     1      -4.388  -1.841  -0.141  0.00  0.00    -0.312 N 
ATOM      2  C   UNL     1      -4.273  -0.411   0.179  0.00  0.00    +0.125 C 
ATOM      3  C   UNL     1      -5.355   0.352  -0.595  0.00  0.00    +0.127 C 
ATOM      4  N   UNL     1      -6.645  -0.320  -0.384  0.00  0.00    -0.297 N 
ATOM      5  C   UNL     1      -6.760  -1.750  -0.703  0.00  0.00    +0.127 C 
ATOM      6  C   UNL     1      -5.679  -2.512   0.065  0.00  0.00    +0.125 C 
ATOM      7  C   UNL     1      -7.704   0.363   0.094  0.00  0.00    +0.236 C 
ATOM      8  O   UNL     1      -7.597   1.543   0.355  0.00  0.00    -0.274 OA
ENDROOT
BRANCH   7   9
ATOM      9  C   UNL     1      -9.021  -0.339   0.305  0.00  0.00    +0.161 C 
ATOM     10  C   UNL     1      -9.010  -1.102   1.640  0.00  0.00    +0.068 C 
ATOM     11  C   UNL     1     -10.127  -0.475   2.446  0.00  0.00    -0.023 A 
ATOM     12  C   UNL     1     -10.586  -0.749   3.720  0.00  0.00    +0.030 A 
ATOM     13  C   UNL     1     -11.644  -0.023   4.249  0.00  0.00    +0.048 A 
ATOM     14  C   UNL     1     -12.238   0.979   3.491  0.00  0.00    +0.026 A 
ATOM     15  C   UNL     1     -11.778   1.250   2.221  0.00  0.00    +0.025 A 
ATOM     16  C   UNL     1     -10.714   0.522   1.685  0.00  0.00    +0.031 A 
ATOM     17  N   UNL     1     -10.105   0.639   0.428  0.00  0.00    -0.332 N 
ATOM     18  H   UNL     1     -10.361   1.274  -0.259  0.00  0.00    +0.147 HD
BRANCH  13  19
ATOM     19  N   UNL     1     -12.111  -0.299   5.539  0.00  0.00    -0.221 N 
ATOM     20  H   UNL     1     -12.945  -0.779   5.661  0.00  0.00    +0.173 HD
BRANCH  19  21
ATOM     21  S   UNL     1     -11.240   0.194   6.858  0.00  0.00    +0.040 S 
ATOM     22  O   UNL     1     -11.998  -0.243   7.978  0.00  0.00    -0.155 OA
ATOM     23  O   UNL     1      -9.928  -0.304   6.633  0.00  0.00    -0.155 OA
ATOM     24  C   UNL     1     -11.244   2.006   6.769  0.00  0.00    +0.218 C 
ENDBRANCH  19  21
ENDBRANCH  13  19
ENDBRANCH   7   9
BRANCH   1  30
ATOM     25  C   UNL     1      -2.357  -3.085   0.252  0.00  0.00    +0.066 A 
ATOM     26  C   UNL     1      -1.275  -3.790  -0.258  0.00  0.00    +0.028 A 
ATOM     27  C   UNL     1      -1.165  -3.928  -1.635  0.00  0.00    +0.019 A 
ATOM     28  C   UNL     1      -2.126  -3.365  -2.450  0.00  0.00    +0.084 A 
ATOM     29  N   UNL     1      -3.146  -2.699  -1.940  0.00  0.00    -0.348 N 
ATOM     30  C   UNL     1      -3.293  -2.547  -0.635  0.00  0.00    +0.120 A 
ATOM     31  H   UNL     1      -3.805  -2.314  -2.538  0.00  0.00    +0.167 HD
BRANCH  25  32
ATOM     32  N   UNL     1      -2.511  -2.920   1.634  0.00  0.00    -0.339 N 
ATOM     33  H   UNL     1      -3.295  -2.469   1.984  0.00  0.00    +0.146 HD
BRANCH  32  35
ATOM     34  C   UNL     1      -1.531  -2.630   3.856  0.00  0.00    +0.027 C 
ATOM     35  C   UNL     1      -1.486  -3.427   2.551  0.00  0.00    +0.064 C 
ATOM     36  C   UNL     1      -1.753  -4.904   2.845  0.00  0.00    +0.027 C 
ENDBRANCH  32  35
ENDBRANCH  25  32
ENDBRANCH   1  30
TORSDOF 6
