REMARK  Name = ZINC38556163
REMARK  6 active torsions:
REMARK  status: ('A' for Active; 'I' for Inactive)
REMARK    1  A    between atoms: C_1  and  N_2
REMARK    2  A    between atoms: C_6  and  C_7
REMARK    3  A    between atoms: N_8  and  N_9
REMARK    4  A    between atoms: C_10  and  C_17
REMARK    5  A    between atoms: C_14  and  S_16
REMARK    6  A    between atoms: C_20  and  C_23
REMARK                            x       y       z     vdW  Elec       q    Type
REMARK                         _______ _______ _______ _____ _____    ______ ____
ROOT
ATOM      1  N   UNL     1       0.060  -0.803   4.807  0.00  0.00    -0.207 N 
ATOM      2  C   UNL     1       0.089  -1.656   6.009  0.00  0.00    +0.206 C 
ATOM      3  N   UNL     1       0.085  -0.743   7.175  0.00  0.00    -0.231 NA
ATOM      4  N   UNL     1       0.625   0.521   6.651  0.00  0.00    -0.225 NA
ATOM      5  C   UNL     1       0.047   0.594   5.286  0.00  0.00    +0.231 C 
ATOM      6  H   UNL     1       0.665  -1.104   7.918  0.00  0.00    +0.143 HD
ATOM      7  H   UNL     1       1.633   0.496   6.611  0.00  0.00    +0.143 HD
ENDROOT
BRANCH   2   8
ATOM      8  C   UNL     1      -1.148  -2.556   6.043  0.00  0.00    +0.190 C 
ATOM      9  C   UNL     1      -1.166  -3.395   7.308  0.00  0.00    +0.034 C 
ATOM     10  C   UNL     1      -1.117  -4.662   6.856  0.00  0.00    +0.091 C 
ATOM     11  N   UNL     1      -1.073  -4.680   5.498  0.00  0.00    -0.154 NA
ATOM     12  N   UNL     1      -1.088  -3.562   4.970  0.00  0.00    -0.176 NA
BRANCH  10  13
ATOM     13  C   UNL     1      -1.112  -5.869   7.719  0.00  0.00    +0.002 A 
ATOM     14  C   UNL     1      -1.165  -5.738   9.105  0.00  0.00    +0.010 A 
ATOM     15  C   UNL     1      -1.160  -6.864   9.903  0.00  0.00    +0.001 A 
ATOM     16  C   UNL     1      -1.103  -8.121   9.329  0.00  0.00    +0.000 A 
ATOM     17  C   UNL     1      -1.049  -8.258   7.954  0.00  0.00    +0.001 A 
ATOM     18  C   UNL     1      -1.059  -7.139   7.146  0.00  0.00    +0.010 A 
ENDBRANCH  10  13
ENDBRANCH   2   8
BRANCH   1  20
ATOM     19  C   UNL     1       0.032  -0.361   2.510  0.00  0.00    +0.156 C 
ATOM     20  N   UNL     1       0.052  -1.233   3.474  0.00  0.00    -0.187 NA
BRANCH  19  26
ATOM     21  C   UNL     1      -0.018   1.461   0.010  0.00  0.00    +0.149 C 
ATOM     22  N   UNL     1       0.002  -0.004   0.002  0.00  0.00    -0.349 N 
ATOM     23  C   UNL     1       0.008  -0.794  -1.110  0.00  0.00    +0.086 A 
ATOM     24  C   UNL     1       0.027  -2.087  -0.718  0.00  0.00    +0.020 A 
ATOM     25  C   UNL     1       0.034  -2.110   0.685  0.00  0.00    +0.029 A 
ATOM     26  C   UNL     1       0.024  -0.812   1.113  0.00  0.00    +0.061 A 
ENDBRANCH  19  26
ENDBRANCH   1  20
BRANCH   5  27
ATOM     27  S   UNL     1      -1.652   1.225   5.354  0.00  0.00    -0.138 S 
ATOM     28  H   UNL     1      -1.513   2.487   5.800  0.00  0.00    +0.105 HD
ENDBRANCH   5  27
TORSDOF 5
