REMARK  Name = ZINC23365805
REMARK  9 active torsions:
REMARK  status: ('A' for Active; 'I' for Inactive)
REMARK    1  A    between atoms: C_1  and  C_2
REMARK    2  A    between atoms: C_6  and  C_31
REMARK    3  A    between atoms: C_7  and  N_8
REMARK    4  A    between atoms: C_9  and  C_11
REMARK    5  A    between atoms: C_11  and  N_12
REMARK    6  A    between atoms: N_15  and  C_18
REMARK    7  A    between atoms: C_18  and  C_20
REMARK    8  A    between atoms: C_18  and  C_21
REMARK    9  A    between atoms: N_23  and  C_24
REMARK                            x       y       z     vdW  Elec       q    Type
REMARK                         _______ _______ _______ _____ _____    ______ ____
ROOT
ATOM      1  N   UNL     1      -2.359  -5.089  -0.094  0.00  0.00    +0.387 N 
ATOM      2  C   UNL     1      -2.591  -4.456   1.212  0.00  0.00    -0.063 C 
ATOM      3  C   UNL     1      -4.065  -4.610   1.596  0.00  0.00    +0.066 C 
ATOM      4  N   UNL     1      -4.411  -6.038   1.637  0.00  0.00    -0.295 NA
ATOM      5  C   UNL     1      -4.179  -6.671   0.332  0.00  0.00    +0.066 C 
ATOM      6  C   UNL     1      -2.705  -6.517  -0.053  0.00  0.00    -0.063 C 
ATOM      7  H   UNL     1      -3.016  -4.602  -0.830  0.00  0.00    -0.081 HD
ENDROOT
BRANCH   4   8
ATOM      8  C   UNL     1      -5.799  -6.231   2.077  0.00  0.00    +0.140 C 
ATOM      9  C   UNL     1      -6.011  -5.529   3.420  0.00  0.00    +0.034 C 
BRANCH   8  10
ATOM     10  C   UNL     1      -6.736  -5.646   1.051  0.00  0.00    +0.234 C 
ATOM     11  O   UNL     1      -6.304  -4.928   0.175  0.00  0.00    -0.274 OA
ATOM     12  N   UNL     1      -8.054  -5.922   1.108  0.00  0.00    -0.284 N 
ATOM     13  H   UNL     1      -8.456  -6.520   1.940  0.00  0.00    +0.155 HD
BRANCH  12  14
ATOM     14  C   UNL     1      -8.912  -5.448   0.109  0.00  0.00    +0.034 A 
ATOM     15  C   UNL     1      -9.976  -6.229  -0.322  0.00  0.00    +0.023 A 
ATOM     16  C   UNL     1     -10.822  -5.759  -1.308  0.00  0.00    +0.003 A 
ATOM     17  C   UNL     1     -10.610  -4.512  -1.866  0.00  0.00    +0.015 A 
ATOM     18  C   UNL     1      -9.550  -3.731  -1.439  0.00  0.00    +0.020 A 
ATOM     19  C   UNL     1      -8.704  -4.194  -0.449  0.00  0.00    +0.038 A 
ATOM     20 BR   UNL     1      -9.264  -2.026  -2.205  0.00  0.00    -0.050 Br
ENDBRANCH  12  14
ENDBRANCH   8  10
ENDBRANCH   4   8
BRANCH   1  21
ATOM     21  C   UNL     1      -0.971  -4.896  -0.533  0.00  0.00    +0.019 C 
BRANCH  21  23
ATOM     22  N   UNL     1       0.486  -3.018  -1.216  0.00  0.00    -0.287 N 
ATOM     23  C   UNL     1      -0.727  -3.433  -0.800  0.00  0.00    +0.201 C 
ATOM     24  O   UNL     1      -1.621  -2.630  -0.639  0.00  0.00    -0.278 OA
ATOM     25  H   UNL     1       1.271  -3.753  -1.445  0.00  0.00    +0.155 HD
BRANCH  22  32
ATOM     26  C   UNL     1      -1.204  -1.498  -2.929  0.00  0.00    +0.045 C 
ATOM     27  C   UNL     1      -0.054  -0.871  -2.183  0.00  0.00    -0.029 A 
ATOM     28  C   UNL     1       0.201   0.480  -2.315  0.00  0.00    +0.005 A 
ATOM     29  C   UNL     1       1.260   1.055  -1.636  0.00  0.00    +0.001 A 
ATOM     30  C   UNL     1       2.062   0.281  -0.818  0.00  0.00    +0.005 A 
ATOM     31  C   UNL     1       1.808  -1.070  -0.677  0.00  0.00    -0.029 A 
ATOM     32  C   UNL     1       0.746  -1.650  -1.357  0.00  0.00    +0.039 A 
ATOM     33  C   UNL     1       2.682  -1.912   0.216  0.00  0.00    +0.045 C 
ENDBRANCH  22  32
ENDBRANCH  21  23
ENDBRANCH   1  21
TORSDOF 6
