REMARK  Name = ZINC12305987
REMARK  9 active torsions:
REMARK  status: ('A' for Active; 'I' for Inactive)
REMARK    1  A    between atoms: C_1  and  C_2
REMARK    2  A    between atoms: C_3  and  C_14
REMARK    3  A    between atoms: N_6  and  C_7
REMARK    4  A    between atoms: C_14  and  C_16
REMARK    5  A    between atoms: C_14  and  N_53
REMARK    6  A    between atoms: C_17  and  C_18
REMARK    7  A    between atoms: C_17  and  N_53
REMARK    8  A    between atoms: N_20  and  C_27
REMARK    9  A    between atoms: C_27  and  C_28
REMARK                            x       y       z     vdW  Elec       q    Type
REMARK                         _______ _______ _______ _____ _____    ______ ____
ROOT
ATOM      1  N   UNL     1       3.081   0.962   1.566  0.00  0.00    +0.386 N 
ATOM      2  H   UNL     1       2.909   1.939   1.831  0.00  0.00    -0.085 HD
ATOM      3  H   UNL     1       2.651   0.339   2.260  0.00  0.00    -0.085 HD
ENDROOT
BRANCH   1   4
ATOM      4  C   UNL     1       4.535   0.717   1.528  0.00  0.00    -0.040 C 
ATOM      5  C   UNL     1       4.809  -0.770   1.764  0.00  0.00    -0.009 C 
BRANCH   4   8
ATOM      6  C   UNL     1       7.510   1.684   1.535  0.00  0.00    +0.066 C 
ATOM      7  C   UNL     1       6.489   1.946   2.611  0.00  0.00    +0.043 A 
ATOM      8  C   UNL     1       5.202   1.528   2.609  0.00  0.00    -0.021 A 
ATOM      9  C   UNL     1       4.598   1.987   3.785  0.00  0.00    +0.137 A 
ATOM     10  N   UNL     1       5.492   2.649   4.473  0.00  0.00    -0.174 NA
ATOM     11  N   UNL     1       6.694   2.641   3.753  0.00  0.00    -0.237 N 
BRANCH  11  12
ATOM     12  C   UNL     1       7.896   3.246   4.146  0.00  0.00    +0.068 A 
ATOM     13  C   UNL     1       8.319   3.159   5.466  0.00  0.00    +0.028 A 
ATOM     14  C   UNL     1       9.505   3.752   5.851  0.00  0.00    +0.005 A 
ATOM     15  C   UNL     1      10.268   4.440   4.926  0.00  0.00    +0.038 A 
ATOM     16  C   UNL     1       9.847   4.534   3.610  0.00  0.00    +0.125 A 
ATOM     17  C   UNL     1       8.662   3.938   3.218  0.00  0.00    +0.066 A 
ATOM     18  F   UNL     1      10.594   5.208   2.708  0.00  0.00    -0.205 F 
ENDBRANCH  11  12
ENDBRANCH   4   8
ENDBRANCH   1   4
BRANCH   1  19
ATOM     19  C   UNL     1       2.483   0.704   0.243  0.00  0.00    -0.044 C 
BRANCH  19  20
ATOM     20  C   UNL     1       1.000   0.962   0.312  0.00  0.00    -0.039 A 
ATOM     21  C   UNL     1       0.034   0.038   0.439  0.00  0.00    +0.089 A 
ATOM     22  N   UNL     1      -1.192   0.646   0.460  0.00  0.00    -0.338 N 
ATOM     23  C   UNL     1      -1.040   2.010   0.353  0.00  0.00    +0.050 A 
ATOM     24  C   UNL     1       0.339   2.268   0.252  0.00  0.00    +0.001 A 
ATOM     25  C   UNL     1       0.795   3.581   0.126  0.00  0.00    +0.010 A 
ATOM     26  C   UNL     1      -0.103   4.611   0.101  0.00  0.00    +0.001 A 
ATOM     27  C   UNL     1      -1.464   4.362   0.201  0.00  0.00    +0.002 A 
ATOM     28  C   UNL     1      -1.936   3.074   0.326  0.00  0.00    +0.026 A 
BRANCH  22  29
ATOM     29  C   UNL     1      -2.475  -0.052   0.581  0.00  0.00    +0.217 C 
BRANCH  29  30
ATOM     30  C   UNL     1      -3.050  -0.288  -0.791  0.00  0.00    +0.230 C 
ATOM     31  O   UNL     1      -2.447   0.088  -1.774  0.00  0.00    -0.274 OA
ATOM     32  N   UNL     1      -4.233  -0.919  -0.927  0.00  0.00    -0.328 N 
ATOM     33  H   UNL     1      -4.715  -1.220  -0.141  0.00  0.00    +0.145 HD
ATOM     34  H   UNL     1      -4.603  -1.071  -1.810  0.00  0.00    +0.145 HD
ENDBRANCH  29  30
ENDBRANCH  22  29
ENDBRANCH  19  20
ENDBRANCH   1  19
TORSDOF 7
