REMARK  Name = ZINC20518971
REMARK  4 active torsions:
REMARK  status: ('A' for Active; 'I' for Inactive)
REMARK    1  A    between atoms: C_4  and  C_18
REMARK    2  A    between atoms: C_5  and  C_7
REMARK    3  A    between atoms: C_7  and  O_8
REMARK    4  A    between atoms: O_8  and  C_9
REMARK                            x       y       z     vdW  Elec       q    Type
REMARK                         _______ _______ _______ _____ _____    ______ ____
ROOT
ATOM      1  C   UNL     1       2.396   0.033  -0.021  0.00  0.00    +0.000 A 
ATOM      2  C   UNL     1       2.384   1.417  -0.014  0.00  0.00    +0.001 A 
ATOM      3  C   UNL     1       1.185   2.098   0.002  0.00  0.00    +0.011 A 
ATOM      4  C   UNL     1      -0.017   1.390   0.010  0.00  0.00    +0.018 A 
ATOM      5  C   UNL     1       0.002  -0.004   0.002  0.00  0.00    -0.000 A 
ATOM      6  C   UNL     1       1.208  -0.675  -0.013  0.00  0.00    +0.007 A 
ENDROOT
BRANCH   4   7
ATOM      7  C   UNL     1      -1.308   2.116   0.020  0.00  0.00    +0.095 C 
ATOM      8  N   UNL     1      -2.428   1.452   0.021  0.00  0.00    -0.387 N 
ATOM      9  N   UNL     1      -1.323   3.494   0.027  0.00  0.00    -0.345 N 
ATOM     10  H   UNL     1      -3.387   1.991   0.029  0.00  0.00    +0.157 HD
ATOM     11  H   UNL     1      -2.282   4.033   0.035  0.00  0.00    +0.144 HD
ATOM     12  H   UNL     1      -0.377   4.054   0.026  0.00  0.00    +0.144 HD
ATOM     13  H   UNL     1      -2.416   0.352   0.015  0.00  0.00    +0.157 HD
ENDBRANCH   4   7
BRANCH   5  14
ATOM     14  C   UNL     1      -1.292  -0.777   0.010  0.00  0.00    +0.265 C 
BRANCH  14  15
ATOM     15  O   UNL     1      -1.010  -2.178  -0.000  0.00  0.00    -0.485 OA
BRANCH  15  16
ATOM     16  C   UNL     1      -2.076  -3.022   0.005  0.00  0.00    +0.149 A 
ATOM     17  C   UNL     1      -2.606  -3.464   1.208  0.00  0.00    +0.062 A 
ATOM     18  C   UNL     1      -3.693  -4.318   1.211  0.00  0.00    +0.034 A 
ATOM     19  C   UNL     1      -4.246  -4.740   0.015  0.00  0.00    +0.020 A 
ATOM     20  C   UNL     1      -3.715  -4.305  -1.186  0.00  0.00    +0.034 A 
ATOM     21  C   UNL     1      -2.631  -3.447  -1.194  0.00  0.00    +0.062 A 
ATOM     22 BR   UNL     1      -1.907  -2.852  -2.836  0.00  0.00    -0.046 Br
ATOM     23 BR   UNL     1      -5.729  -5.913   0.023  0.00  0.00    -0.050 Br
ATOM     24 BR   UNL     1      -1.846  -2.894   2.844  0.00  0.00    -0.046 Br
ENDBRANCH  15  16
ENDBRANCH  14  15
ENDBRANCH   5  14
TORSDOF 4
