REMARK  Name = ZINC40151091
REMARK  9 active torsions:
REMARK  status: ('A' for Active; 'I' for Inactive)
REMARK    1  A    between atoms: C_8  and  C_13
REMARK    2  A    between atoms: C_13  and  C_23
REMARK    3  A    between atoms: N_14  and  N_15
REMARK    4  A    between atoms: N_15  and  C_16
REMARK    5  A    between atoms: C_23  and  C_25
REMARK    6  A    between atoms: C_23  and  O_30
REMARK    7  A    between atoms: C_25  and  C_27
REMARK    8  A    between atoms: C_25  and  O_29
REMARK    9  A    between atoms: C_27  and  O_28
REMARK                            x       y       z     vdW  Elec       q    Type
REMARK                         _______ _______ _______ _____ _____    ______ ____
ROOT
ATOM      1  C   UNL     1       2.785  -3.498   1.187  0.00  0.00    +0.099 C 
ATOM      2  N   UNL     1       2.181  -3.020   2.209  0.00  0.00    -0.186 NA
ENDROOT
BRANCH   1  10
ATOM      3  C   UNL     1       5.898  -3.941  -3.616  0.00  0.00    +0.002 A 
ATOM      4  C   UNL     1       4.781  -4.303  -4.386  0.00  0.00    +0.002 A 
ATOM      5  C   UNL     1       3.510  -4.186  -3.933  0.00  0.00    +0.025 A 
ATOM      6  C   UNL     1       3.256  -3.684  -2.637  0.00  0.00    +0.057 A 
ATOM      7  N   UNL     1       2.014  -3.572  -2.200  0.00  0.00    -0.282 N 
ATOM      8  C   UNL     1       1.740  -3.102  -0.981  0.00  0.00    +0.245 C 
ATOM      9  O   UNL     1       0.590  -3.009  -0.600  0.00  0.00    -0.273 OA
ATOM     10  C   UNL     1       2.881  -2.686  -0.080  0.00  0.00    +0.215 C 
ATOM     11  N   UNL     1       4.252  -2.823  -0.596  0.00  0.00    -0.368 N 
ATOM     12  C   UNL     1       4.418  -3.293  -1.799  0.00  0.00    +0.058 A 
ATOM     13  C   UNL     1       5.768  -3.450  -2.364  0.00  0.00    +0.027 A 
ATOM     14  H   UNL     1       1.282  -3.838  -2.779  0.00  0.00    +0.155 HD
ATOM     15  H   UNL     1       5.014  -2.569  -0.053  0.00  0.00    +0.161 HD
ENDBRANCH   1  10
BRANCH   2  16
ATOM     16  N   UNL     1       1.502  -1.798   2.114  0.00  0.00    -0.238 N 
ATOM     17  H   UNL     1       1.548  -1.280   1.294  0.00  0.00    +0.174 HD
BRANCH  16  18
ATOM     18  C   UNL     1       0.761  -1.324   3.198  0.00  0.00    +0.051 A 
ATOM     19  C   UNL     1       0.701  -2.062   4.375  0.00  0.00    +0.025 A 
ATOM     20  C   UNL     1      -0.033  -1.592   5.446  0.00  0.00    +0.005 A 
ATOM     21  C   UNL     1      -0.708  -0.388   5.350  0.00  0.00    +0.038 A 
ATOM     22  C   UNL     1      -0.650   0.350   4.179  0.00  0.00    +0.125 A 
ATOM     23  C   UNL     1       0.088  -0.113   3.105  0.00  0.00    +0.063 A 
ATOM     24  F   UNL     1      -1.310   1.525   4.089  0.00  0.00    -0.205 F 
ENDBRANCH  16  18
ENDBRANCH   2  16
BRANCH   1  25
ATOM     25  C   UNL     1       3.401  -4.872   1.249  0.00  0.00    +0.193 C 
BRANCH  25  26
ATOM     26  O   UNL     1       4.609  -4.888   0.486  0.00  0.00    -0.383 OA
ATOM     27  H   UNL     1       5.307  -4.322   0.843  0.00  0.00    +0.210 HD
ENDBRANCH  25  26
BRANCH  25  28
ATOM     28  C   UNL     1       2.420  -5.896   0.674  0.00  0.00    +0.174 C 
BRANCH  28  29
ATOM     29  O   UNL     1       1.212  -5.880   1.437  0.00  0.00    -0.387 OA
ATOM     30  H   UNL     1       1.334  -6.096   2.372  0.00  0.00    +0.210 HD
ENDBRANCH  28  29
BRANCH  28  31
ATOM     31  C   UNL     1       3.045  -7.292   0.738  0.00  0.00    +0.190 C 
BRANCH  31  32
ATOM     32  O   UNL     1       2.180  -8.231   0.096  0.00  0.00    -0.392 OA
ATOM     33  H   UNL     1       2.514  -9.138   0.098  0.00  0.00    +0.210 HD
ENDBRANCH  31  32
ENDBRANCH  28  31
ENDBRANCH  25  28
ENDBRANCH   1  25
TORSDOF 9
