REMARK  Name = ZINC40151326
REMARK  9 active torsions:
REMARK  status: ('A' for Active; 'I' for Inactive)
REMARK    1  A    between atoms: C_5  and  C_7
REMARK    2  A    between atoms: N_9  and  N_10
REMARK    3  A    between atoms: C_11  and  C_12
REMARK    4  A    between atoms: C_11  and  C_25
REMARK    5  A    between atoms: C_25  and  C_27
REMARK    6  A    between atoms: C_25  and  O_32
REMARK    7  A    between atoms: C_27  and  C_29
REMARK    8  A    between atoms: C_27  and  O_31
REMARK    9  A    between atoms: C_29  and  O_30
REMARK                            x       y       z     vdW  Elec       q    Type
REMARK                         _______ _______ _______ _____ _____    ______ ____
ROOT
ATOM      1  N   UNL     1       0.093  -4.320  -0.228  0.00  0.00    -0.184 NA
ATOM      2  C   UNL     1      -0.957  -4.921   0.190  0.00  0.00    +0.099 C 
ENDROOT
BRANCH   2   3
ATOM      3  C   UNL     1      -2.281  -4.201   0.208  0.00  0.00    +0.215 C 
ATOM      4  C   UNL     1      -2.867  -4.280  -1.183  0.00  0.00    +0.245 C 
ATOM      5  O   UNL     1      -3.071  -5.358  -1.705  0.00  0.00    -0.273 OA
ATOM      6  N   UNL     1      -3.159  -3.149  -1.830  0.00  0.00    -0.282 N 
ATOM      7  C   UNL     1      -2.948  -1.964  -1.285  0.00  0.00    +0.057 A 
ATOM      8  C   UNL     1      -3.268  -0.787  -1.998  0.00  0.00    +0.027 A 
ATOM      9  C   UNL     1      -3.054   0.430  -1.446  0.00  0.00    +0.022 A 
ATOM     10  C   UNL     1      -2.511   0.595  -0.159  0.00  0.00    +0.043 A 
ATOM     11  C   UNL     1      -2.171  -0.465   0.609  0.00  0.00    +0.047 A 
ATOM     12  C   UNL     1      -2.374  -1.822   0.077  0.00  0.00    +0.059 A 
ATOM     13  N   UNL     1      -2.057  -2.866   0.786  0.00  0.00    -0.368 N 
ATOM     14 CL   UNL     1      -2.274   2.200   0.460  0.00  0.00    -0.083 Cl
ATOM     15  H   UNL     1      -3.535  -3.199  -2.723  0.00  0.00    +0.155 HD
ATOM     16  H   UNL     1      -1.683  -2.767   1.675  0.00  0.00    +0.161 HD
ENDBRANCH   2   3
BRANCH   1  19
ATOM     17  C   UNL     1       1.095  -2.380  -1.176  0.00  0.00    +0.265 C 
ATOM     18  O   UNL     1       2.191  -2.878  -1.007  0.00  0.00    -0.268 OA
ATOM     19  N   UNL     1      -0.016  -3.068  -0.848  0.00  0.00    -0.203 N 
ATOM     20  H   UNL     1      -0.891  -2.697  -1.041  0.00  0.00    +0.178 HD
BRANCH  17  25
ATOM     21  C   UNL     1      -0.371   0.768  -2.605  0.00  0.00    +0.001 A 
ATOM     22  C   UNL     1       0.767   1.530  -2.804  0.00  0.00    +0.001 A 
ATOM     23  C   UNL     1       2.012   1.025  -2.475  0.00  0.00    +0.021 A 
ATOM     24  C   UNL     1       2.127  -0.246  -1.945  0.00  0.00    +0.053 A 
ATOM     25  C   UNL     1       0.981  -1.020  -1.742  0.00  0.00    +0.057 A 
ATOM     26  C   UNL     1      -0.272  -0.502  -2.076  0.00  0.00    +0.014 A 
ATOM     27 CL   UNL     1       3.689  -0.879  -1.534  0.00  0.00    -0.083 Cl
ENDBRANCH  17  25
ENDBRANCH   1  19
BRANCH   2  28
ATOM     28  C   UNL     1      -0.870  -6.349   0.663  0.00  0.00    +0.193 C 
BRANCH  28  29
ATOM     29  O   UNL     1      -1.285  -6.425   2.029  0.00  0.00    -0.383 OA
ATOM     30  H   UNL     1      -2.193  -6.129   2.180  0.00  0.00    +0.210 HD
ENDBRANCH  28  29
BRANCH  28  31
ATOM     31  C   UNL     1       0.575  -6.839   0.542  0.00  0.00    +0.174 C 
BRANCH  31  32
ATOM     32  O   UNL     1       0.990  -6.764  -0.823  0.00  0.00    -0.387 OA
ATOM     33  H   UNL     1       0.456  -7.298  -1.427  0.00  0.00    +0.210 HD
ENDBRANCH  31  32
BRANCH  31  34
ATOM     34  C   UNL     1       0.663  -8.289   1.023  0.00  0.00    +0.190 C 
BRANCH  34  35
ATOM     35  O   UNL     1       2.029  -8.709   1.020  0.00  0.00    -0.392 OA
ATOM     36  H   UNL     1       2.161  -9.621   1.314  0.00  0.00    +0.210 HD
ENDBRANCH  34  35
ENDBRANCH  31  34
ENDBRANCH  28  31
ENDBRANCH   2  28
TORSDOF 9
