REMARK  Name = ZINC22052595
REMARK  10 active torsions:
REMARK  status: ('A' for Active; 'I' for Inactive)
REMARK    1  A    between atoms: C_1  and  C_2
REMARK    2  A    between atoms: C_6  and  C_39
REMARK    3  A    between atoms: C_7  and  N_8
REMARK    4  A    between atoms: C_17  and  C_19
REMARK    5  A    between atoms: C_19  and  C_21
REMARK    6  A    between atoms: C_19  and  N_22
REMARK    7  A    between atoms: N_25  and  S_28
REMARK    8  A    between atoms: S_28  and  C_31
REMARK    9  A    between atoms: C_34  and  O_37
REMARK   10  A    between atoms: O_37  and  C_38
REMARK                            x       y       z     vdW  Elec       q    Type
REMARK                         _______ _______ _______ _____ _____    ______ ____
ROOT
ATOM      1  N   UNL     1       0.292   6.154  -3.325  0.00  0.00    -0.298 N 
ATOM      2  C   UNL     1      -0.885   6.370  -2.640  0.00  0.00    +0.134 A 
ATOM      3  C   UNL     1      -0.908   7.157  -1.463  0.00  0.00    +0.040 A 
ATOM      4  C   UNL     1       0.247   7.751  -0.943  0.00  0.00    +0.013 A 
ATOM      5  C   UNL     1       0.164   8.500   0.194  0.00  0.00    +0.001 A 
ATOM      6  C   UNL     1      -1.054   8.681   0.843  0.00  0.00    +0.002 A 
ATOM      7  C   UNL     1      -2.198   8.117   0.361  0.00  0.00    +0.028 A 
ATOM      8  C   UNL     1      -2.148   7.341  -0.805  0.00  0.00    +0.076 A 
ATOM      9  N   UNL     1      -3.244   6.767  -1.324  0.00  0.00    -0.230 NA
ATOM     10  C   UNL     1      -3.163   6.043  -2.415  0.00  0.00    +0.149 A 
ATOM     11  N   UNL     1      -2.027   5.844  -3.064  0.00  0.00    -0.215 NA
ATOM     12  H   UNL     1       1.242   6.536  -2.922  0.00  0.00    +0.154 HD
ENDROOT
BRANCH   1  19
ATOM     13  C   UNL     1       0.030   3.322  -3.227  0.00  0.00    +0.045 C 
ATOM     14  C   UNL     1       0.153   4.067  -4.531  0.00  0.00    -0.029 A 
ATOM     15  C   UNL     1       0.136   3.375  -5.727  0.00  0.00    +0.005 A 
ATOM     16  C   UNL     1       0.254   4.057  -6.924  0.00  0.00    +0.001 A 
ATOM     17  C   UNL     1       0.385   5.434  -6.929  0.00  0.00    +0.005 A 
ATOM     18  C   UNL     1       0.398   6.132  -5.737  0.00  0.00    -0.029 A 
ATOM     19  C   UNL     1       0.279   5.450  -4.533  0.00  0.00    +0.038 A 
ATOM     20  C   UNL     1       0.540   7.633  -5.744  0.00  0.00    +0.045 C 
ENDBRANCH   1  19
BRANCH  10  21
ATOM     21  C   UNL     1      -4.420   5.415  -2.957  0.00  0.00    +0.122 C 
ATOM     22  C   UNL     1      -5.302   6.497  -3.583  0.00  0.00    +0.032 C 
BRANCH  21  23
ATOM     23  N   UNL     1      -5.151   4.760  -1.863  0.00  0.00    -0.290 NA
ATOM     24  C   UNL     1      -4.299   3.784  -1.171  0.00  0.00    +0.102 C 
ATOM     25  C   UNL     1      -5.033   3.258   0.067  0.00  0.00    +0.125 C 
ATOM     26  N   UNL     1      -6.348   2.750  -0.350  0.00  0.00    -0.174 NA
ATOM     27  C   UNL     1      -7.205   3.624  -1.166  0.00  0.00    +0.125 C 
ATOM     28  C   UNL     1      -6.386   4.135  -2.356  0.00  0.00    +0.102 C 
BRANCH  26  29
ATOM     29  S   UNL     1      -6.852   1.234   0.088  0.00  0.00    +0.061 S 
ATOM     30  O   UNL     1      -6.129   0.890   1.262  0.00  0.00    -0.153 OA
ATOM     31  O   UNL     1      -8.272   1.250   0.046  0.00  0.00    -0.153 OA
BRANCH  29  32
ATOM     32  C   UNL     1      -6.323   0.125  -1.174  0.00  0.00    +0.106 A 
ATOM     33  C   UNL     1      -7.149  -0.141  -2.250  0.00  0.00    +0.032 A 
ATOM     34  C   UNL     1      -6.734  -1.006  -3.244  0.00  0.00    +0.047 A 
ATOM     35  C   UNL     1      -5.492  -1.618  -3.155  0.00  0.00    +0.120 A 
ATOM     36  C   UNL     1      -4.667  -1.354  -2.071  0.00  0.00    +0.047 A 
ATOM     37  C   UNL     1      -5.084  -0.484  -1.083  0.00  0.00    +0.032 A 
BRANCH  35  38
ATOM     38  O   UNL     1      -5.083  -2.474  -4.129  0.00  0.00    -0.495 OA
ATOM     39  C   UNL     1      -5.984  -2.698  -5.215  0.00  0.00    +0.277 C 
ENDBRANCH  35  38
ENDBRANCH  29  32
ENDBRANCH  26  29
ENDBRANCH  21  23
ENDBRANCH  10  21
TORSDOF 6
