REMARK  Name = ZINC20357131
REMARK  11 active torsions:
REMARK  status: ('A' for Active; 'I' for Inactive)
REMARK    1  A    between atoms: C_1  and  C_2
REMARK    2  A    between atoms: C_5  and  N_9
REMARK    3  A    between atoms: N_9  and  C_10
REMARK    4  A    between atoms: C_10  and  N_12
REMARK    5  A    between atoms: N_12  and  C_13
REMARK    6  A    between atoms: N_12  and  C_20
REMARK    7  A    between atoms: C_13  and  C_14
REMARK    8  A    between atoms: C_22  and  C_28
REMARK    9  A    between atoms: C_22  and  C_29
REMARK   10  A    between atoms: C_24  and  C_26
REMARK   11  A    between atoms: C_24  and  C_27
REMARK                            x       y       z     vdW  Elec       q    Type
REMARK                         _______ _______ _______ _____ _____    ______ ____
ROOT
ATOM      1  N   UNL     1       1.212   3.186  -3.477  0.00  0.00    -0.305 N 
ENDROOT
BRANCH   1   2
ATOM      2  C   UNL     1       0.916   2.614  -2.157  0.00  0.00    +0.073 C 
ATOM      3  C   UNL     1      -0.330   3.289  -1.584  0.00  0.00    +0.009 C 
ATOM      4  C   UNL     1      -0.650   2.727  -0.201  0.00  0.00    -0.072 C 
ATOM      5  N   UNL     1       0.500   2.705   0.679  0.00  0.00    +0.386 N 
ATOM      6  C   UNL     1       1.800   2.319   0.172  0.00  0.00    -0.072 C 
ATOM      7  C   UNL     1       2.090   2.883  -1.217  0.00  0.00    +0.009 C 
ATOM      8  C   UNL     1       2.876   2.871   1.133  0.00  0.00    -0.010 C 
ATOM      9  C   UNL     1       1.954   0.793   0.147  0.00  0.00    -0.010 C 
ATOM     10  C   UNL     1      -1.265   1.330  -0.345  0.00  0.00    -0.010 C 
ATOM     11  C   UNL     1      -1.726   3.637   0.433  0.00  0.00    -0.010 C 
ATOM     12  H   UNL     1       0.666   3.711   1.090  0.00  0.00    -0.084 HD
ATOM     13  H   UNL     1       0.318   1.998   1.502  0.00  0.00    -0.084 HD
ENDBRANCH   1   2
BRANCH   1  14
ATOM     14  C   UNL     1       1.355   2.377  -4.545  0.00  0.00    +0.138 C 
ATOM     15  S   UNL     1       1.801   3.034  -6.062  0.00  0.00    -0.018 S 
BRANCH  14  16
ATOM     16  N   UNL     1       1.147   1.052  -4.420  0.00  0.00    -0.296 N 
ATOM     17  H   UNL     1       0.192   0.611  -4.743  0.00  0.00    +0.154 HD
BRANCH  16  22
ATOM     18  C   UNL     1       5.197  -2.258  -2.220  0.00  0.00    +0.044 C 
ATOM     19  C   UNL     1       4.122  -1.379  -2.805  0.00  0.00    -0.049 A 
ATOM     20  C   UNL     1       4.336  -0.019  -2.935  0.00  0.00    +0.005 A 
ATOM     21  C   UNL     1       3.353   0.789  -3.470  0.00  0.00    +0.025 A 
ATOM     22  C   UNL     1       2.146   0.235  -3.878  0.00  0.00    +0.051 A 
ATOM     23  C   UNL     1       1.931  -1.131  -3.741  0.00  0.00    +0.062 A 
ATOM     24  C   UNL     1       2.922  -1.935  -3.210  0.00  0.00    +0.025 A 
ATOM     25 CL   UNL     1       0.423  -1.828  -4.244  0.00  0.00    -0.082 Cl
ENDBRANCH  16  22
ENDBRANCH  14  16
ENDBRANCH   1  14
BRANCH   1  26
ATOM     26  C   UNL     1       1.351   4.636  -3.632  0.00  0.00    +0.142 C 
BRANCH  26  27
ATOM     27  C   UNL     1       2.793   5.026  -3.433  0.00  0.00    -0.027 A 
ATOM     28  C   UNL     1       3.237   5.504  -2.209  0.00  0.00    +0.025 A 
ATOM     29  C   UNL     1       4.567   5.847  -2.062  0.00  0.00    +0.111 A 
ATOM     30  N   UNL     1       5.408   5.735  -3.072  0.00  0.00    -0.263 NA
ATOM     31  C   UNL     1       5.021   5.289  -4.251  0.00  0.00    +0.111 A 
ATOM     32  C   UNL     1       3.707   4.921  -4.471  0.00  0.00    +0.025 A 
ENDBRANCH  26  27
ENDBRANCH   1  26
TORSDOF 6
