REMARK  Name = ZINC10436295
REMARK  11 active torsions:
REMARK  status: ('A' for Active; 'I' for Inactive)
REMARK    1  A    between atoms: C_1  and  C_2
REMARK    2  A    between atoms: C_2  and  C_3
REMARK    3  A    between atoms: C_3  and  C_4
REMARK    4  A    between atoms: C_4  and  C_6
REMARK    5  A    between atoms: C_4  and  N_52
REMARK    6  A    between atoms: C_12  and  C_13
REMARK    7  A    between atoms: C_12  and  N_52
REMARK    8  A    between atoms: C_16  and  C_18
REMARK    9  A    between atoms: C_21  and  C_24
REMARK   10  A    between atoms: C_24  and  C_26
REMARK   11  A    between atoms: C_24  and  O_27
REMARK                            x       y       z     vdW  Elec       q    Type
REMARK                         _______ _______ _______ _____ _____    ______ ____
ROOT
ATOM      1  C   UNL     1       4.504   4.571   0.218  0.00  0.00    +0.089 A 
ATOM      2  C   UNL     1       3.872   5.747   0.397  0.00  0.00    +0.043 A 
ATOM      3  C   UNL     1       2.491   5.471   0.441  0.00  0.00    +0.050 A 
ATOM      4  C   UNL     1       2.356   4.127   0.294  0.00  0.00    +0.135 A 
ATOM      5  O   UNL     1       3.585   3.594   0.157  0.00  0.00    -0.462 OA
ENDROOT
BRANCH   4   6
ATOM      6  C   UNL     1       1.080   3.380   0.281  0.00  0.00    +0.017 A 
ATOM      7  C   UNL     1       1.081   1.994   0.116  0.00  0.00    +0.012 A 
ATOM      8  C   UNL     1      -0.113   1.302   0.105  0.00  0.00    +0.007 A 
ATOM      9  C   UNL     1      -1.309   1.981   0.252  0.00  0.00    -0.019 A 
ATOM     10  C   UNL     1      -1.317   3.354   0.422  0.00  0.00    +0.007 A 
ATOM     11  C   UNL     1      -0.131   4.057   0.435  0.00  0.00    +0.012 A 
BRANCH   9  12
ATOM     12  C   UNL     1      -2.610   1.220   0.234  0.00  0.00    +0.141 C 
ATOM     13  C   UNL     1      -3.098   1.009   1.668  0.00  0.00    +0.043 C 
BRANCH  12  14
ATOM     14  O   UNL     1      -3.587   1.964  -0.497  0.00  0.00    -0.387 OA
ATOM     15  H   UNL     1      -3.773   2.838  -0.128  0.00  0.00    +0.210 HD
ENDBRANCH  12  14
ENDBRANCH   9  12
ENDBRANCH   4   6
BRANCH   1  16
ATOM     16  C   UNL     1       5.995   4.383   0.106  0.00  0.00    -0.006 C 
BRANCH  16  17
ATOM     17  N   UNL     1       6.557   4.158   1.452  0.00  0.00    +0.388 N 
ATOM     18  H   UNL     1       6.418   5.001   2.021  0.00  0.00    -0.084 HD
ATOM     19  H   UNL     1       6.076   3.365   1.891  0.00  0.00    -0.084 HD
BRANCH  17  20
ATOM     20  C   UNL     1       7.999   3.863   1.362  0.00  0.00    -0.040 C 
BRANCH  20  21
ATOM     21  C   UNL     1       8.412   3.044   2.557  0.00  0.00    -0.061 A 
ATOM     22  C   UNL     1       7.897   3.336   3.807  0.00  0.00    +0.002 A 
ATOM     23  C   UNL     1       8.272   2.581   4.902  0.00  0.00    +0.000 A 
ATOM     24  C   UNL     1       9.170   1.541   4.751  0.00  0.00    +0.000 A 
ATOM     25  C   UNL     1       9.688   1.252   3.502  0.00  0.00    +0.000 A 
ATOM     26  C   UNL     1       9.310   2.003   2.406  0.00  0.00    +0.002 A 
ENDBRANCH  20  21
BRANCH  20  27
ATOM     27  C   UNL     1       8.789   5.174   1.345  0.00  0.00    -0.011 C 
BRANCH  27  29
ATOM     28  C   UNL     1      11.041   6.186   0.968  0.00  0.00    +0.004 C 
ATOM     29  C   UNL     1      10.272   4.873   1.120  0.00  0.00    -0.005 C 
ENDBRANCH  27  29
ENDBRANCH  20  27
ENDBRANCH  17  20
ENDBRANCH  16  17
ENDBRANCH   1  16
TORSDOF 9
