REMARK  Name = ZINC67524853
REMARK  8 active torsions:
REMARK  status: ('A' for Active; 'I' for Inactive)
REMARK    1  A    between atoms: C_1  and  O_2
REMARK    2  A    between atoms: O_2  and  C_3
REMARK    3  A    between atoms: N_5  and  C_6
REMARK    4  A    between atoms: C_8  and  N_13
REMARK    5  A    between atoms: C_14  and  C_16
REMARK    6  A    between atoms: N_18  and  C_19
REMARK    7  A    between atoms: C_19  and  C_20
REMARK    8  A    between atoms: N_24  and  C_26
REMARK                            x       y       z     vdW  Elec       q    Type
REMARK                         _______ _______ _______ _____ _____    ______ ____
ROOT
ATOM      1  N   UNL     1      -6.008  -1.902   0.266  0.00  0.00    -0.278 N 
ATOM      2  C   UNL     1      -7.162  -2.566   0.475  0.00  0.00    +0.303 C 
ATOM      3  O   UNL     1      -7.161  -3.778   0.544  0.00  0.00    -0.265 OA
ATOM      4  H   UNL     1      -6.020  -0.942   0.126  0.00  0.00    +0.155 HD
ENDROOT
BRANCH   1   7
ATOM      5  C   UNL     1      -2.514  -2.784  -0.478  0.00  0.00    +0.073 A 
ATOM      6  C   UNL     1      -3.716  -2.093  -0.465  0.00  0.00    +0.049 A 
ATOM      7  C   UNL     1      -4.795  -2.596   0.249  0.00  0.00    +0.036 A 
ATOM      8  C   UNL     1      -4.668  -3.790   0.949  0.00  0.00    +0.026 A 
ATOM      9  C   UNL     1      -3.469  -4.477   0.935  0.00  0.00    +0.042 A 
ATOM     10  C   UNL     1      -2.394  -3.982   0.219  0.00  0.00    +0.145 A 
ATOM     11  F   UNL     1      -1.225  -4.659   0.202  0.00  0.00    -0.204 F 
BRANCH   5  14
ATOM     12  C   UNL     1      -1.227  -0.948  -1.279  0.00  0.00    +0.404 C 
ATOM     13  O   UNL     1      -2.042  -0.184  -0.801  0.00  0.00    -0.226 OA
ATOM     14  N   UNL     1      -1.423  -2.279  -1.198  0.00  0.00    -0.248 N 
ATOM     15  H   UNL     1      -0.809  -2.888  -1.637  0.00  0.00    +0.158 HD
BRANCH  12  17
ATOM     16  C   UNL     1       0.014   0.955  -1.940  0.00  0.00    +0.282 C 
ATOM     17  O   UNL     1      -0.129  -0.466  -1.891  0.00  0.00    -0.453 OA
ENDBRANCH  12  17
ENDBRANCH   5  14
ENDBRANCH   1   7
BRANCH   2  18
ATOM     18  C   UNL     1      -8.442  -1.811   0.623  0.00  0.00    +0.299 C 
ATOM     19  O   UNL     1      -8.443  -0.600   0.554  0.00  0.00    -0.265 OA
ATOM     20  N   UNL     1      -9.596  -2.475   0.832  0.00  0.00    -0.307 N 
ATOM     21  H   UNL     1      -9.595  -3.444   0.887  0.00  0.00    +0.149 HD
BRANCH  20  22
ATOM     22  C   UNL     1     -10.852  -1.735   0.977  0.00  0.00    +0.106 C 
BRANCH  22  23
ATOM     23  C   UNL     1     -12.001  -2.719   1.204  0.00  0.00    -0.012 C 
ATOM     24  C   UNL     1     -12.292  -3.539  -0.080  0.00  0.00    -0.015 C 
ATOM     25  C   UNL     1     -13.780  -3.916   0.078  0.00  0.00    -0.078 C 
ATOM     26  N   UNL     1     -14.382  -2.940   1.006  0.00  0.00    +0.382 N 
ATOM     27  C   UNL     1     -13.341  -1.969   1.408  0.00  0.00    -0.074 C 
ATOM     28  H   UNL     1     -14.732  -3.420   1.822  0.00  0.00    -0.081 HD
BRANCH  26  29
ATOM     29  C   UNL     1     -15.484  -2.236   0.337  0.00  0.00    -0.069 C 
ATOM     30  C   UNL     1     -16.823  -2.160   1.073  0.00  0.00    -0.017 C 
ATOM     31  C   UNL     1     -16.670  -3.075  -0.143  0.00  0.00    -0.017 C 
ENDBRANCH  26  29
ENDBRANCH  22  23
ENDBRANCH  20  22
ENDBRANCH   2  18
TORSDOF 7
