REMARK  Name = ZINC53290309
REMARK  3 active torsions:
REMARK  status: ('A' for Active; 'I' for Inactive)
REMARK    1  A    between atoms: C_3  and  C_13
REMARK    2  A    between atoms: C_5  and  N_7
REMARK    3  A    between atoms: C_18  and  C_21
REMARK                            x       y       z     vdW  Elec       q    Type
REMARK                         _______ _______ _______ _____ _____    ______ ____
ROOT
ATOM      1  C   UNL     1       3.656   2.171   0.010  0.00  0.00    +0.250 C 
ATOM      2  O   UNL     1       4.718   1.579   0.011  0.00  0.00    -0.270 OA
ATOM      3  N   UNL     1       3.635   3.518   0.017  0.00  0.00    -0.261 N 
ATOM      4  C   UNL     1       4.827   4.231   0.025  0.00  0.00    +0.165 A 
ATOM      5  N   UNL     1       5.017   5.536   0.037  0.00  0.00    -0.221 NA
ATOM      6  C   UNL     1       6.244   6.053   0.043  0.00  0.00    +0.115 A 
ATOM      7  C   UNL     1       7.324   5.212   0.036  0.00  0.00    +0.080 A 
ATOM      8  S   UNL     1       6.507   3.622   0.028  0.00  0.00    -0.060 S 
ATOM      9  H   UNL     1       2.788   3.990   0.017  0.00  0.00    +0.157 HD
ENDROOT
BRANCH   1  12
ATOM     10  C   UNL     1      -0.017   1.378  -0.006  0.00  0.00    +0.003 A 
ATOM     11  C   UNL     1       1.166   2.089   0.002  0.00  0.00    +0.013 A 
ATOM     12  C   UNL     1       2.387   1.412   0.002  0.00  0.00    +0.039 A 
ATOM     13  C   UNL     1       2.406   0.017  -0.005  0.00  0.00    +0.036 A 
ATOM     14  C   UNL     1       1.212  -0.687  -0.013  0.00  0.00    +0.039 A 
ATOM     15  C   UNL     1       0.002  -0.004  -0.014  0.00  0.00    +0.023 A 
BRANCH  14  16
ATOM     16  N   UNL     1       1.226  -2.087  -0.021  0.00  0.00    -0.254 N 
ATOM     17  C   UNL     1       0.040  -2.951   0.084  0.00  0.00    +0.134 C 
ATOM     18  C   UNL     1       0.618  -4.379   0.024  0.00  0.00    +0.125 C 
ATOM     19  N   UNL     1       2.067  -4.167  -0.109  0.00  0.00    -0.297 N 
ATOM     20  C   UNL     1       2.320  -2.852  -0.131  0.00  0.00    +0.307 C 
ATOM     21  O   UNL     1       3.441  -2.394  -0.238  0.00  0.00    -0.252 OA
ATOM     22  H   UNL     1       2.733  -4.869  -0.173  0.00  0.00    +0.150 HD
ENDBRANCH  14  16
ENDBRANCH   1  12
BRANCH   6  23
ATOM     23  C   UNL     1       6.438   7.519   0.057  0.00  0.00    +0.153 A 
ATOM     24  C   UNL     1       5.451   8.454   0.071  0.00  0.00    +0.051 A 
ATOM     25  C   UNL     1       6.085   9.713   0.081  0.00  0.00    +0.042 A 
ATOM     26  C   UNL     1       7.413   9.487   0.073  0.00  0.00    +0.196 A 
ATOM     27  O   UNL     1       7.622   8.159   0.064  0.00  0.00    -0.461 OA
ENDBRANCH   6  23
TORSDOF 3
