REMARK  Name = ZINC09227836
REMARK  13 active torsions:
REMARK  status: ('A' for Active; 'I' for Inactive)
REMARK    1  A    between atoms: C_1  and  C_2
REMARK    2  A    between atoms: C_2  and  N_77
REMARK    3  A    between atoms: C_6  and  C_8
REMARK    4  A    between atoms: C_8  and  N_9
REMARK    5  A    between atoms: C_10  and  C_12
REMARK    6  A    between atoms: N_15  and  C_30
REMARK    7  A    between atoms: C_16  and  C_17
REMARK    8  A    between atoms: C_23  and  O_25
REMARK    9  A    between atoms: O_25  and  C_26
REMARK   10  A    between atoms: C_26  and  C_27
REMARK   11  A    between atoms: C_26  and  C_28
REMARK   12  A    between atoms: C_26  and  C_29
REMARK   13  A    between atoms: C_33  and  C_36
REMARK                            x       y       z     vdW  Elec       q    Type
REMARK                         _______ _______ _______ _____ _____    ______ ____
ROOT
ATOM      1  C   UNL     1      -0.777   1.742   0.487  0.00  0.00    +0.078 A 
ATOM      2  C   UNL     1       0.305   0.833   0.445  0.00  0.00    +0.148 A 
ATOM      3  N   UNL     1       1.409   1.523   0.358  0.00  0.00    -0.174 NA
ATOM      4  N   UNL     1       1.093   2.886   0.347  0.00  0.00    -0.236 N 
ATOM      5  C   UNL     1      -0.244   3.014   0.429  0.00  0.00    +0.060 A 
ENDROOT
BRANCH   5   6
ATOM      6  C   UNL     1      -1.017   4.307   0.448  0.00  0.00    +0.042 C 
ATOM      7  C   UNL     1      -1.856   4.381   1.726  0.00  0.00    +0.029 C 
ATOM      8  C   UNL     1      -2.614   5.712   1.758  0.00  0.00    +0.112 C 
ATOM      9  N   UNL     1      -3.390   5.844   0.518  0.00  0.00    -0.267 N 
ATOM     10  C   UNL     1      -2.696   5.699  -0.769  0.00  0.00    +0.112 C 
ATOM     11  C   UNL     1      -1.938   4.369  -0.773  0.00  0.00    +0.029 C 
ATOM     12  C   UNL     1      -4.714   6.094   0.560  0.00  0.00    +0.403 C 
ATOM     13  O   UNL     1      -5.345   6.202  -0.473  0.00  0.00    -0.226 OA
BRANCH  12  14
ATOM     14  O   UNL     1      -5.337   6.225   1.746  0.00  0.00    -0.445 OA
BRANCH  14  15
ATOM     15  C   UNL     1      -6.764   6.493   1.716  0.00  0.00    +0.107 C 
ATOM     16  C   UNL     1      -7.483   5.349   0.997  0.00  0.00    +0.055 C 
ATOM     17  C   UNL     1      -7.292   6.609   3.147  0.00  0.00    +0.055 C 
ATOM     18  C   UNL     1      -7.020   7.805   0.970  0.00  0.00    +0.055 C 
ENDBRANCH  14  15
ENDBRANCH  12  14
ENDBRANCH   5   6
BRANCH   4  19
ATOM     19  C   UNL     1       2.013   3.940   0.263  0.00  0.00    +0.066 A 
ATOM     20  C   UNL     1       1.766   5.014  -0.581  0.00  0.00    +0.028 A 
ATOM     21  C   UNL     1       2.672   6.053  -0.658  0.00  0.00    +0.005 A 
ATOM     22  C   UNL     1       3.830   6.020   0.097  0.00  0.00    -0.050 A 
ATOM     23  C   UNL     1       4.082   4.949   0.934  0.00  0.00    +0.005 A 
ATOM     24  C   UNL     1       3.177   3.909   1.020  0.00  0.00    +0.028 A 
ATOM     25  C   UNL     1       4.820   7.153   0.006  0.00  0.00    +0.044 C 
ENDBRANCH   4  19
BRANCH   1  27
ATOM     26  N   UNL     1      -2.581   0.109   0.728  0.00  0.00    -0.313 N 
ATOM     27  C   UNL     1      -2.207   1.396   0.579  0.00  0.00    +0.247 C 
ATOM     28  O   UNL     1      -3.049   2.271   0.521  0.00  0.00    -0.270 OA
ATOM     29  H   UNL     1      -1.909  -0.589   0.774  0.00  0.00    +0.149 HD
BRANCH  26  30
ATOM     30  C   UNL     1      -4.002  -0.235   0.819  0.00  0.00    +0.089 C 
BRANCH  30  34
ATOM     31  C   UNL     1      -6.033  -2.885  -0.120  0.00  0.00    -0.078 C 
ATOM     32  C   UNL     1      -4.743  -3.504  -0.715  0.00  0.00    -0.020 C 
ATOM     33  C   UNL     1      -3.717  -2.362  -0.493  0.00  0.00    -0.016 C 
ATOM     34  C   UNL     1      -4.157  -1.756   0.857  0.00  0.00    -0.051 C 
ATOM     35  N   UNL     1      -5.567  -2.128   1.058  0.00  0.00    +0.382 N 
ATOM     36  H   UNL     1      -5.646  -2.719   1.895  0.00  0.00    -0.081 HD
BRANCH  35  38
ATOM     37  C   UNL     1      -7.870  -1.309   1.340  0.00  0.00    -0.017 C 
ATOM     38  C   UNL     1      -6.396  -0.909   1.245  0.00  0.00    -0.082 C 
ENDBRANCH  35  38
ENDBRANCH  30  34
ENDBRANCH  26  30
ENDBRANCH   1  27
TORSDOF 8
