REMARK  Name = ZINC36961985
REMARK  9 active torsions:
REMARK  status: ('A' for Active; 'I' for Inactive)
REMARK    1  A    between atoms: C_1  and  O_2
REMARK    2  A    between atoms: O_2  and  C_3
REMARK    3  A    between atoms: C_5  and  C_13
REMARK    4  A    between atoms: C_6  and  O_11
REMARK    5  A    between atoms: C_8  and  O_9
REMARK    6  A    between atoms: O_9  and  C_10
REMARK    7  A    between atoms: O_11  and  C_12
REMARK    8  A    between atoms: C_13  and  C_15
REMARK    9  A    between atoms: C_13  and  N_22
REMARK                            x       y       z     vdW  Elec       q    Type
REMARK                         _______ _______ _______ _____ _____    ______ ____
ROOT
ATOM      1  C   UNL     1       0.764  -0.663  -0.990  0.00  0.00    +0.162 A 
ATOM      2  C   UNL     1       1.230   0.118  -2.035  0.00  0.00    +0.055 A 
ATOM      3  C   UNL     1       1.896  -0.468  -3.095  0.00  0.00    -0.012 A 
ATOM      4  C   UNL     1       2.099  -1.840  -3.115  0.00  0.00    +0.126 A 
ATOM      5  C   UNL     1       1.634  -2.626  -2.071  0.00  0.00    +0.095 A 
ATOM      6  C   UNL     1       0.972  -2.039  -1.005  0.00  0.00    +0.165 A 
ENDROOT
BRANCH   1   8
ATOM      7  C   UNL     1      -0.069   1.332   0.002  0.00  0.00    +0.277 C 
ATOM      8  O   UNL     1       0.109  -0.085   0.053  0.00  0.00    -0.491 OA
ENDBRANCH   1   8
BRANCH   6   9
ATOM      9  O   UNL     1       0.520  -2.807   0.022  0.00  0.00    -0.491 OA
ATOM     10  C   UNL     1       0.769  -4.212  -0.060  0.00  0.00    +0.277 C 
ENDBRANCH   6   9
BRANCH   4  11
ATOM     11  O   UNL     1       2.754  -2.415  -4.159  0.00  0.00    -0.495 OA
ATOM     12  C   UNL     1       2.928  -3.833  -4.114  0.00  0.00    +0.277 C 
ENDBRANCH   4  11
BRANCH   3  13
ATOM     13  C   UNL     1       2.401   0.384  -4.230  0.00  0.00    -0.008 C 
BRANCH  13  14
ATOM     14  C   UNL     1       2.432   1.828  -3.800  0.00  0.00    -0.031 A 
ATOM     15  C   UNL     1       1.366   2.665  -4.074  0.00  0.00    +0.031 A 
ATOM     16  C   UNL     1       1.427   3.959  -3.672  0.00  0.00    +0.080 A 
ATOM     17  S   UNL     1       3.025   4.026  -2.879  0.00  0.00    -0.065 S 
ATOM     18  C   UNL     1       3.503   2.324  -3.132  0.00  0.00    +0.081 A 
ATOM     19 CL   UNL     1       4.962   1.516  -2.650  0.00  0.00    -0.076 Cl
ATOM     20 CL   UNL     1       0.254   5.223  -3.875  0.00  0.00    -0.076 Cl
ENDBRANCH  13  14
BRANCH  13  21
ATOM     21  N   UNL     1       1.509   0.237  -5.388  0.00  0.00    +0.385 N 
ATOM     22  H   UNL     1       1.847   0.808  -6.148  0.00  0.00    -0.089 HD
ATOM     23  H   UNL     1       1.488  -0.730  -5.676  0.00  0.00    -0.089 HD
ATOM     24  H   UNL     1       0.578   0.532  -5.134  0.00  0.00    -0.089 HD
ENDBRANCH  13  21
ENDBRANCH   3  13
TORSDOF 6
