REMARK  Name = ZINC39580779
REMARK  10 active torsions:
REMARK  status: ('A' for Active; 'I' for Inactive)
REMARK    1  A    between atoms: C_1  and  C_2
REMARK    2  A    between atoms: C_2  and  C_3
REMARK    3  A    between atoms: C_3  and  C_4
REMARK    4  A    between atoms: C_4  and  N_5
REMARK    5  A    between atoms: N_5  and  C_6
REMARK    6  A    between atoms: C_6  and  P_21
REMARK    7  A    between atoms: C_8  and  C_16
REMARK    8  A    between atoms: C_8  and  P_17
REMARK    9  A    between atoms: P_17  and  O_20
REMARK   10  A    between atoms: P_21  and  O_24
REMARK                            x       y       z     vdW  Elec       q    Type
REMARK                         _______ _______ _______ _____ _____    ______ ____
ROOT
ATOM      1  C   UNL     1      -3.815  -3.341  -0.954  0.00  0.00    +0.145 C 
ATOM      2  C   UNL     1      -4.891  -4.348  -0.623  0.00  0.00    +0.043 C 
ATOM      3  C   UNL     1      -4.524  -5.796  -0.373  0.00  0.00    +0.174 C 
ATOM      4  P   UNL     1      -3.344  -5.945   1.020  0.00  0.00    +0.384 P 
ATOM      5  O   UNL     1      -2.712  -7.354   1.032  0.00  0.00    -0.255 OA
ATOM      6  O   UNL     1      -2.194  -4.814   0.754  0.00  0.00    -0.227 OA
ATOM      7  P   UNL     1      -2.517  -3.268   0.331  0.00  0.00    +0.368 P 
ATOM      8  O   UNL     1      -3.027  -2.481   1.560  0.00  0.00    -0.257 OA
ATOM      9  O   UNL     1      -1.244  -2.597  -0.234  0.00  0.00    -0.141 OA
ATOM     10  O   UNL     1      -4.063  -5.670   2.358  0.00  0.00    -0.139 OA
ATOM     11  C   UNL     1      -3.934  -6.469  -1.613  0.00  0.00    +0.037 C 
ENDROOT
BRANCH   1  12
ATOM     12  N   UNL     1      -4.461  -2.001  -1.010  0.00  0.00    +0.398 N 
ATOM     13  H   UNL     1      -4.975  -1.839  -0.157  0.00  0.00    -0.083 HD
ATOM     14  H   UNL     1      -5.094  -1.965  -1.796  0.00  0.00    -0.083 HD
BRANCH  12  15
ATOM     15  C   UNL     1      -3.430  -0.966  -1.165  0.00  0.00    -0.080 C 
BRANCH  15  16
ATOM     16  C   UNL     1      -4.085   0.416  -1.130  0.00  0.00    -0.019 C 
BRANCH  16  18
ATOM     17  C   UNL     1      -3.667   2.876  -1.256  0.00  0.00    +0.004 C 
ATOM     18  C   UNL     1      -3.011   1.494  -1.291  0.00  0.00    -0.005 C 
ENDBRANCH  16  18
ENDBRANCH  15  16
ENDBRANCH  12  15
ENDBRANCH   1  12
BRANCH   3  19
ATOM     19  P   UNL     1      -6.054  -6.705   0.079  0.00  0.00    +0.375 P 
ATOM     20  O   UNL     1      -6.595  -6.167   1.422  0.00  0.00    -0.255 OA
ATOM     21  O   UNL     1      -7.117  -6.503  -1.023  0.00  0.00    -0.140 OA
BRANCH  19  22
ATOM     22  O   UNL     1      -5.723  -8.274   0.224  0.00  0.00    -0.322 OA
ATOM     23  H   UNL     1      -6.487  -8.817   0.461  0.00  0.00    +0.220 HD
ENDBRANCH  19  22
ENDBRANCH   3  19
BRANCH   1  24
ATOM     24  P   UNL     1      -3.057  -3.647  -2.582  0.00  0.00    +0.359 P 
ATOM     25  O   UNL     1      -2.211  -4.938  -2.521  0.00  0.00    -0.257 OA
ATOM     26  O   UNL     1      -4.167  -3.808  -3.644  0.00  0.00    -0.142 OA
BRANCH  24  27
ATOM     27  O   UNL     1      -2.112  -2.404  -2.976  0.00  0.00    -0.323 OA
ATOM     28  H   UNL     1      -1.675  -2.499  -3.833  0.00  0.00    +0.220 HD
ENDBRANCH  24  27
ENDBRANCH   1  24
TORSDOF 8
