REMARK  Name = ZINC08666515
REMARK  10 active torsions:
REMARK  status: ('A' for Active; 'I' for Inactive)
REMARK    1  A    between atoms: C_1  and  C_2
REMARK    2  A    between atoms: C_2  and  C_3
REMARK    3  A    between atoms: C_2  and  C_4
REMARK    4  A    between atoms: C_2  and  C_5
REMARK    5  A    between atoms: C_8  and  O_11
REMARK    6  A    between atoms: O_11  and  C_12
REMARK    7  A    between atoms: C_16  and  C_18
REMARK    8  A    between atoms: C_21  and  O_22
REMARK    9  A    between atoms: C_23  and  C_34
REMARK   10  A    between atoms: C_27  and  N_29
REMARK                            x       y       z     vdW  Elec       q    Type
REMARK                         _______ _______ _______ _____ _____    ______ ____
ROOT
ATOM      1  C   UNL     1       3.515   6.046   0.096  0.00  0.00    +0.059 C 
ATOM      2  C   UNL     1       4.441   3.948  -1.565  0.00  0.00    +0.084 C 
ATOM      3  C   UNL     1       5.338   4.463  -0.463  0.00  0.00    +0.100 C 
ATOM      4  C   UNL     1       5.307   3.753   0.875  0.00  0.00    +0.025 C 
ATOM      5  C   UNL     1       4.576   4.654   1.850  0.00  0.00    +0.186 C 
ATOM      6  O   UNL     1       5.019   4.863   2.954  0.00  0.00    -0.290 OA
ATOM      7  C   UNL     1       3.276   5.283   1.401  0.00  0.00    +0.187 C 
ENDROOT
BRANCH   4   8
ATOM      8  C   UNL     1       6.014   2.400   0.762  0.00  0.00    -0.003 C 
ATOM      9  C   UNL     1       6.412   1.931   2.137  0.00  0.00    -0.054 A 
ATOM     10  C   UNL     1       5.507   2.090   3.176  0.00  0.00    +0.002 A 
ATOM     11  C   UNL     1       5.828   1.672   4.452  0.00  0.00    +0.000 A 
ATOM     12  C   UNL     1       7.059   1.090   4.696  0.00  0.00    +0.000 A 
ATOM     13  C   UNL     1       7.960   0.932   3.663  0.00  0.00    +0.004 A 
ATOM     14  C   UNL     1       7.639   1.354   2.381  0.00  0.00    -0.047 A 
ATOM     15  C   UNL     1       8.659   1.170   1.287  0.00  0.00    +0.016 C 
ATOM     16  C   UNL     1       7.987   1.302  -0.080  0.00  0.00    -0.077 C 
ATOM     17  N   UNL     1       7.197   2.547  -0.096  0.00  0.00    +0.387 N 
ATOM     18  H   UNL     1       7.776   3.321   0.251  0.00  0.00    -0.085 HD
ATOM     19  H   UNL     1       6.898   2.748  -1.058  0.00  0.00    -0.085 HD
ENDBRANCH   4   8
BRANCH   1  24
ATOM     20  C   UNL     1       0.621   8.432  -0.360  0.00  0.00    +0.129 A 
ATOM     21  C   UNL     1      -0.167   7.737  -1.267  0.00  0.00    +0.046 A 
ATOM     22  C   UNL     1       0.236   6.497  -1.722  0.00  0.00    +0.004 A 
ATOM     23  C   UNL     1       1.428   5.952  -1.282  0.00  0.00    +0.004 A 
ATOM     24  C   UNL     1       2.217   6.644  -0.382  0.00  0.00    -0.038 A 
ATOM     25  C   UNL     1       1.816   7.882   0.081  0.00  0.00    +0.050 A 
BRANCH  20  26
ATOM     26  O   UNL     1       0.224   9.650   0.093  0.00  0.00    -0.456 OA
BRANCH  26  30
ATOM     27  C   UNL     1      -3.499  11.021  -1.039  0.00  0.00    -0.042 A 
ATOM     28  C   UNL     1      -3.382  10.127   0.010  0.00  0.00    +0.008 A 
ATOM     29  C   UNL     1      -2.136   9.667   0.391  0.00  0.00    +0.046 A 
ATOM     30  C   UNL     1      -1.002  10.101  -0.280  0.00  0.00    +0.128 A 
ATOM     31  C   UNL     1      -1.122  11.001  -1.329  0.00  0.00    +0.046 A 
ATOM     32  C   UNL     1      -2.370  11.455  -1.709  0.00  0.00    +0.008 A 
BRANCH  27  34
ATOM     33  C   UNL     1      -5.515  12.246  -0.274  0.00  0.00    +0.015 C 
ATOM     34  C   UNL     1      -4.859  11.522  -1.452  0.00  0.00    -0.013 C 
ATOM     35  C   UNL     1      -4.710  12.491  -2.627  0.00  0.00    +0.015 C 
ATOM     36  C   UNL     1      -5.732  10.339  -1.873  0.00  0.00    +0.015 C 
ENDBRANCH  27  34
ENDBRANCH  26  30
ENDBRANCH  20  26
ENDBRANCH   1  24
BRANCH   7  37
ATOM     37  N   UNL     1       2.275   4.236   1.180  0.00  0.00    -0.241 N 
ATOM     38  C   UNL     1       1.466   3.687   2.103  0.00  0.00    +0.219 A 
ATOM     39  N   UNL     1       0.720   2.793   1.507  0.00  0.00    -0.223 NA
ATOM     40  C   UNL     1       1.027   2.737   0.212  0.00  0.00    +0.245 A 
ATOM     41  N   UNL     1       1.974   3.602  -0.037  0.00  0.00    -0.158 NA
ENDBRANCH   7  37
BRANCH   3  42
ATOM     42  O   UNL     1       6.060   5.415  -0.644  0.00  0.00    -0.511 OA
ATOM     43  H   UNL     1       6.574   5.607   0.192  0.00  0.00    +0.292 HD
ENDBRANCH   3  42
TORSDOF 7
