REMARK  Name = ZINC43307106
REMARK  10 active torsions:
REMARK  status: ('A' for Active; 'I' for Inactive)
REMARK    1  A    between atoms: C_1  and  N_2
REMARK    2  A    between atoms: N_2  and  C_3
REMARK    3  A    between atoms: N_2  and  C_4
REMARK    4  A    between atoms: C_4  and  C_6
REMARK    5  A    between atoms: C_4  and  C_22
REMARK    6  A    between atoms: C_6  and  N_7
REMARK    7  A    between atoms: N_10  and  C_11
REMARK    8  A    between atoms: C_13  and  C_19
REMARK    9  A    between atoms: C_16  and  O_17
REMARK   10  A    between atoms: O_17  and  C_18
REMARK                            x       y       z     vdW  Elec       q    Type
REMARK                         _______ _______ _______ _____ _____    ______ ____
ROOT
ATOM      1  N   UNL     1      -1.158  -2.648   1.135  0.00  0.00    -0.300 N 
ATOM      2  C   UNL     1      -1.380  -3.964   1.327  0.00  0.00    +0.304 C 
ATOM      3  O   UNL     1      -1.964  -4.611   0.480  0.00  0.00    -0.253 OA
ATOM      4  N   UNL     1      -0.953  -4.561   2.457  0.00  0.00    -0.266 N 
ATOM      5  H   UNL     1      -0.691  -2.131   1.810  0.00  0.00    +0.150 HD
ATOM      6  H   UNL     1      -0.544  -4.033   3.160  0.00  0.00    +0.156 HD
ENDROOT
BRANCH   4   7
ATOM      7  C   UNL     1      -1.101  -5.946   2.617  0.00  0.00    +0.077 A 
ATOM      8  C   UNL     1      -1.030  -6.781   1.516  0.00  0.00    +0.040 A 
ATOM      9  C   UNL     1      -1.178  -8.160   1.680  0.00  0.00    +0.038 A 
ATOM     10  C   UNL     1      -1.397  -8.691   2.954  0.00  0.00    +0.017 A 
ATOM     11  C   UNL     1      -1.467  -7.854   4.047  0.00  0.00    +0.048 A 
ATOM     12  C   UNL     1      -1.315  -6.483   3.887  0.00  0.00    +0.141 A 
BRANCH   9  13
ATOM     13  C   UNL     1      -1.104  -9.056   0.509  0.00  0.00    +0.242 C 
ATOM     14  O   UNL     1      -0.913  -8.593  -0.599  0.00  0.00    -0.270 OA
ATOM     15  N   UNL     1      -1.246 -10.387   0.668  0.00  0.00    -0.325 N 
ATOM     16  H   UNL     1      -1.398 -10.756   1.552  0.00  0.00    +0.145 HD
ATOM     17  H   UNL     1      -1.198 -10.975  -0.101  0.00  0.00    +0.145 HD
ENDBRANCH   9  13
BRANCH  12  18
ATOM     18  O   UNL     1      -1.379  -5.664   4.967  0.00  0.00    -0.493 OA
ATOM     19  C   UNL     1      -1.600  -6.280   6.237  0.00  0.00    +0.277 C 
ENDBRANCH  12  18
ENDBRANCH   4   7
BRANCH   1  20
ATOM     20  C   UNL     1      -1.621  -1.999  -0.094  0.00  0.00    +0.095 C 
BRANCH  20  21
ATOM     21  C   UNL     1      -1.358  -0.494  -0.006  0.00  0.00    -0.020 C 
BRANCH  21  22
ATOM     22  C   UNL     1       0.128  -0.245   0.033  0.00  0.00    -0.041 A 
ATOM     23  C   UNL     1       0.773  -0.101   1.247  0.00  0.00    +0.003 A 
ATOM     24  C   UNL     1       2.136   0.128   1.282  0.00  0.00    +0.000 A 
ATOM     25  C   UNL     1       2.854   0.211   0.104  0.00  0.00    +0.001 A 
ATOM     26  C   UNL     1       2.210   0.066  -1.110  0.00  0.00    +0.020 A 
ATOM     27  C   UNL     1       0.847  -0.168  -1.146  0.00  0.00    +0.043 A 
ATOM     28 CL   UNL     1       0.038  -0.356  -2.671  0.00  0.00    -0.083 Cl
ENDBRANCH  21  22
BRANCH  21  30
ATOM     29  C   UNL     1      -1.815   1.500   1.246  0.00  0.00    -0.096 C 
ATOM     30  N   UNL     1      -1.976   0.041   1.215  0.00  0.00    +0.382 N 
ATOM     31  C   UNL     1      -3.406  -0.295   1.228  0.00  0.00    -0.096 C 
ATOM     32  H   UNL     1      -1.528  -0.364   2.024  0.00  0.00    -0.082 HD
ENDBRANCH  21  30
ENDBRANCH  20  21
ENDBRANCH   1  20
TORSDOF 7
