REMARK  Name = ZINC39946294
REMARK  7 active torsions:
REMARK  status: ('A' for Active; 'I' for Inactive)
REMARK    1  A    between atoms: C_7  and  C_10
REMARK    2  A    between atoms: C_10  and  C_12
REMARK    3  A    between atoms: C_12  and  S_13
REMARK    4  A    between atoms: S_13  and  C_14
REMARK    5  A    between atoms: C_18  and  C_26
REMARK    6  A    between atoms: N_19  and  C_20
REMARK    7  A    between atoms: C_26  and  C_27
REMARK                            x       y       z     vdW  Elec       q    Type
REMARK                         _______ _______ _______ _____ _____    ______ ____
ROOT
ATOM      1  C   UNL     1       0.595  -7.344  -0.042  0.00  0.00    +0.237 C 
ATOM      2  N   UNL     1       1.516  -7.481   1.100  0.00  0.00    -0.238 N 
ATOM      3  N   UNL     1       2.789  -7.676   0.550  0.00  0.00    -0.174 NA
ATOM      4  C   UNL     1       2.756  -7.674  -0.732  0.00  0.00    +0.123 C 
ATOM      5  N   UNL     1       1.469  -7.481  -1.220  0.00  0.00    -0.286 N 
ATOM      6  H   UNL     1       1.287  -7.444   2.042  0.00  0.00    +0.171 HD
ENDROOT
BRANCH   5   7
ATOM      7  C   UNL     1       1.060  -7.426  -2.626  0.00  0.00    +0.077 C 
ATOM      8  C   UNL     1       1.415  -8.746  -3.313  0.00  0.00    +0.022 C 
ATOM      9  C   UNL     1       0.988  -8.687  -4.781  0.00  0.00    +0.002 C 
ATOM     10  C   UNL     1       1.718  -7.537  -5.479  0.00  0.00    +0.000 C 
ATOM     11  C   UNL     1       1.363  -6.217  -4.791  0.00  0.00    +0.002 C 
ATOM     12  C   UNL     1       1.790  -6.276  -3.323  0.00  0.00    +0.022 C 
ENDBRANCH   5   7
BRANCH   1  13
ATOM     13  S   UNL     1      -0.202  -5.714  -0.026  0.00  0.00    -0.110 S 
BRANCH  13  14
ATOM     14  C   UNL     1       1.187  -4.547  -0.033  0.00  0.00    +0.151 C 
BRANCH  14  15
ATOM     15  C   UNL     1       0.657  -3.136  -0.021  0.00  0.00    +0.171 C 
ATOM     16  O   UNL     1      -0.541  -2.938  -0.009  0.00  0.00    -0.291 OA
BRANCH  15  23
ATOM     17  C   UNL     1      -0.016   1.348   0.009  0.00  0.00    +0.001 A 
ATOM     18  C   UNL     1       1.158   2.117   0.002  0.00  0.00    +0.002 A 
ATOM     19  C   UNL     1       2.384   1.551  -0.012  0.00  0.00    +0.026 A 
ATOM     20  C   UNL     1       2.494   0.083  -0.021  0.00  0.00    +0.043 A 
ATOM     21  N   UNL     1       3.525  -0.712  -0.035  0.00  0.00    -0.380 N 
ATOM     22  C   UNL     1       3.065  -2.104  -0.039  0.00  0.00    +0.152 C 
ATOM     23  C   UNL     1       1.553  -2.046  -0.024  0.00  0.00    +0.024 C 
ATOM     24  C   UNL     1       1.234  -0.700  -0.013  0.00  0.00    +0.006 A 
ATOM     25  C   UNL     1       0.002  -0.004   0.002  0.00  0.00    +0.010 A 
ATOM     26  H   UNL     1       4.453  -0.428  -0.043  0.00  0.00    +0.160 HD
ENDBRANCH  15  23
ENDBRANCH  14  15
ENDBRANCH  13  14
ENDBRANCH   1  13
BRANCH   4  27
ATOM     27  C   UNL     1       3.969  -7.859  -1.606  0.00  0.00    +0.115 C 
BRANCH  27  28
ATOM     28  C   UNL     1       5.189  -8.042  -0.741  0.00  0.00    -0.003 A 
ATOM     29  C   UNL     1       5.726  -9.187  -0.253  0.00  0.00    +0.011 A 
ATOM     30  C   UNL     1       6.863  -9.115   0.528  0.00  0.00    +0.008 A 
ATOM     31  C   UNL     1       7.409  -7.901   0.784  0.00  0.00    +0.045 A 
ATOM     32  S   UNL     1       6.307  -6.808  -0.099  0.00  0.00    -0.101 S 
ENDBRANCH  27  28
ENDBRANCH   4  27
TORSDOF 7
