REMARK  Name = ZINC35314852
REMARK  6 active torsions:
REMARK  status: ('A' for Active; 'I' for Inactive)
REMARK    1  A    between atoms: C_3  and  C_6
REMARK    2  A    between atoms: C_6  and  N_7
REMARK    3  A    between atoms: N_7  and  C_8
REMARK    4  A    between atoms: C_8  and  C_9
REMARK    5  A    between atoms: N_11  and  C_12
REMARK    6  A    between atoms: C_13  and  C_21
REMARK                            x       y       z     vdW  Elec       q    Type
REMARK                         _______ _______ _______ _____ _____    ______ ____
ROOT
ATOM      1  C   UNL     1       6.104   2.663   2.763  0.00  0.00    +0.201 C 
ATOM      2  O   UNL     1       5.371   2.392   3.691  0.00  0.00    -0.278 OA
ATOM      3  N   UNL     1       7.353   3.110   2.999  0.00  0.00    -0.281 N 
ATOM      4  H   UNL     1       7.939   3.327   2.257  0.00  0.00    +0.155 HD
ENDROOT
BRANCH   3   5
ATOM      5  C   UNL     1       7.801   3.260   4.303  0.00  0.00    +0.084 A 
ATOM      6  C   UNL     1       9.040   3.708   4.732  0.00  0.00    +0.068 A 
ATOM      7  C   UNL     1       9.263   3.774   6.166  0.00  0.00    -0.023 A 
ATOM      8  C   UNL     1       8.205   3.380   6.908  0.00  0.00    -0.004 A 
ATOM      9  S   UNL     1       6.963   2.947   5.725  0.00  0.00    -0.077 S 
ATOM     10  C   UNL     1       8.122   3.332   8.402  0.00  0.00    +0.043 C 
ATOM     11  C   UNL     1       9.546   3.438   8.968  0.00  0.00    +0.005 C 
ATOM     12  C   UNL     1      10.268   4.599   8.277  0.00  0.00    +0.005 C 
ATOM     13  C   UNL     1      10.556   4.240   6.818  0.00  0.00    +0.037 C 
BRANCH   6  14
ATOM     14  C   UNL     1      10.084   4.098   3.779  0.00  0.00    +0.244 C 
ATOM     15  O   UNL     1      10.156   5.250   3.394  0.00  0.00    -0.270 OA
ATOM     16  N   UNL     1      10.963   3.181   3.329  0.00  0.00    -0.325 N 
ATOM     17  H   UNL     1      10.905   2.262   3.636  0.00  0.00    +0.145 HD
ATOM     18  H   UNL     1      11.653   3.439   2.698  0.00  0.00    +0.145 HD
ENDBRANCH   6  14
ENDBRANCH   3   5
BRANCH   1  19
ATOM     19  C   UNL     1       5.617   2.501   1.346  0.00  0.00    +0.016 C 
BRANCH  19  20
ATOM     20  N   UNL     1       4.235   2.004   1.357  0.00  0.00    +0.388 N 
ATOM     21  H   UNL     1       3.645   2.663   1.842  0.00  0.00    -0.085 HD
ATOM     22  H   UNL     1       4.202   1.113   1.828  0.00  0.00    -0.085 HD
BRANCH  20  23
ATOM     23  C   UNL     1       3.761   1.845  -0.024  0.00  0.00    -0.039 C 
BRANCH  23  26
ATOM     24  C   UNL     1      -0.016   1.351   0.009  0.00  0.00    +0.008 A 
ATOM     25  C   UNL     1       1.183   2.038   0.002  0.00  0.00    +0.009 A 
ATOM     26  C   UNL     1       2.343   1.336  -0.013  0.00  0.00    -0.027 A 
ATOM     27  S   UNL     1       1.754  -0.349  -0.017  0.00  0.00    -0.104 S 
ATOM     28  C   UNL     1       0.002  -0.004   0.002  0.00  0.00    +0.045 A 
ENDBRANCH  23  26
ENDBRANCH  20  23
ENDBRANCH  19  20
ENDBRANCH   1  19
TORSDOF 6
