REMARK  Name = ZINC07678687
REMARK  10 active torsions:
REMARK  status: ('A' for Active; 'I' for Inactive)
REMARK    1  A    between atoms: C_1  and  C_2
REMARK    2  A    between atoms: C_3  and  N_9
REMARK    3  A    between atoms: N_9  and  C_10
REMARK    4  A    between atoms: C_10  and  N_12
REMARK    5  A    between atoms: N_12  and  C_13
REMARK    6  A    between atoms: C_13  and  C_14
REMARK    7  A    between atoms: C_14  and  C_16
REMARK    8  A    between atoms: C_14  and  N_56
REMARK    9  A    between atoms: C_19  and  O_22
REMARK   10  A    between atoms: O_22  and  C_23
REMARK                            x       y       z     vdW  Elec       q    Type
REMARK                         _______ _______ _______ _____ _____    ______ ____
ROOT
ATOM      1  C   UNL     1      -2.370   0.724   0.689  0.00  0.00    -0.020 C 
ENDROOT
BRANCH   1   7
ATOM      2  C   UNL     1      -2.323   1.498  -1.604  0.00  0.00    -0.078 C 
ATOM      3  C   UNL     1      -2.018   1.077  -3.043  0.00  0.00    -0.019 C 
ATOM      4  C   UNL     1      -3.012  -0.005  -3.475  0.00  0.00    -0.004 C 
ATOM      5  C   UNL     1      -2.918  -1.188  -2.508  0.00  0.00    -0.019 C 
ATOM      6  C   UNL     1      -3.197  -0.701  -1.085  0.00  0.00    -0.078 C 
ATOM      7  N   UNL     1      -2.192   0.320  -0.721  0.00  0.00    +0.385 N 
ATOM      8  H   UNL     1      -1.254  -0.080  -0.837  0.00  0.00    -0.081 HD
ENDBRANCH   1   7
BRANCH   1   9
ATOM      9  C   UNL     1      -3.735   1.328   0.899  0.00  0.00    -0.059 A 
ATOM     10  C   UNL     1      -4.033   2.564   0.356  0.00  0.00    +0.005 A 
ATOM     11  C   UNL     1      -5.285   3.118   0.542  0.00  0.00    +0.046 A 
ATOM     12  C   UNL     1      -6.240   2.438   1.284  0.00  0.00    +0.120 A 
ATOM     13  C   UNL     1      -5.936   1.200   1.833  0.00  0.00    +0.046 A 
ATOM     14  C   UNL     1      -4.685   0.648   1.638  0.00  0.00    +0.005 A 
BRANCH  12  15
ATOM     15  O   UNL     1      -7.470   2.983   1.474  0.00  0.00    -0.495 OA
ATOM     16  C   UNL     1      -7.712   4.260   0.880  0.00  0.00    +0.277 C 
ENDBRANCH  12  15
ENDBRANCH   1   9
BRANCH   1  17
ATOM     17  C   UNL     1      -1.296   1.752   1.049  0.00  0.00    +0.092 C 
BRANCH  17  18
ATOM     18  N   UNL     1       0.026   1.208   0.733  0.00  0.00    -0.328 N 
ATOM     19  H   UNL     1       0.107   0.319   0.354  0.00  0.00    +0.148 HD
BRANCH  18  20
ATOM     20  C   UNL     1       1.131   1.945   0.963  0.00  0.00    +0.134 C 
ATOM     21  S   UNL     1       0.989   3.515   1.632  0.00  0.00    -0.019 S 
BRANCH  20  22
ATOM     22  N   UNL     1       2.348   1.447   0.667  0.00  0.00    -0.297 N 
ATOM     23  H   UNL     1       2.431   0.543   0.324  0.00  0.00    +0.154 HD
BRANCH  22  26
ATOM     24  C   UNL     1       4.678   0.199   1.720  0.00  0.00    +0.047 C 
ATOM     25  C   UNL     1       4.649   1.664   1.366  0.00  0.00    -0.011 A 
ATOM     26  C   UNL     1       3.490   2.232   0.854  0.00  0.00    +0.037 A 
ATOM     27  C   UNL     1       3.465   3.583   0.534  0.00  0.00    +0.023 A 
ATOM     28  C   UNL     1       4.595   4.357   0.721  0.00  0.00    +0.003 A 
ATOM     29  C   UNL     1       5.749   3.788   1.225  0.00  0.00    +0.020 A 
ATOM     30  C   UNL     1       5.777   2.442   1.546  0.00  0.00    +0.046 A 
ATOM     31 CL   UNL     1       7.229   1.731   2.179  0.00  0.00    -0.083 Cl
ENDBRANCH  22  26
ENDBRANCH  20  22
ENDBRANCH  18  20
ENDBRANCH  17  18
ENDBRANCH   1  17
TORSDOF 8
