REMARK  Name = ZINC27101763
REMARK  2 active torsions:
REMARK  status: ('A' for Active; 'I' for Inactive)
REMARK    1  A    between atoms: C_12  and  C_14
REMARK    2  A    between atoms: C_22  and  C_24
REMARK                            x       y       z     vdW  Elec       q    Type
REMARK                         _______ _______ _______ _____ _____    ______ ____
ROOT
ATOM      1  C   UNL     1       2.691   2.001   2.014  0.00  0.00    +0.253 C 
ATOM      2  O   UNL     1       2.969   1.331   2.991  0.00  0.00    -0.269 OA
ATOM      3  N   UNL     1       2.518   1.406   0.817  0.00  0.00    -0.294 N 
ATOM      4  C   UNL     1       2.303   2.211  -0.394  0.00  0.00    +0.127 C 
ATOM      5  C   UNL     1       1.001   1.752  -1.062  0.00  0.00    +0.127 C 
ATOM      6  N   UNL     1       1.024   0.288  -1.180  0.00  0.00    -0.295 N 
ATOM      7  C   UNL     1       1.240  -0.517   0.030  0.00  0.00    +0.127 C 
ATOM      8  C   UNL     1       2.542  -0.059   0.699  0.00  0.00    +0.127 C 
ATOM      9  C   UNL     1       0.851  -0.307  -2.377  0.00  0.00    +0.260 C 
ATOM     10  O   UNL     1       0.966  -1.510  -2.479  0.00  0.00    -0.271 OA
ENDROOT
BRANCH   1  22
ATOM     11  C   UNL     1       0.829  10.106   1.610  0.00  0.00    +0.000 A 
ATOM     12  C   UNL     1       0.062   9.138   0.986  0.00  0.00    +0.001 A 
ATOM     13  C   UNL     1       0.425   7.808   1.073  0.00  0.00    +0.009 A 
ATOM     14  C   UNL     1       1.560   7.450   1.789  0.00  0.00    -0.008 A 
ATOM     15  C   UNL     1       2.354   8.435   2.397  0.00  0.00    -0.039 A 
ATOM     16  C   UNL     1       1.970   9.756   2.311  0.00  0.00    +0.004 A 
ATOM     17  C   UNL     1       3.610   8.048   3.126  0.00  0.00    +0.040 C 
ATOM     18  C   UNL     1       3.486   6.729   3.879  0.00  0.00    +0.041 C 
ATOM     19  C   UNL     1       2.891   5.663   2.967  0.00  0.00    -0.032 A 
ATOM     20  C   UNL     1       1.965   6.063   1.999  0.00  0.00    +0.023 A 
ATOM     21  S   UNL     1       1.508   4.562   1.192  0.00  0.00    -0.083 S 
ATOM     22  C   UNL     1       2.543   3.453   2.139  0.00  0.00    +0.075 A 
ATOM     23  C   UNL     1       3.175   4.321   3.017  0.00  0.00    +0.025 A 
ENDBRANCH   1  22
BRANCH   9  24
ATOM     24  C   UNL     1       0.515   0.523  -3.589  0.00  0.00    +0.296 C 
ATOM     25  C   UNL     1      -0.906   1.086  -3.452  0.00  0.00    +0.283 C 
ATOM     26  O   UNL     1      -1.198   1.856  -4.624  0.00  0.00    -0.484 OA
ATOM     27  C   UNL     1      -0.880   1.292  -5.822  0.00  0.00    +0.162 A 
ATOM     28  C   UNL     1      -1.443   1.798  -6.984  0.00  0.00    +0.049 A 
ATOM     29  C   UNL     1      -1.126   1.240  -8.207  0.00  0.00    +0.004 A 
ATOM     30  C   UNL     1      -0.246   0.176  -8.277  0.00  0.00    +0.004 A 
ATOM     31  C   UNL     1       0.317  -0.334  -7.123  0.00  0.00    +0.049 A 
ATOM     32  C   UNL     1       0.002   0.220  -5.891  0.00  0.00    +0.163 A 
ATOM     33  O   UNL     1       0.562  -0.295  -4.763  0.00  0.00    -0.473 OA
ENDBRANCH   9  24
TORSDOF 2
