REMARK  Name = ZINC66402992
REMARK  6 active torsions:
REMARK  status: ('A' for Active; 'I' for Inactive)
REMARK    1  A    between atoms: C_3  and  C_6
REMARK    2  A    between atoms: C_6  and  C_8
REMARK    3  A    between atoms: C_6  and  N_25
REMARK    4  A    between atoms: C_8  and  N_9
REMARK    5  A    between atoms: N_12  and  C_13
REMARK    6  A    between atoms: C_15  and  C_21
REMARK                            x       y       z     vdW  Elec       q    Type
REMARK                         _______ _______ _______ _____ _____    ______ ____
ROOT
ATOM      1  N   UNL     1       5.534   0.327  -1.396  0.00  0.00    -0.300 N 
ATOM      2  C   UNL     1       6.160  -0.036  -2.533  0.00  0.00    +0.304 C 
ATOM      3  O   UNL     1       5.564  -0.006  -3.592  0.00  0.00    -0.253 OA
ATOM      4  N   UNL     1       7.448  -0.432  -2.496  0.00  0.00    -0.265 N 
ATOM      5  H   UNL     1       6.010   0.304  -0.551  0.00  0.00    +0.150 HD
ATOM      6  H   UNL     1       7.903  -0.525  -1.644  0.00  0.00    +0.157 HD
ENDROOT
BRANCH   4   7
ATOM      7  C   UNL     1       8.130  -0.711  -3.688  0.00  0.00    +0.100 A 
ATOM      8  C   UNL     1       9.259  -0.012  -4.020  0.00  0.00    +0.042 A 
ATOM      9  C   UNL     1       9.922  -0.311  -5.218  0.00  0.00    +0.073 A 
ATOM     10  C   UNL     1       9.446  -1.281  -6.032  0.00  0.00    +0.098 A 
ATOM     11  N   UNL     1       8.324  -1.976  -5.705  0.00  0.00    -0.327 N 
ATOM     12  H   UNL     1       7.997  -2.667  -6.302  0.00  0.00    +0.168 HD
ATOM     13  C   UNL     1       7.664  -1.720  -4.559  0.00  0.00    +0.270 A 
ATOM     14  O   UNL     1       6.662  -2.356  -4.276  0.00  0.00    -0.266 OA
BRANCH   9  15
ATOM     15  C   UNL     1      11.167   0.448  -5.600  0.00  0.00    +0.419 C 
ATOM     16  F   UNL     1      11.644  -0.025  -6.827  0.00  0.00    -0.166 F 
ATOM     17  F   UNL     1      10.866   1.810  -5.710  0.00  0.00    -0.166 F 
ATOM     18  F   UNL     1      12.145   0.264  -4.617  0.00  0.00    -0.166 F 
ENDBRANCH   9  15
ENDBRANCH   4   7
BRANCH   1  19
ATOM     19  C   UNL     1       4.135   0.758  -1.436  0.00  0.00    +0.098 C 
BRANCH  19  20
ATOM     20  C   UNL     1       3.630   0.987  -0.010  0.00  0.00    +0.016 C 
BRANCH  20  21
ATOM     21  N   UNL     1       3.816  -0.238   0.778  0.00  0.00    +0.387 N 
ATOM     22  C   UNL     1       3.261  -0.043   2.123  0.00  0.00    -0.078 C 
ATOM     23  C   UNL     1       3.524  -1.287   2.973  0.00  0.00    -0.019 C 
ATOM     24  C   UNL     1       2.858  -2.499   2.315  0.00  0.00    -0.004 C 
ATOM     25  C   UNL     1       3.390  -2.649   0.887  0.00  0.00    -0.019 C 
ATOM     26  C   UNL     1       3.132  -1.354   0.114  0.00  0.00    -0.078 C 
ATOM     27  H   UNL     1       4.801  -0.444   0.850  0.00  0.00    -0.081 HD
ENDBRANCH  20  21
BRANCH  20  30
ATOM     28  C   UNL     1       0.245   2.444   0.055  0.00  0.00    +0.041 A 
ATOM     29  C   UNL     1       1.647   2.561   0.198  0.00  0.00    +0.043 A 
ATOM     30  C   UNL     1       2.166   1.344  -0.046  0.00  0.00    +0.093 A 
ATOM     31  O   UNL     1       1.159   0.501  -0.327  0.00  0.00    -0.469 OA
ATOM     32  C   UNL     1      -0.008   1.162  -0.267  0.00  0.00    +0.195 A 
ENDBRANCH  20  30
ENDBRANCH  19  20
ENDBRANCH   1  19
TORSDOF 6
