REMARK  Name = ZINC49579944
REMARK  6 active torsions:
REMARK  status: ('A' for Active; 'I' for Inactive)
REMARK    1  A    between atoms: C_3  and  O_9
REMARK    2  A    between atoms: O_9  and  C_10
REMARK    3  A    between atoms: C_10  and  C_11
REMARK    4  A    between atoms: C_11  and  C_12
REMARK    5  A    between atoms: C_12  and  C_13
REMARK    6  A    between atoms: C_13  and  C_14
REMARK                            x       y       z     vdW  Elec       q    Type
REMARK                         _______ _______ _______ _____ _____    ______ ____
ROOT
ATOM      1  C   UNL     1       3.454   3.533  -0.013  0.00  0.00    +0.229 C 
ENDROOT
BRANCH   1   2
ATOM      2  O   UNL     1       3.548   2.107  -0.021  0.00  0.00    -0.491 OA
BRANCH   2   5
ATOM      3  C   UNL     1      -0.017   1.379   0.010  0.00  0.00    +0.019 A 
ATOM      4  C   UNL     1       1.170   2.087   0.002  0.00  0.00    +0.048 A 
ATOM      5  C   UNL     1       2.380   1.411  -0.013  0.00  0.00    +0.139 A 
ATOM      6  C   UNL     1       2.397   0.023  -0.021  0.00  0.00    +0.084 A 
ATOM      7  C   UNL     1       1.208  -0.682  -0.013  0.00  0.00    +0.039 A 
ATOM      8  C   UNL     1       0.002  -0.004   0.002  0.00  0.00    +0.019 A 
ATOM      9 BR   UNL     1      -1.623  -0.970   0.012  0.00  0.00    -0.050 Br
ATOM     10 CL   UNL     1       3.911  -0.827  -0.040  0.00  0.00    -0.080 Cl
ENDBRANCH   2   5
ENDBRANCH   1   2
BRANCH   1  11
ATOM     11  C   UNL     1       4.860   4.136  -0.024  0.00  0.00    +0.041 C 
BRANCH  11  12
ATOM     12  C   UNL     1       4.760   5.663  -0.015  0.00  0.00    +0.011 C 
BRANCH  12  13
ATOM     13  C   UNL     1       6.166   6.266  -0.025  0.00  0.00    +0.069 C 
BRANCH  13  14
ATOM     14  C   UNL     1       6.067   7.770  -0.017  0.00  0.00    +0.063 C 
ATOM     15  N   UNL     1       6.013   8.435  -1.158  0.00  0.00    -0.391 N 
ATOM     16  N   UNL     1       6.035   8.424   1.131  0.00  0.00    -0.348 N 
ATOM     17  H   UNL     1       6.036   7.956  -2.001  0.00  0.00    +0.157 HD
ATOM     18  H   UNL     1       6.075   7.936   1.969  0.00  0.00    +0.143 HD
ATOM     19  H   UNL     1       5.971   9.392   1.137  0.00  0.00    +0.143 HD
ATOM     20  H   UNL     1       5.949   9.403  -1.152  0.00  0.00    +0.157 HD
ENDBRANCH  13  14
ENDBRANCH  12  13
ENDBRANCH  11  12
ENDBRANCH   1  11
TORSDOF 6
