REMARK  Name = ZINC25668354
REMARK  4 active torsions:
REMARK  status: ('A' for Active; 'I' for Inactive)
REMARK    1  A    between atoms: C_3  and  N_26
REMARK    2  A    between atoms: C_6  and  C_7
REMARK    3  A    between atoms: C_7  and  C_8
REMARK    4  A    between atoms: C_7  and  C_17
REMARK                            x       y       z     vdW  Elec       q    Type
REMARK                         _______ _______ _______ _____ _____    ______ ____
ROOT
ATOM      1  C   UNL     1       3.267  -0.325   1.208  0.00  0.00    +0.100 C 
ENDROOT
BRANCH   1   2
ATOM      2  C   UNL     1       2.343   0.180   0.098  0.00  0.00    +0.093 A 
ATOM      3  C   UNL     1       2.930  -0.245  -1.234  0.00  0.00    +0.262 A 
ATOM      4  O   UNL     1       4.045   0.094  -1.568  0.00  0.00    -0.267 OA
ATOM      5  N   UNL     1       2.164  -1.016  -2.036  0.00  0.00    -0.275 N 
ATOM      6  C   UNL     1       0.931  -1.399  -1.683  0.00  0.00    +0.329 A 
ATOM      7  O   UNL     1       0.310  -2.087  -2.467  0.00  0.00    -0.247 OA
ATOM      8  N   UNL     1       0.332  -1.074  -0.532  0.00  0.00    -0.275 N 
ATOM      9  C   UNL     1       0.939  -0.308   0.400  0.00  0.00    +0.262 A 
ATOM     10  O   UNL     1       0.383  -0.022   1.438  0.00  0.00    -0.267 OA
ATOM     11  H   UNL     1       2.549  -1.348  -3.011  0.00  0.00    +0.173 HD
ATOM     12  H   UNL     1      -0.687  -1.433  -0.322  0.00  0.00    +0.173 HD
ENDBRANCH   1   2
BRANCH   1  13
ATOM     13  C   UNL     1       4.664   0.268   1.018  0.00  0.00    +0.095 A 
ATOM     14  C   UNL     1       5.582  -0.342   2.061  0.00  0.00    +0.284 A 
ATOM     15  O   UNL     1       5.747  -1.541   2.129  0.00  0.00    -0.265 OA
ATOM     16  N   UNL     1       6.210   0.493   2.909  0.00  0.00    -0.153 NA
ATOM     17  C   UNL     1       6.040   1.819   2.852  0.00  0.00    +0.352 A 
ATOM     18  O   UNL     1       6.644   2.500   3.657  0.00  0.00    -0.245 OA
ATOM     19  N   UNL     1       5.253   2.450   1.973  0.00  0.00    -0.273 N 
ATOM     20  C   UNL     1       4.542   1.780   1.041  0.00  0.00    +0.262 A 
ATOM     21  O   UNL     1       3.833   2.366   0.250  0.00  0.00    -0.267 OA
ATOM     22  H   UNL     1       5.171   3.547   1.996  0.00  0.00    +0.173 HD
ENDBRANCH   1  13
BRANCH   1  28
ATOM     23  C   UNL     1       4.011  -2.445   0.105  0.00  0.00    +0.007 A 
ATOM     24  C   UNL     1       4.089  -3.824   0.054  0.00  0.00    +0.033 A 
ATOM     25  C   UNL     1       3.494  -4.587   1.041  0.00  0.00    +0.126 A 
ATOM     26  C   UNL     1       2.825  -3.971   2.082  0.00  0.00    +0.033 A 
ATOM     27  C   UNL     1       2.752  -2.592   2.136  0.00  0.00    +0.007 A 
ATOM     28  C   UNL     1       3.347  -1.829   1.149  0.00  0.00    -0.035 A 
BRANCH  25  29
ATOM     29  N   UNL     1       3.572  -6.064   0.982  0.00  0.00    +0.056 N 
ATOM     30  O   UNL     1       3.047  -6.737   1.851  0.00  0.00    -0.126 OA
ATOM     31  O   UNL     1       4.161  -6.607   0.065  0.00  0.00    -0.126 OA
ENDBRANCH  25  29
ENDBRANCH   1  28
TORSDOF 4
