REMARK  Name = ZINC48095744
REMARK  11 active torsions:
REMARK  status: ('A' for Active; 'I' for Inactive)
REMARK    1  A    between atoms: C_1  and  N_2
REMARK    2  A    between atoms: N_2  and  C_3
REMARK    3  A    between atoms: N_2  and  C_4
REMARK    4  A    between atoms: C_4  and  C_6
REMARK    5  A    between atoms: C_4  and  C_23
REMARK    6  A    between atoms: C_6  and  N_7
REMARK    7  A    between atoms: N_10  and  C_11
REMARK    8  A    between atoms: C_16  and  O_17
REMARK    9  A    between atoms: O_17  and  C_18
REMARK   10  A    between atoms: C_18  and  C_19
REMARK   11  A    between atoms: C_19  and  C_20
REMARK                            x       y       z     vdW  Elec       q    Type
REMARK                         _______ _______ _______ _____ _____    ______ ____
ROOT
ATOM      1  N   UNL     1      -1.796   1.542  -1.143  0.00  0.00    -0.300 N 
ATOM      2  C   UNL     1      -2.294   2.272  -2.161  0.00  0.00    +0.304 C 
ATOM      3  O   UNL     1      -3.004   1.745  -2.995  0.00  0.00    -0.253 OA
ATOM      4  N   UNL     1      -2.004   3.585  -2.254  0.00  0.00    -0.266 N 
ATOM      5  H   UNL     1      -1.229   1.962  -0.477  0.00  0.00    +0.150 HD
ATOM      6  H   UNL     1      -1.382   3.989  -1.630  0.00  0.00    +0.156 HD
ENDROOT
BRANCH   4   7
ATOM      7  C   UNL     1      -2.603   4.365  -3.253  0.00  0.00    +0.077 A 
ATOM      8  C   UNL     1      -3.891   4.080  -3.680  0.00  0.00    +0.027 A 
ATOM      9  C   UNL     1      -4.479   4.851  -4.665  0.00  0.00    +0.002 A 
ATOM     10  C   UNL     1      -3.786   5.907  -5.226  0.00  0.00    +0.004 A 
ATOM     11  C   UNL     1      -2.502   6.198  -4.805  0.00  0.00    +0.047 A 
ATOM     12  C   UNL     1      -1.907   5.433  -3.814  0.00  0.00    +0.142 A 
BRANCH  12  13
ATOM     13  O   UNL     1      -0.646   5.721  -3.395  0.00  0.00    -0.490 OA
BRANCH  13  14
ATOM     14  C   UNL     1       0.006   6.831  -4.016  0.00  0.00    +0.238 C 
BRANCH  14  15
ATOM     15  C   UNL     1       1.405   7.000  -3.420  0.00  0.00    +0.136 C 
BRANCH  15  16
ATOM     16  C   UNL     1       2.093   8.170  -4.074  0.00  0.00    +0.214 C 
ATOM     17  O   UNL     1       1.520   8.806  -4.934  0.00  0.00    -0.276 OA
ATOM     18  N   UNL     1       3.344   8.509  -3.705  0.00  0.00    -0.329 N 
ATOM     19  H   UNL     1       3.801   8.000  -3.018  0.00  0.00    +0.145 HD
ATOM     20  H   UNL     1       3.786   9.262  -4.127  0.00  0.00    +0.145 HD
ENDBRANCH  15  16
ENDBRANCH  14  15
ENDBRANCH  13  14
ENDBRANCH  12  13
ENDBRANCH   4   7
BRANCH   1  21
ATOM     21  C   UNL     1      -2.111   0.115  -1.041  0.00  0.00    +0.095 C 
BRANCH  21  22
ATOM     22  C   UNL     1      -1.329  -0.498   0.122  0.00  0.00    -0.021 C 
BRANCH  22  23
ATOM     23  C   UNL     1      -1.786   0.123   1.417  0.00  0.00    -0.059 A 
ATOM     24  C   UNL     1      -2.950  -0.314   2.021  0.00  0.00    +0.005 A 
ATOM     25  C   UNL     1      -3.369   0.255   3.208  0.00  0.00    +0.038 A 
ATOM     26  C   UNL     1      -2.623   1.263   3.793  0.00  0.00    +0.123 A 
ATOM     27  C   UNL     1      -1.457   1.701   3.188  0.00  0.00    +0.038 A 
ATOM     28  C   UNL     1      -1.037   1.127   2.003  0.00  0.00    +0.005 A 
ATOM     29  F   UNL     1      -3.032   1.821   4.954  0.00  0.00    -0.205 F 
ENDBRANCH  22  23
BRANCH  22  31
ATOM     30  C   UNL     1      -1.037  -2.566  -1.058  0.00  0.00    -0.096 C 
ATOM     31  N   UNL     1      -1.569  -1.947   0.163  0.00  0.00    +0.382 N 
ATOM     32  C   UNL     1      -0.896  -2.521   1.336  0.00  0.00    -0.096 C 
ATOM     33  H   UNL     1      -2.561  -2.122   0.225  0.00  0.00    -0.082 HD
ENDBRANCH  22  31
ENDBRANCH  21  22
ENDBRANCH   1  21
TORSDOF 9
