REMARK  Name = ZINC15151589
REMARK  11 active torsions:
REMARK  status: ('A' for Active; 'I' for Inactive)
REMARK    1  A    between atoms: C_1  and  C_2
REMARK    2  A    between atoms: C_4  and  C_30
REMARK    3  A    between atoms: C_5  and  N_9
REMARK    4  A    between atoms: N_9  and  C_10
REMARK    5  A    between atoms: C_10  and  N_12
REMARK    6  A    between atoms: N_12  and  C_13
REMARK    7  A    between atoms: C_13  and  C_14
REMARK    8  A    between atoms: C_14  and  C_16
REMARK    9  A    between atoms: C_14  and  N_24
REMARK   10  A    between atoms: C_19  and  O_22
REMARK   11  A    between atoms: O_22  and  C_23
REMARK                            x       y       z     vdW  Elec       q    Type
REMARK                         _______ _______ _______ _____ _____    ______ ____
ROOT
ATOM      1  C   UNL     1       0.103  -6.221   2.070  0.00  0.00    +0.092 C 
ENDROOT
BRANCH   1   2
ATOM      2  N   UNL     1       1.444  -6.076   2.642  0.00  0.00    -0.328 N 
ATOM      3  H   UNL     1       1.969  -6.864   2.851  0.00  0.00    +0.148 HD
BRANCH   2   4
ATOM      4  C   UNL     1       1.946  -4.849   2.879  0.00  0.00    +0.135 C 
ATOM      5  S   UNL     1       1.018  -3.458   2.511  0.00  0.00    -0.019 S 
BRANCH   4   6
ATOM      6  N   UNL     1       3.180  -4.716   3.406  0.00  0.00    -0.296 N 
ATOM      7  H   UNL     1       3.740  -5.497   3.532  0.00  0.00    +0.154 HD
BRANCH   6  12
ATOM      8  C   UNL     1       5.095   0.416   4.887  0.00  0.00    +0.044 C 
ATOM      9  C   UNL     1       4.587  -0.947   4.493  0.00  0.00    -0.049 A 
ATOM     10  C   UNL     1       3.535  -1.518   5.187  0.00  0.00    +0.008 A 
ATOM     11  C   UNL     1       3.067  -2.767   4.829  0.00  0.00    -0.028 A 
ATOM     12  C   UNL     1       3.652  -3.450   3.771  0.00  0.00    +0.054 A 
ATOM     13  C   UNL     1       4.708  -2.873   3.075  0.00  0.00    +0.063 A 
ATOM     14  C   UNL     1       5.169  -1.621   3.436  0.00  0.00    +0.025 A 
ATOM     15 CL   UNL     1       5.444  -3.723   1.752  0.00  0.00    -0.082 Cl
ATOM     16  C   UNL     1       1.921  -3.388   5.586  0.00  0.00    +0.046 C 
ENDBRANCH   6  12
ENDBRANCH   4   6
ENDBRANCH   2   4
ENDBRANCH   1   2
BRANCH   1  17
ATOM     17  C   UNL     1      -0.179  -7.700   1.799  0.00  0.00    -0.020 C 
BRANCH  17  18
ATOM     18  N   UNL     1      -1.463  -7.833   1.097  0.00  0.00    +0.385 N 
ATOM     19  C   UNL     1      -1.765  -9.256   0.898  0.00  0.00    -0.078 C 
ATOM     20  C   UNL     1      -3.138  -9.403   0.239  0.00  0.00    -0.019 C 
ATOM     21  C   UNL     1      -3.128  -8.687  -1.115  0.00  0.00    -0.004 C 
ATOM     22  C   UNL     1      -2.739  -7.221  -0.904  0.00  0.00    -0.019 C 
ATOM     23  C   UNL     1      -1.380  -7.155  -0.203  0.00  0.00    -0.078 C 
ATOM     24  H   UNL     1      -2.193  -7.411   1.650  0.00  0.00    -0.081 HD
ENDBRANCH  17  18
BRANCH  17  25
ATOM     25  C   UNL     1      -0.242  -8.447   3.106  0.00  0.00    -0.059 A 
ATOM     26  C   UNL     1      -1.395  -8.407   3.869  0.00  0.00    +0.005 A 
ATOM     27  C   UNL     1      -1.455  -9.091   5.068  0.00  0.00    +0.046 A 
ATOM     28  C   UNL     1      -0.358  -9.818   5.507  0.00  0.00    +0.120 A 
ATOM     29  C   UNL     1       0.797  -9.856   4.739  0.00  0.00    +0.046 A 
ATOM     30  C   UNL     1       0.851  -9.175   3.538  0.00  0.00    +0.005 A 
BRANCH  28  31
ATOM     31  O   UNL     1      -0.414 -10.491   6.686  0.00  0.00    -0.495 OA
ATOM     32  C   UNL     1       0.753 -11.218   7.075  0.00  0.00    +0.277 C 
ENDBRANCH  28  31
ENDBRANCH  17  25
ENDBRANCH   1  17
TORSDOF 8
