REMARK  Name = ZINC39672945
REMARK  6 active torsions:
REMARK  status: ('A' for Active; 'I' for Inactive)
REMARK    1  A    between atoms: C_4  and  C_7
REMARK    2  A    between atoms: C_10  and  C_12
REMARK    3  A    between atoms: C_16  and  C_25
REMARK    4  A    between atoms: N_27  and  C_28
REMARK    5  A    between atoms: C_28  and  C_29
REMARK    6  A    between atoms: C_29  and  N_35
REMARK                            x       y       z     vdW  Elec       q    Type
REMARK                         _______ _______ _______ _____ _____    ______ ____
ROOT
ATOM      1  C   UNL     1       8.956  -1.836   1.188  0.00  0.00    +0.282 C 
ATOM      2  O   UNL     1      10.003  -2.440   1.335  0.00  0.00    -0.267 OA
ATOM      3  N   UNL     1       8.972  -0.529   0.863  0.00  0.00    -0.294 N 
ATOM      4  C   UNL     1       7.818   0.394   0.752  0.00  0.00    +0.121 C 
ATOM      5  C   UNL     1       8.323   1.725   1.352  0.00  0.00    +0.100 C 
ATOM      6  C   UNL     1       9.853   1.666   1.205  0.00  0.00    -0.004 C 
ATOM      7  C   UNL     1      10.150   0.313   0.542  0.00  0.00    +0.115 C 
ATOM      8  C   UNL     1      10.344   2.808   0.321  0.00  0.00    -0.010 C 
ATOM      9  C   UNL     1      11.872   2.763   0.237  0.00  0.00    -0.082 C 
ATOM     10  N   UNL     1      12.441   2.882   1.585  0.00  0.00    +0.379 N 
ATOM     11  C   UNL     1      12.040   1.730   2.402  0.00  0.00    -0.082 C 
ATOM     12  C   UNL     1      10.518   1.732   2.577  0.00  0.00    -0.010 C 
ATOM     13  H   UNL     1      13.448   2.913   1.522  0.00  0.00    -0.086 HD
ATOM     14  H   UNL     1      12.108   3.731   2.016  0.00  0.00    -0.086 HD
ENDROOT
BRANCH   1  18
ATOM     15  C   UNL     1       5.520  -2.941   1.392  0.00  0.00    +0.136 A 
ATOM     16  C   UNL     1       6.140  -4.074   1.833  0.00  0.00    +0.050 A 
ATOM     17  C   UNL     1       7.516  -3.822   1.819  0.00  0.00    +0.055 A 
ATOM     18  C   UNL     1       7.678  -2.531   1.365  0.00  0.00    +0.190 A 
ATOM     19  O   UNL     1       6.456  -2.021   1.108  0.00  0.00    -0.450 OA
BRANCH  15  23
ATOM     20  C   UNL     1       1.327  -2.419   0.969  0.00  0.00    +0.000 A 
ATOM     21  C   UNL     1       2.179  -1.352   0.748  0.00  0.00    +0.001 A 
ATOM     22  C   UNL     1       3.542  -1.515   0.883  0.00  0.00    +0.011 A 
ATOM     23  C   UNL     1       4.061  -2.760   1.245  0.00  0.00    +0.017 A 
ATOM     24  C   UNL     1       3.195  -3.832   1.468  0.00  0.00    +0.011 A 
ATOM     25  C   UNL     1       1.834  -3.656   1.329  0.00  0.00    +0.001 A 
ENDBRANCH  15  23
ENDBRANCH   1  18
BRANCH   5  26
ATOM     26  C   UNL     1       7.937   1.826   2.805  0.00  0.00    +0.218 C 
ATOM     27  O   UNL     1       7.769   0.819   3.459  0.00  0.00    -0.275 OA
ATOM     28  N   UNL     1       7.777   3.036   3.377  0.00  0.00    -0.313 N 
ATOM     29  H   UNL     1       7.840   3.840   2.838  0.00  0.00    +0.149 HD
BRANCH  28  30
ATOM     30  C   UNL     1       7.509   3.137   4.814  0.00  0.00    +0.126 C 
BRANCH  30  31
ATOM     31  C   UNL     1       7.224   4.596   5.178  0.00  0.00    +0.038 C 
ATOM     32  C   UNL     1       8.339   5.486   4.626  0.00  0.00    +0.024 C 
ATOM     33  C   UNL     1       9.678   5.061   5.232  0.00  0.00    +0.002 C 
ATOM     34  C   UNL     1       9.618   5.204   6.754  0.00  0.00    +0.000 C 
ATOM     35  C   UNL     1       8.503   4.313   7.306  0.00  0.00    +0.002 C 
ATOM     36  C   UNL     1       7.164   4.738   6.700  0.00  0.00    +0.024 C 
BRANCH  31  37
ATOM     37  N   UNL     1       5.938   5.003   4.597  0.00  0.00    -0.291 NA
ATOM     38  C   UNL     1       4.853   4.119   5.045  0.00  0.00    +0.113 C 
ATOM     39  C   UNL     1       3.526   4.615   4.465  0.00  0.00    +0.175 C 
ATOM     40  O   UNL     1       3.625   4.670   3.040  0.00  0.00    -0.377 OA
ATOM     41  C   UNL     1       4.672   5.523   2.568  0.00  0.00    +0.175 C 
ATOM     42  C   UNL     1       6.011   5.037   3.129  0.00  0.00    +0.113 C 
ENDBRANCH  31  37
ENDBRANCH  30  31
ENDBRANCH  28  30
ENDBRANCH   5  26
TORSDOF 6
