REMARK  Name = ZINC65520021
REMARK  6 active torsions:
REMARK  status: ('A' for Active; 'I' for Inactive)
REMARK    1  A    between atoms: C_1  and  N_2
REMARK    2  A    between atoms: N_4  and  C_5
REMARK    3  A    between atoms: N_6  and  C_7
REMARK    4  A    between atoms: C_7  and  C_8
REMARK    5  A    between atoms: C_12  and  S_14
REMARK    6  A    between atoms: S_14  and  N_17
REMARK                            x       y       z     vdW  Elec       q    Type
REMARK                         _______ _______ _______ _____ _____    ______ ____
ROOT
ATOM      1  C   UNL     1      -3.802   1.890  -0.145  0.00  0.00    -0.026 A 
ATOM      2  C   UNL     1      -4.469   1.924  -1.356  0.00  0.00    +0.005 A 
ATOM      3  C   UNL     1      -5.783   2.349  -1.409  0.00  0.00    +0.002 A 
ATOM      4  C   UNL     1      -6.430   2.740  -0.252  0.00  0.00    +0.028 A 
ATOM      5  C   UNL     1      -5.764   2.706   0.958  0.00  0.00    +0.105 A 
ATOM      6  C   UNL     1      -4.451   2.276   1.012  0.00  0.00    +0.034 A 
ENDROOT
BRANCH   5   7
ATOM      7  S   UNL     1      -6.589   3.205   2.433  0.00  0.00    +0.056 S 
ATOM      8  O   UNL     1      -5.578   3.598   3.351  0.00  0.00    -0.153 OA
ATOM      9  O   UNL     1      -7.638   4.077   2.036  0.00  0.00    -0.153 OA
BRANCH   7  10
ATOM     10  N   UNL     1      -7.310   1.857   3.071  0.00  0.00    -0.204 NA
ATOM     11  H   UNL     1      -7.222   1.002   2.622  0.00  0.00    +0.144 HD
ATOM     12  H   UNL     1      -7.819   1.923   3.893  0.00  0.00    +0.144 HD
ENDBRANCH   7  10
ENDBRANCH   5   7
BRANCH   1  13
ATOM     13  C   UNL     1      -2.369   1.427  -0.087  0.00  0.00    +0.151 C 
BRANCH  13  19
ATOM     14  C   UNL     1      -0.006   1.451   0.234  0.00  0.00    +0.142 C 
ATOM     15  N   UNL     1       0.004  -0.003   0.059  0.00  0.00    -0.361 N 
ATOM     16  C   UNL     1      -1.138  -0.687   0.102  0.00  0.00    +0.171 C 
ATOM     17  N   UNL     1      -1.116  -2.019   0.121  0.00  0.00    -0.361 N 
ATOM     18  C   UNL     1       0.164  -2.731   0.096  0.00  0.00    +0.142 C 
ATOM     19  N   UNL     1      -2.333  -0.022   0.125  0.00  0.00    -0.354 N 
ATOM     20  H   UNL     1       0.843  -0.468  -0.088  0.00  0.00    +0.162 HD
ATOM     21  H   UNL     1      -3.156  -0.510   0.282  0.00  0.00    +0.163 HD
ATOM     22  H   UNL     1      -1.948  -2.517   0.152  0.00  0.00    +0.162 HD
ENDBRANCH  13  19
ENDBRANCH   1  13
TORSDOF 4
