REMARK  Name = ZINC04285054
REMARK  6 active torsions:
REMARK  status: ('A' for Active; 'I' for Inactive)
REMARK    1  A    between atoms: C_1  and  C_2
REMARK    2  A    between atoms: C_2  and  C_3
REMARK    3  A    between atoms: C_2  and  C_5
REMARK    4  A    between atoms: C_2  and  N_8
REMARK    5  A    between atoms: C_9  and  C_11
REMARK    6  A    between atoms: C_11  and  N_12
REMARK                            x       y       z     vdW  Elec       q    Type
REMARK                         _______ _______ _______ _____ _____    ______ ____
ROOT
ATOM      1  N   UNL     1      -1.372  -0.511   0.012  0.00  0.00    -0.215 N 
ATOM      2  C   UNL     1      -2.094  -0.767  -1.098  0.00  0.00    +0.251 C 
ATOM      3  O   UNL     1      -1.742  -0.628  -2.250  0.00  0.00    -0.272 OA
ATOM      4  C   UNL     1      -3.434  -1.266  -0.604  0.00  0.00    +0.138 C 
ATOM      5  C   UNL     1      -3.677  -2.692  -1.083  0.00  0.00    +0.040 C 
ATOM      6  C   UNL     1      -3.988  -2.654  -2.584  0.00  0.00    +0.008 C 
ATOM      7  C   UNL     1      -5.352  -1.995  -2.778  0.00  0.00    +0.035 C 
ATOM      8  C   UNL     1      -5.412  -0.674  -2.057  0.00  0.00    -0.042 A 
ATOM      9  C   UNL     1      -4.529  -0.340  -1.052  0.00  0.00    -0.012 A 
ATOM     10  C   UNL     1      -4.641   0.891  -0.421  0.00  0.00    +0.006 A 
ATOM     11  C   UNL     1      -5.625   1.784  -0.794  0.00  0.00    +0.000 A 
ATOM     12  C   UNL     1      -6.508   1.450  -1.804  0.00  0.00    +0.000 A 
ATOM     13  C   UNL     1      -6.400   0.226  -2.431  0.00  0.00    +0.004 A 
ATOM     14  N   UNL     1      -3.307  -1.233   0.860  0.00  0.00    -0.281 N 
ATOM     15  C   UNL     1      -2.065  -0.783   1.125  0.00  0.00    +0.310 C 
ATOM     16  O   UNL     1      -1.625  -0.636   2.248  0.00  0.00    -0.252 OA
ATOM     17  H   UNL     1      -3.982  -1.488   1.507  0.00  0.00    +0.152 HD
ENDROOT
BRANCH   1  18
ATOM     18  C   UNL     1       0.002  -0.004   0.002  0.00  0.00    +0.213 C 
BRANCH  18  20
ATOM     19  N   UNL     1       1.139   2.192   0.003  0.00  0.00    -0.296 N 
ATOM     20  C   UNL     1      -0.018   1.503   0.010  0.00  0.00    +0.232 C 
ATOM     21  O   UNL     1      -1.077   2.095   0.018  0.00  0.00    -0.274 OA
ATOM     22  H   UNL     1       1.986   1.719  -0.008  0.00  0.00    +0.150 HD
BRANCH  19  24
ATOM     23  C   UNL     1       0.380   4.164  -1.228  0.00  0.00    +0.048 C 
ATOM     24  C   UNL     1       1.120   3.657   0.011  0.00  0.00    +0.121 C 
BRANCH  24  25
ATOM     25  C   UNL     1       2.555   4.187   0.000  0.00  0.00    +0.026 C 
ATOM     26  C   UNL     1       3.021   4.991   1.216  0.00  0.00    +0.007 C 
ATOM     27  C   UNL     1       2.749   5.700  -0.112  0.00  0.00    +0.007 C 
ENDBRANCH  24  25
BRANCH  24  28
ATOM     28  C   UNL     1       0.431   4.132   1.222  0.00  0.00    +0.088 C 
ATOM     29  N   UNL     1      -0.101   4.498   2.157  0.00  0.00    -0.194 NA
ENDBRANCH  24  28
ENDBRANCH  19  24
ENDBRANCH  18  20
ENDBRANCH   1  18
TORSDOF 5
