REMARK  Name = ZINC44595031
REMARK  7 active torsions:
REMARK  status: ('A' for Active; 'I' for Inactive)
REMARK    1  A    between atoms: C_1  and  C_2
REMARK    2  A    between atoms: C_4  and  C_7
REMARK    3  A    between atoms: C_7  and  N_8
REMARK    4  A    between atoms: N_8  and  C_9
REMARK    5  A    between atoms: N_8  and  C_10
REMARK    6  A    between atoms: C_10  and  C_11
REMARK    7  A    between atoms: C_12  and  N_18
REMARK                            x       y       z     vdW  Elec       q    Type
REMARK                         _______ _______ _______ _____ _____    ______ ____
ROOT
ATOM      1  C   UNL     1      -3.656  -4.152   1.367  0.00  0.00    -0.040 C 
ENDROOT
BRANCH   1   2
ATOM      2  C   UNL     1      -4.187  -4.281   2.772  0.00  0.00    -0.029 A 
ATOM      3  C   UNL     1      -3.751  -5.317   3.588  0.00  0.00    +0.027 A 
ATOM      4  C   UNL     1      -4.243  -5.431   4.882  0.00  0.00    +0.023 A 
ATOM      5  C   UNL     1      -5.162  -4.515   5.354  0.00  0.00    +0.003 A 
ATOM      6  C   UNL     1      -5.595  -3.485   4.540  0.00  0.00    +0.015 A 
ATOM      7  C   UNL     1      -5.104  -3.365   3.252  0.00  0.00    +0.021 A 
ATOM      8 BR   UNL     1      -5.692  -1.949   2.145  0.00  0.00    -0.050 Br
BRANCH   3   9
ATOM      9  N   UNL     1      -2.821  -6.242   3.108  0.00  0.00    -0.358 N 
ATOM     10  H   UNL     1      -2.479  -6.161   2.204  0.00  0.00    +0.142 HD
ATOM     11  H   UNL     1      -2.518  -6.965   3.679  0.00  0.00    +0.142 HD
ENDBRANCH   3   9
ENDBRANCH   1   2
BRANCH   1  12
ATOM     12  N   UNL     1      -2.448  -3.317   1.375  0.00  0.00    +0.384 N 
ATOM     13  C   UNL     1      -1.387  -3.997   2.131  0.00  0.00    -0.095 C 
ATOM     14  H   UNL     1      -2.655  -2.430   1.810  0.00  0.00    -0.081 HD
BRANCH  12  15
ATOM     15  C   UNL     1      -1.999  -3.093  -0.006  0.00  0.00    -0.022 C 
BRANCH  15  19
ATOM     16  C   UNL     1      -0.018   1.503   0.010  0.00  0.00    +0.073 C 
ATOM     17  C   UNL     1       0.002  -0.004   0.002  0.00  0.00    +0.075 A 
ATOM     18  N   UNL     1      -1.013  -0.832   0.002  0.00  0.00    -0.251 NA
ATOM     19  C   UNL     1      -0.834  -2.137  -0.006  0.00  0.00    +0.032 A 
ATOM     20  C   UNL     1       0.449  -2.582  -0.014  0.00  0.00    +0.068 A 
ATOM     21  S   UNL     1       1.335  -1.032  -0.017  0.00  0.00    -0.081 S 
ENDBRANCH  15  19
ENDBRANCH  12  15
ENDBRANCH   1  12
TORSDOF 5
