REMARK  Name = ZINC03137442
REMARK  10 active torsions:
REMARK  status: ('A' for Active; 'I' for Inactive)
REMARK    1  A    between atoms: C_1  and  N_35
REMARK    2  A    between atoms: C_2  and  N_35
REMARK    3  A    between atoms: C_3  and  C_5
REMARK    4  A    between atoms: C_3  and  N_9
REMARK    5  A    between atoms: C_3  and  N_35
REMARK    6  A    between atoms: N_12  and  C_13
REMARK    7  A    between atoms: C_13  and  C_15
REMARK    8  A    between atoms: C_13  and  N_37
REMARK    9  A    between atoms: C_19  and  N_37
REMARK   10  A    between atoms: C_20  and  N_37
REMARK                            x       y       z     vdW  Elec       q    Type
REMARK                         _______ _______ _______ _____ _____    ______ ____
ROOT
ATOM      1  N   UNL     1      -0.907   2.352  -0.725  0.00  0.00    -0.309 N 
ATOM      2  C   UNL     1       0.054   2.786   0.114  0.00  0.00    +0.297 C 
ATOM      3  O   UNL     1       0.299   3.974   0.196  0.00  0.00    -0.253 OA
ATOM      4  N   UNL     1       0.743   1.903   0.863  0.00  0.00    -0.309 N 
ATOM      5  H   UNL     1      -1.102   1.404  -0.790  0.00  0.00    +0.148 HD
ATOM      6  H   UNL     1       0.548   0.955   0.798  0.00  0.00    +0.148 HD
ENDROOT
BRANCH   1   7
ATOM      7  C   UNL     1      -1.652   3.312  -1.544  0.00  0.00    +0.071 C 
BRANCH   7  10
ATOM      8  C   UNL     1      -3.668   2.188  -0.814  0.00  0.00    -0.094 C 
ATOM      9  C   UNL     1      -2.959   4.231   0.275  0.00  0.00    -0.094 C 
ATOM     10  N   UNL     1      -3.017   3.500  -1.009  0.00  0.00    +0.391 N 
ATOM     11  H   UNL     1      -3.566   4.049  -1.681  0.00  0.00    -0.080 HD
ENDBRANCH   7  10
BRANCH   7  12
ATOM     12  C   UNL     1      -1.753   2.788  -2.978  0.00  0.00    +0.194 C 
ATOM     13 CL   UNL     1      -2.442   1.122  -2.962  0.00  0.00    -0.084 Cl
ATOM     14 CL   UNL     1      -2.826   3.872  -3.940  0.00  0.00    -0.084 Cl
ATOM     15 CL   UNL     1      -0.111   2.753  -3.722  0.00  0.00    -0.084 Cl
ENDBRANCH   7  12
ENDBRANCH   1   7
BRANCH   4  16
ATOM     16  C   UNL     1       1.788   2.375   1.776  0.00  0.00    +0.071 C 
BRANCH  16  17
ATOM     17  C   UNL     1       1.642   1.669   3.126  0.00  0.00    +0.194 C 
ATOM     18 CL   UNL     1       1.623  -0.116   2.872  0.00  0.00    -0.084 Cl
ATOM     19 CL   UNL     1       3.032   2.110   4.187  0.00  0.00    -0.084 Cl
ATOM     20 CL   UNL     1       0.101   2.182   3.909  0.00  0.00    -0.084 Cl
ENDBRANCH  16  17
BRANCH  16  23
ATOM     21  C   UNL     1       3.209   0.659   0.829  0.00  0.00    -0.094 C 
ATOM     22  C   UNL     1       3.398   2.947   0.060  0.00  0.00    -0.094 C 
ATOM     23  N   UNL     1       3.128   2.080   1.227  0.00  0.00    +0.391 N 
ATOM     24  H   UNL     1       3.833   2.265   1.950  0.00  0.00    -0.080 HD
ENDBRANCH  16  23
ENDBRANCH   4  16
TORSDOF 6
