REMARK  Name = ZINC58226495
REMARK  7 active torsions:
REMARK  status: ('A' for Active; 'I' for Inactive)
REMARK    1  A    between atoms: C_1  and  C_2
REMARK    2  A    between atoms: C_2  and  C_4
REMARK    3  A    between atoms: C_2  and  N_21
REMARK    4  A    between atoms: N_6  and  C_7
REMARK    5  A    between atoms: C_10  and  N_13
REMARK    6  A    between atoms: C_14  and  C_16
REMARK    7  A    between atoms: C_25  and  O_28
REMARK                            x       y       z     vdW  Elec       q    Type
REMARK                         _______ _______ _______ _____ _____    ______ ____
ROOT
ATOM      1  C   UNL     1       0.534  -0.280   1.168  0.00  0.00    +0.203 C 
ATOM      2  O   UNL     1      -0.188  -0.799   1.994  0.00  0.00    -0.277 OA
ATOM      3  N   UNL     1       1.820  -0.015   1.469  0.00  0.00    -0.287 N 
ATOM      4  H   UNL     1       2.380   0.457   0.833  0.00  0.00    +0.155 HD
ENDROOT
BRANCH   3   5
ATOM      5  C   UNL     1       2.349  -0.420   2.701  0.00  0.00    +0.033 A 
ATOM      6  C   UNL     1       3.672  -0.834   2.787  0.00  0.00    +0.025 A 
ATOM      7  C   UNL     1       4.194  -1.233   4.001  0.00  0.00    +0.025 A 
ATOM      8  C   UNL     1       3.395  -1.221   5.137  0.00  0.00    +0.034 A 
ATOM      9  C   UNL     1       2.072  -0.807   5.052  0.00  0.00    +0.025 A 
ATOM     10  C   UNL     1       1.552  -0.403   3.838  0.00  0.00    +0.025 A 
BRANCH   8  11
ATOM     11  N   UNL     1       3.924  -1.626   6.368  0.00  0.00    -0.281 N 
ATOM     12  C   UNL     1       5.214  -1.373   6.664  0.00  0.00    +0.255 C 
ATOM     13  O   UNL     1       5.895  -0.712   5.901  0.00  0.00    -0.269 OA
ATOM     14  H   UNL     1       3.362  -2.089   7.009  0.00  0.00    +0.155 HD
BRANCH  12  15
ATOM     15  C   UNL     1       5.798  -1.893   7.903  0.00  0.00    +0.074 A 
ATOM     16  C   UNL     1       7.087  -1.744   8.392  0.00  0.00    +0.021 A 
ATOM     17  C   UNL     1       7.343  -2.354   9.597  0.00  0.00    +0.008 A 
ATOM     18  C   UNL     1       6.348  -3.041  10.212  0.00  0.00    +0.046 A 
ATOM     19  S   UNL     1       5.034  -2.876   9.180  0.00  0.00    -0.092 S 
ENDBRANCH  12  15
ENDBRANCH   8  11
ENDBRANCH   3   5
BRANCH   1  21
ATOM     20  C   UNL     1      -0.161   1.587  -0.309  0.00  0.00    -0.004 C 
ATOM     21  C   UNL     1      -0.009   0.069  -0.194  0.00  0.00    +0.017 C 
BRANCH  21  22
ATOM     22  N   UNL     1      -1.319  -0.570  -0.378  0.00  0.00    +0.389 N 
ATOM     23  C   UNL     1      -1.152  -2.028  -0.400  0.00  0.00    -0.078 C 
ATOM     24  C   UNL     1      -2.522  -2.701  -0.510  0.00  0.00    -0.016 C 
ATOM     25  C   UNL     1      -3.207  -2.244  -1.801  0.00  0.00    +0.027 C 
ATOM     26  C   UNL     1      -3.309  -0.716  -1.800  0.00  0.00    +0.098 C 
ATOM     27  C   UNL     1      -1.910  -0.117  -1.642  0.00  0.00    -0.046 C 
ATOM     28  H   UNL     1      -1.926  -0.315   0.387  0.00  0.00    -0.081 HD
BRANCH  26  29
ATOM     29  O   UNL     1      -3.882  -0.275  -3.032  0.00  0.00    -0.394 OA
ATOM     30  H   UNL     1      -4.770  -0.620  -3.199  0.00  0.00    +0.210 HD
ENDBRANCH  26  29
ENDBRANCH  21  22
ENDBRANCH   1  21
TORSDOF 6
