REMARK  Name = ZINC32935679
REMARK  7 active torsions:
REMARK  status: ('A' for Active; 'I' for Inactive)
REMARK    1  A    between atoms: C_4  and  S_23
REMARK    2  A    between atoms: C_5  and  N_7
REMARK    3  A    between atoms: C_8  and  C_10
REMARK    4  A    between atoms: C_10  and  N_11
REMARK    5  A    between atoms: C_15  and  C_18
REMARK    6  A    between atoms: C_18  and  N_19
REMARK    7  A    between atoms: S_23  and  C_24
REMARK                            x       y       z     vdW  Elec       q    Type
REMARK                         _______ _______ _______ _____ _____    ______ ____
ROOT
ATOM      1  N   UNL     1       2.436   1.054   0.186  0.00  0.00    -0.286 N 
ATOM      2  C   UNL     1       2.536  -0.280   0.353  0.00  0.00    +0.201 C 
ATOM      3  O   UNL     1       1.572  -0.920   0.716  0.00  0.00    -0.278 OA
ATOM      4  H   UNL     1       3.329   1.647  -0.058  0.00  0.00    +0.155 HD
ENDROOT
BRANCH   1   9
ATOM      5  C   UNL     1      -1.202   1.572   0.366  0.00  0.00    +0.002 A 
ATOM      6  C   UNL     1      -1.267   2.934   0.601  0.00  0.00    +0.001 A 
ATOM      7  C   UNL     1      -0.107   3.679   0.694  0.00  0.00    +0.017 A 
ATOM      8  C   UNL     1       1.128   3.060   0.557  0.00  0.00    +0.034 A 
ATOM      9  C   UNL     1       1.193   1.685   0.325  0.00  0.00    +0.047 A 
ATOM     10  C   UNL     1       0.023   0.946   0.234  0.00  0.00    +0.024 A 
BRANCH   8  11
ATOM     11  S   UNL     1       2.609   4.007   0.674  0.00  0.00    -0.088 S 
BRANCH  11  12
ATOM     12  C   UNL     1       2.052   5.615   1.130  0.00  0.00    +0.013 A 
ATOM     13  C   UNL     1       1.820   6.574   0.151  0.00  0.00    +0.016 A 
ATOM     14  C   UNL     1       1.379   7.832   0.511  0.00  0.00    +0.021 A 
ATOM     15  C   UNL     1       1.177   8.141   1.845  0.00  0.00    +0.041 A 
ATOM     16  C   UNL     1       1.413   7.190   2.822  0.00  0.00    +0.021 A 
ATOM     17  C   UNL     1       1.849   5.928   2.468  0.00  0.00    +0.016 A 
ATOM     18 CL   UNL     1       0.627   9.726   2.294  0.00  0.00    -0.084 Cl
ENDBRANCH  11  12
ENDBRANCH   8  11
ENDBRANCH   1   9
BRANCH   2  19
ATOM     19  C   UNL     1       3.846  -0.976   0.088  0.00  0.00    +0.019 C 
BRANCH  19  20
ATOM     20  N   UNL     1       3.696  -2.415   0.340  0.00  0.00    +0.386 N 
ATOM     21  C   UNL     1       2.775  -3.025  -0.627  0.00  0.00    -0.078 C 
ATOM     22  C   UNL     1       2.530  -4.487  -0.248  0.00  0.00    -0.018 C 
ATOM     23  C   UNL     1       3.864  -5.239  -0.242  0.00  0.00    +0.001 C 
ATOM     24  C   UNL     1       4.822  -4.554   0.737  0.00  0.00    -0.011 C 
ATOM     25  C   UNL     1       5.000  -3.090   0.329  0.00  0.00    -0.073 C 
ATOM     26  H   UNL     1       3.262  -2.541   1.342  0.00  0.00    -0.081 HD
BRANCH  24  27
ATOM     27  C   UNL     1       6.178  -5.262   0.705  0.00  0.00    +0.107 C 
BRANCH  27  28
ATOM     28  N   UNL     1       6.026  -6.631   1.204  0.00  0.00    -0.299 N 
ATOM     29  C   UNL     1       7.096  -7.448   1.267  0.00  0.00    +0.297 C 
ATOM     30  O   UNL     1       8.187  -7.050   0.909  0.00  0.00    -0.253 OA
ATOM     31  N   UNL     1       6.956  -8.707   1.727  0.00  0.00    -0.313 N 
ATOM     32  H   UNL     1       5.038  -6.992   1.528  0.00  0.00    +0.150 HD
ATOM     33  H   UNL     1       7.829  -9.374   1.779  0.00  0.00    +0.146 HD
ATOM     34  H   UNL     1       5.968  -9.068   2.051  0.00  0.00    +0.146 HD
ENDBRANCH  27  28
ENDBRANCH  24  27
ENDBRANCH  19  20
ENDBRANCH   2  19
TORSDOF 7
