REMARK  Name = ZINC15420347
REMARK  13 active torsions:
REMARK  status: ('A' for Active; 'I' for Inactive)
REMARK    1  A    between atoms: C_1  and  C_2
REMARK    2  A    between atoms: C_2  and  N_60
REMARK    3  A    between atoms: C_3  and  C_4
REMARK    4  A    between atoms: C_3  and  N_60
REMARK    5  A    between atoms: C_5  and  C_17
REMARK    6  A    between atoms: C_6  and  C_12
REMARK    7  A    between atoms: C_17  and  O_19
REMARK    8  A    between atoms: O_19  and  C_20
REMARK    9  A    between atoms: C_20  and  C_21
REMARK   10  A    between atoms: C_22  and  C_23
REMARK   11  A    between atoms: C_22  and  N_60
REMARK   12  A    between atoms: N_25  and  C_26
REMARK   13  A    between atoms: C_31  and  C_32
REMARK                            x       y       z     vdW  Elec       q    Type
REMARK                         _______ _______ _______ _____ _____    ______ ____
ROOT
ATOM      1  C   UNL     1      -3.395   7.341  -0.663  0.00  0.00    +0.008 C 
ATOM      2  C   UNL     1      -3.248   8.188   0.378  0.00  0.00    +0.079 C 
ATOM      3  C   UNL     1      -2.949   9.641   0.070  0.00  0.00    +0.179 C 
ATOM      4  N   UNL     1      -2.842  10.013  -1.351  0.00  0.00    -0.285 N 
ATOM      5  C   UNL     1      -3.015   9.052  -2.280  0.00  0.00    +0.304 C 
ATOM      6  O   UNL     1      -2.929   9.349  -3.456  0.00  0.00    -0.252 OA
ATOM      7  N   UNL     1      -3.273   7.780  -1.951  0.00  0.00    -0.274 N 
ATOM      8  H   UNL     1      -2.652  10.927  -1.612  0.00  0.00    +0.151 HD
ATOM      9  H   UNL     1      -3.383   7.135  -2.667  0.00  0.00    +0.156 HD
ENDROOT
BRANCH   3  10
ATOM     10  C   UNL     1      -1.649  10.001   0.743  0.00  0.00    +0.130 A 
ATOM     11  C   UNL     1      -1.523  10.663   1.907  0.00  0.00    +0.047 A 
ATOM     12  C   UNL     1      -0.138  10.783   2.162  0.00  0.00    +0.041 A 
ATOM     13  C   UNL     1       0.500  10.186   1.139  0.00  0.00    +0.195 A 
ATOM     14  O   UNL     1      -0.421   9.709   0.285  0.00  0.00    -0.466 OA
ENDBRANCH   3  10
BRANCH   2  15
ATOM     15  C   UNL     1      -3.370   7.734   1.713  0.00  0.00    +0.339 C 
ATOM     16  O   UNL     1      -3.490   6.545   1.942  0.00  0.00    -0.245 OA
BRANCH  15  17
ATOM     17  O   UNL     1      -3.352   8.619   2.731  0.00  0.00    -0.462 OA
BRANCH  17  18
ATOM     18  C   UNL     1      -3.479   8.091   4.052  0.00  0.00    +0.229 C 
ATOM     19  C   UNL     1      -3.438   9.236   5.066  0.00  0.00    +0.048 C 
ENDBRANCH  17  18
ENDBRANCH  15  17
ENDBRANCH   2  15
BRANCH   1  20
ATOM     20  C   UNL     1      -3.693   5.888  -0.401  0.00  0.00    -0.026 C 
BRANCH  20  21
ATOM     21  N   UNL     1      -2.421   5.177  -0.151  0.00  0.00    +0.389 N 
ATOM     22  H   UNL     1      -1.910   5.662   0.596  0.00  0.00    -0.081 HD
BRANCH  21  24
ATOM     23  C   UNL     1      -3.227   3.812   1.711  0.00  0.00    -0.017 C 
ATOM     24  C   UNL     1      -2.694   3.789   0.277  0.00  0.00    -0.081 C 
ENDBRANCH  21  24
BRANCH  21  25
ATOM     25  C   UNL     1      -1.595   5.175  -1.376  0.00  0.00    +0.019 C 
BRANCH  25  26
ATOM     26  C   UNL     1      -0.225   4.645  -1.038  0.00  0.00    +0.201 C 
ATOM     27  O   UNL     1       0.025   4.293   0.095  0.00  0.00    -0.278 OA
ATOM     28  N   UNL     1       0.721   4.563  -1.994  0.00  0.00    -0.287 N 
ATOM     29  H   UNL     1       0.541   4.904  -2.884  0.00  0.00    +0.155 HD
BRANCH  28  30
ATOM     30  C   UNL     1       1.962   3.986  -1.703  0.00  0.00    +0.038 A 
ATOM     31  C   UNL     1       2.525   4.145  -0.444  0.00  0.00    +0.043 A 
ATOM     32  C   UNL     1       3.753   3.578  -0.161  0.00  0.00    +0.043 A 
ATOM     33  C   UNL     1       4.421   2.852  -1.132  0.00  0.00    +0.020 A 
ATOM     34  C   UNL     1       3.862   2.692  -2.386  0.00  0.00    +0.006 A 
ATOM     35  C   UNL     1       2.635   3.257  -2.674  0.00  0.00    -0.029 A 
ATOM     36  C   UNL     1       2.026   3.081  -4.042  0.00  0.00    +0.045 C 
ATOM     37 CL   UNL     1       4.458   3.776   1.413  0.00  0.00    -0.083 Cl
ENDBRANCH  28  30
ENDBRANCH  25  26
ENDBRANCH  21  25
ENDBRANCH  20  21
ENDBRANCH   1  20
TORSDOF 10
