REMARK  Name = ZINC66907811
REMARK  7 active torsions:
REMARK  status: ('A' for Active; 'I' for Inactive)
REMARK    1  A    between atoms: C_10  and  C_11
REMARK    2  A    between atoms: C_10  and  O_29
REMARK    3  A    between atoms: C_11  and  N_12
REMARK    4  A    between atoms: N_15  and  C_16
REMARK    5  A    between atoms: C_16  and  C_17
REMARK    6  A    between atoms: C_17  and  C_19
REMARK    7  A    between atoms: C_17  and  N_24
REMARK                            x       y       z     vdW  Elec       q    Type
REMARK                         _______ _______ _______ _____ _____    ______ ____
ROOT
ATOM      1  N   UNL     1       4.308   1.616  -0.846  0.00  0.00    -0.296 N 
ATOM      2  C   UNL     1       5.092   2.444  -1.565  0.00  0.00    +0.300 C 
ATOM      3  O   UNL     1       5.651   2.036  -2.564  0.00  0.00    -0.253 OA
ATOM      4  N   UNL     1       5.256   3.724  -1.176  0.00  0.00    -0.301 N 
ATOM      5  H   UNL     1       3.862   1.942  -0.049  0.00  0.00    +0.150 HD
ATOM      6  H   UNL     1       4.810   4.049  -0.378  0.00  0.00    +0.150 HD
ENDROOT
BRANCH   1   7
ATOM      7  C   UNL     1       4.129   0.225  -1.269  0.00  0.00    +0.145 C 
BRANCH   7  17
ATOM      8  C   UNL     1       2.713  -4.525  -1.623  0.00  0.00    +0.000 A 
ATOM      9  C   UNL     1       2.784  -3.495  -2.544  0.00  0.00    +0.000 A 
ATOM     10  C   UNL     1       2.919  -2.194  -2.107  0.00  0.00    +0.007 A 
ATOM     11  C   UNL     1       2.987  -1.909  -0.749  0.00  0.00    -0.011 A 
ATOM     12  C   UNL     1       2.922  -2.934   0.167  0.00  0.00    -0.041 A 
ATOM     13  C   UNL     1       2.781  -4.244  -0.275  0.00  0.00    +0.004 A 
ATOM     14  C   UNL     1       3.005  -2.700   1.653  0.00  0.00    +0.035 C 
ATOM     15  C   UNL     1       2.724  -1.236   1.983  0.00  0.00    +0.008 C 
ATOM     16  C   UNL     1       3.621  -0.360   1.100  0.00  0.00    +0.041 C 
ATOM     17  C   UNL     1       3.128  -0.465  -0.342  0.00  0.00    +0.107 C 
BRANCH  17  18
ATOM     18  O   UNL     1       1.859   0.182  -0.454  0.00  0.00    -0.382 OA
ATOM     19  H   UNL     1       1.489   0.170  -1.348  0.00  0.00    +0.211 HD
ENDBRANCH  17  18
ENDBRANCH   7  17
ENDBRANCH   1   7
BRANCH   4  20
ATOM     20  C   UNL     1       6.109   4.623  -1.957  0.00  0.00    +0.098 C 
BRANCH  20  21
ATOM     21  C   UNL     1       6.232   5.966  -1.233  0.00  0.00    +0.016 C 
BRANCH  21  22
ATOM     22  N   UNL     1       6.979   6.910  -2.075  0.00  0.00    +0.387 N 
ATOM     23  C   UNL     1       6.231   7.179  -3.330  0.00  0.00    -0.078 C 
ATOM     24  C   UNL     1       6.810   8.536  -3.804  0.00  0.00    -0.020 C 
ATOM     25  C   UNL     1       7.019   9.304  -2.478  0.00  0.00    -0.020 C 
ATOM     26  C   UNL     1       7.103   8.215  -1.392  0.00  0.00    -0.078 C 
ATOM     27  H   UNL     1       7.893   6.539  -2.287  0.00  0.00    -0.081 HD
ENDBRANCH  21  22
BRANCH  21  28
ATOM     28  C   UNL     1       6.963   5.769   0.070  0.00  0.00    +0.093 A 
ATOM     29  C   UNL     1       6.392   5.664   1.284  0.00  0.00    +0.043 A 
ATOM     30  C   UNL     1       7.441   5.490   2.216  0.00  0.00    +0.041 A 
ATOM     31  C   UNL     1       8.590   5.499   1.516  0.00  0.00    +0.195 A 
ATOM     32  O   UNL     1       8.294   5.663   0.216  0.00  0.00    -0.469 OA
ENDBRANCH  21  28
ENDBRANCH  20  21
ENDBRANCH   4  20
TORSDOF 7
