REMARK  Name = ZINC55088556
REMARK  9 active torsions:
REMARK  status: ('A' for Active; 'I' for Inactive)
REMARK    1  A    between atoms: C_1  and  C_2
REMARK    2  A    between atoms: C_3  and  C_27
REMARK    3  A    between atoms: C_8  and  C_10
REMARK    4  A    between atoms: C_10  and  N_11
REMARK    5  A    between atoms: N_11  and  C_12
REMARK    6  A    between atoms: C_12  and  C_13
REMARK    7  A    between atoms: N_15  and  C_22
REMARK    8  A    between atoms: C_22  and  C_23
REMARK    9  A    between atoms: C_23  and  C_24
REMARK                            x       y       z     vdW  Elec       q    Type
REMARK                         _______ _______ _______ _____ _____    ______ ____
ROOT
ATOM      1  C   UNL     1      -2.694  -2.289   7.165  0.00  0.00    -0.039 A 
ATOM      2  C   UNL     1      -3.484  -1.354   7.717  0.00  0.00    +0.088 A 
ATOM      3  N   UNL     1      -4.694  -1.902   8.048  0.00  0.00    -0.346 N 
ATOM      4  C   UNL     1      -4.712  -3.236   7.709  0.00  0.00    +0.049 A 
ATOM      5  C   UNL     1      -3.462  -3.536   7.135  0.00  0.00    +0.001 A 
ATOM      6  C   UNL     1      -3.194  -4.830   6.687  0.00  0.00    +0.010 A 
ATOM      7  C   UNL     1      -4.150  -5.800   6.804  0.00  0.00    +0.001 A 
ATOM      8  C   UNL     1      -5.385  -5.509   7.365  0.00  0.00    +0.002 A 
ATOM      9  C   UNL     1      -5.668  -4.240   7.822  0.00  0.00    +0.026 A 
ENDROOT
BRANCH   1  10
ATOM     10  C   UNL     1      -1.286  -2.092   6.666  0.00  0.00    -0.044 C 
BRANCH  10  11
ATOM     11  N   UNL     1      -1.302  -1.931   5.206  0.00  0.00    +0.385 N 
ATOM     12  H   UNL     1      -1.861  -1.128   4.962  0.00  0.00    -0.085 HD
ATOM     13  H   UNL     1      -1.697  -2.757   4.781  0.00  0.00    -0.085 HD
BRANCH  11  14
ATOM     14  C   UNL     1       0.070  -1.739   4.719  0.00  0.00    -0.024 C 
BRANCH  14  22
ATOM     15  C   UNL     1      -0.018   1.503   0.010  0.00  0.00    +0.065 C 
ATOM     16  C   UNL     1       0.002  -0.004   0.002  0.00  0.00    +0.032 A 
ATOM     17  C   UNL     1       0.005  -0.656  -1.160  0.00  0.00    +0.010 A 
ATOM     18  S   UNL     1       0.032  -2.360  -0.627  0.00  0.00    -0.054 S 
ATOM     19  C   UNL     1       0.036  -2.059   1.125  0.00  0.00    +0.178 A 
ATOM     20  N   UNL     1       0.023  -0.691   1.196  0.00  0.00    -0.297 N 
ATOM     21  C   UNL     1       0.031  -0.406   2.559  0.00  0.00    +0.114 A 
ATOM     22  C   UNL     1       0.054  -1.575   3.221  0.00  0.00    +0.044 A 
ATOM     23  N   UNL     1       0.049  -2.571   2.322  0.00  0.00    -0.228 NA
ATOM     24  C   UNL     1      -0.009  -0.099  -2.560  0.00  0.00    +0.053 C 
ENDBRANCH  14  22
ENDBRANCH  11  14
ENDBRANCH  10  11
ENDBRANCH   1  10
BRANCH   3  25
ATOM     25  C   UNL     1      -5.804  -1.176   8.670  0.00  0.00    +0.131 C 
BRANCH  25  26
ATOM     26  C   UNL     1      -5.750  -1.366  10.187  0.00  0.00    +0.117 C 
BRANCH  26  27
ATOM     27  C   UNL     1      -6.892  -0.619  10.827  0.00  0.00    +0.212 C 
ATOM     28  O   UNL     1      -7.672   0.003  10.138  0.00  0.00    -0.276 OA
ATOM     29  N   UNL     1      -7.047  -0.643  12.166  0.00  0.00    -0.329 N 
ATOM     30  H   UNL     1      -6.423  -1.141  12.717  0.00  0.00    +0.145 HD
ATOM     31  H   UNL     1      -7.782  -0.163  12.578  0.00  0.00    +0.145 HD
ENDBRANCH  26  27
ENDBRANCH  25  26
ENDBRANCH   3  25
TORSDOF 7
