REMARK  Name = ZINC60377198
REMARK  11 active torsions:
REMARK  status: ('A' for Active; 'I' for Inactive)
REMARK    1  A    between atoms: C_1  and  C_2
REMARK    2  A    between atoms: C_2  and  C_4
REMARK    3  A    between atoms: C_2  and  N_14
REMARK    4  A    between atoms: C_8  and  S_10
REMARK    5  A    between atoms: S_10  and  N_13
REMARK    6  A    between atoms: N_14  and  C_15
REMARK    7  A    between atoms: N_14  and  C_16
REMARK    8  A    between atoms: C_16  and  C_17
REMARK    9  A    between atoms: N_19  and  C_20
REMARK   10  A    between atoms: C_25  and  S_26
REMARK   11  A    between atoms: S_26  and  C_27
REMARK                            x       y       z     vdW  Elec       q    Type
REMARK                         _______ _______ _______ _____ _____    ______ ____
ROOT
ATOM      1  C   UNL     1       0.014  -2.121  -1.451  0.00  0.00    +0.019 C 
ENDROOT
BRANCH   1   2
ATOM      2  C   UNL     1       0.676  -2.561  -2.731  0.00  0.00    +0.201 C 
ATOM      3  O   UNL     1       0.645  -1.843  -3.708  0.00  0.00    -0.278 OA
ATOM      4  N   UNL     1       1.304  -3.752  -2.791  0.00  0.00    -0.286 N 
ATOM      5  H   UNL     1       1.394  -4.293  -1.991  0.00  0.00    +0.155 HD
BRANCH   4   6
ATOM      6  C   UNL     1       1.826  -4.209  -4.008  0.00  0.00    +0.047 A 
ATOM      7  C   UNL     1       2.258  -3.302  -4.963  0.00  0.00    +0.024 A 
ATOM      8  C   UNL     1       2.773  -3.755  -6.164  0.00  0.00    +0.002 A 
ATOM      9  C   UNL     1       2.860  -5.112  -6.416  0.00  0.00    +0.001 A 
ATOM     10  C   UNL     1       2.432  -6.024  -5.470  0.00  0.00    +0.017 A 
ATOM     11  C   UNL     1       1.919  -5.578  -4.260  0.00  0.00    +0.034 A 
BRANCH  11  12
ATOM     12  S   UNL     1       1.378  -6.738  -3.048  0.00  0.00    -0.088 S 
BRANCH  12  13
ATOM     13  C   UNL     1       1.724  -8.306  -3.775  0.00  0.00    +0.013 A 
ATOM     14  C   UNL     1       2.989  -8.867  -3.651  0.00  0.00    +0.015 A 
ATOM     15  C   UNL     1       3.256 -10.095  -4.222  0.00  0.00    +0.001 A 
ATOM     16  C   UNL     1       2.267 -10.767  -4.917  0.00  0.00    +0.000 A 
ATOM     17  C   UNL     1       1.006 -10.212  -5.042  0.00  0.00    +0.001 A 
ATOM     18  C   UNL     1       0.730  -8.986  -4.469  0.00  0.00    +0.015 A 
ENDBRANCH  12  13
ENDBRANCH  11  12
ENDBRANCH   4   6
ENDBRANCH   1   2
BRANCH   1  19
ATOM     19  N   UNL     1      -0.595  -0.798  -1.644  0.00  0.00    +0.388 N 
ATOM     20  C   UNL     1       0.459   0.193  -1.897  0.00  0.00    -0.095 C 
ATOM     21  H   UNL     1      -1.224  -0.829  -2.433  0.00  0.00    -0.081 HD
BRANCH  19  23
ATOM     22  C   UNL     1      -1.976   0.956  -0.638  0.00  0.00    -0.008 C 
ATOM     23  C   UNL     1      -1.342  -0.422  -0.437  0.00  0.00    -0.040 C 
BRANCH  23  24
ATOM     24  C   UNL     1      -2.423  -1.439  -0.178  0.00  0.00    -0.059 A 
ATOM     25  C   UNL     1      -3.142  -1.968  -1.234  0.00  0.00    +0.002 A 
ATOM     26  C   UNL     1      -4.134  -2.901  -0.996  0.00  0.00    +0.002 A 
ATOM     27  C   UNL     1      -4.406  -3.306   0.297  0.00  0.00    +0.028 A 
ATOM     28  C   UNL     1      -3.687  -2.778   1.353  0.00  0.00    +0.105 A 
ATOM     29  C   UNL     1      -2.692  -1.848   1.115  0.00  0.00    +0.030 A 
BRANCH  28  30
ATOM     30  S   UNL     1      -4.035  -3.294   3.002  0.00  0.00    +0.056 S 
ATOM     31  O   UNL     1      -3.594  -2.247   3.856  0.00  0.00    -0.153 OA
ATOM     32  O   UNL     1      -5.375  -3.767   3.005  0.00  0.00    -0.153 OA
BRANCH  30  33
ATOM     33  N   UNL     1      -3.071  -4.602   3.319  0.00  0.00    -0.204 NA
ATOM     34  H   UNL     1      -2.769  -4.774   4.225  0.00  0.00    +0.144 HD
ATOM     35  H   UNL     1      -2.807  -5.196   2.599  0.00  0.00    +0.144 HD
ENDBRANCH  30  33
ENDBRANCH  28  30
ENDBRANCH  23  24
ENDBRANCH  19  23
ENDBRANCH   1  19
TORSDOF 9
