REMARK  Name = ZINC39630044
REMARK  7 active torsions:
REMARK  status: ('A' for Active; 'I' for Inactive)
REMARK    1  A    between atoms: N_3  and  C_6
REMARK    2  A    between atoms: C_6  and  C_7
REMARK    3  A    between atoms: C_7  and  C_8
REMARK    4  A    between atoms: C_8  and  N_9
REMARK    5  A    between atoms: C_10  and  C_12
REMARK    6  A    between atoms: C_23  and  C_25
REMARK    7  A    between atoms: C_27  and  C_32
REMARK                            x       y       z     vdW  Elec       q    Type
REMARK                         _______ _______ _______ _____ _____    ______ ____
ROOT
ATOM      1  C   UNL     1       7.894   0.569   5.112  0.00  0.00    +0.100 C 
ATOM      2  C   UNL     1       7.281  -0.783   5.541  0.00  0.00    +0.121 C 
ATOM      3  N   UNL     1       8.366  -1.770   5.331  0.00  0.00    -0.296 N 
ATOM      4  C   UNL     1       9.595  -1.065   5.770  0.00  0.00    +0.115 C 
ATOM      5  C   UNL     1       9.412   0.381   5.267  0.00  0.00    -0.004 C 
ATOM      6  C   UNL     1       9.965   1.370   6.289  0.00  0.00    -0.010 C 
ATOM      7  C   UNL     1      11.484   1.203   6.383  0.00  0.00    -0.082 C 
ATOM      8  N   UNL     1      12.087   1.442   5.066  0.00  0.00    +0.379 N 
ATOM      9  C   UNL     1      11.621   0.429   4.111  0.00  0.00    -0.082 C 
ATOM     10  C   UNL     1      10.107   0.563   3.921  0.00  0.00    -0.010 C 
ATOM     11  C   UNL     1       8.261  -3.024   4.851  0.00  0.00    +0.247 C 
ATOM     12  O   UNL     1       7.198  -3.420   4.414  0.00  0.00    -0.270 OA
ATOM     13  H   UNL     1      11.823   2.359   4.738  0.00  0.00    -0.086 HD
ATOM     14  H   UNL     1      13.092   1.392   5.144  0.00  0.00    -0.086 HD
ENDROOT
BRANCH  11  15
ATOM     15  C   UNL     1       9.438  -3.919   4.856  0.00  0.00    +0.040 A 
ATOM     16  C   UNL     1      10.507  -3.666   5.717  0.00  0.00    +0.025 A 
ATOM     17  C   UNL     1      11.603  -4.504   5.718  0.00  0.00    +0.058 A 
ATOM     18  C   UNL     1      11.644  -5.595   4.869  0.00  0.00    +0.050 A 
ATOM     19  C   UNL     1      10.587  -5.853   4.011  0.00  0.00    +0.125 A 
ATOM     20  C   UNL     1       9.481  -5.024   4.005  0.00  0.00    +0.051 A 
ATOM     21  F   UNL     1      10.635  -6.920   3.184  0.00  0.00    -0.205 F 
BRANCH  17  22
ATOM     22  C   UNL     1      12.757  -4.230   6.647  0.00  0.00    +0.418 C 
ATOM     23  F   UNL     1      12.545  -4.889   7.862  0.00  0.00    -0.166 F 
ATOM     24  F   UNL     1      13.943  -4.694   6.066  0.00  0.00    -0.166 F 
ATOM     25  F   UNL     1      12.857  -2.853   6.874  0.00  0.00    -0.166 F 
ENDBRANCH  17  22
ENDBRANCH  11  15
BRANCH   1  27
ATOM     26  N   UNL     1       7.546   2.145   3.237  0.00  0.00    -0.315 N 
ATOM     27  C   UNL     1       7.546   0.871   3.677  0.00  0.00    +0.218 C 
ATOM     28  O   UNL     1       7.267  -0.033   2.917  0.00  0.00    -0.275 OA
ATOM     29  H   UNL     1       7.770   2.867   3.844  0.00  0.00    +0.149 HD
BRANCH  26  30
ATOM     30  C   UNL     1       7.209   2.438   1.842  0.00  0.00    +0.106 C 
BRANCH  30  31
ATOM     31  C   UNL     1       7.283   3.948   1.606  0.00  0.00    +0.040 C 
BRANCH  31  32
ATOM     32  C   UNL     1       6.931   4.255   0.149  0.00  0.00    +0.124 C 
BRANCH  32  35
ATOM     33  C   UNL     1       7.730   7.697  -0.562  0.00  0.00    +0.101 A 
ATOM     34  C   UNL     1       8.103   6.406  -0.479  0.00  0.00    +0.104 A 
ATOM     35  N   UNL     1       7.002   5.700  -0.077  0.00  0.00    -0.338 N 
ATOM     36  C   UNL     1       5.993   6.585   0.073  0.00  0.00    +0.173 A 
ATOM     37  N   UNL     1       6.436   7.778  -0.219  0.00  0.00    -0.352 N 
ATOM     38  H   UNL     1       5.912   8.594  -0.191  0.00  0.00    +0.166 HD
ENDBRANCH  32  35
ENDBRANCH  31  32
ENDBRANCH  30  31
ENDBRANCH  26  30
ENDBRANCH   1  27
TORSDOF 7
