REMARK  Name = ZINC07286342
REMARK  5 active torsions:
REMARK  status: ('A' for Active; 'I' for Inactive)
REMARK    1  A    between atoms: C_10  and  C_13
REMARK    2  A    between atoms: C_13  and  S_14
REMARK    3  A    between atoms: S_14  and  C_15
REMARK    4  A    between atoms: N_16  and  C_17
REMARK    5  A    between atoms: C_17  and  C_18
REMARK                            x       y       z     vdW  Elec       q    Type
REMARK                         _______ _______ _______ _____ _____    ______ ____
ROOT
ATOM      1  C   UNL     1      -4.923  -2.721   0.011  0.00  0.00    +0.151 C 
ENDROOT
BRANCH   1  11
ATOM      2  C   UNL     1      -0.017   1.373   0.010  0.00  0.00    +0.001 A 
ATOM      3  C   UNL     1      -1.222   2.063   0.019  0.00  0.00    +0.002 A 
ATOM      4  C   UNL     1      -2.421   1.388   0.021  0.00  0.00    +0.028 A 
ATOM      5  C   UNL     1      -2.429  -0.009   0.013  0.00  0.00    +0.078 A 
ATOM      6  C   UNL     1      -1.201  -0.707   0.004  0.00  0.00    +0.065 A 
ATOM      7  C   UNL     1       0.002  -0.004   0.002  0.00  0.00    +0.015 A 
ATOM      8  C   UNL     1      -1.243  -2.177  -0.003  0.00  0.00    +0.259 A 
ATOM      9  O   UNL     1      -0.222  -2.839  -0.011  0.00  0.00    -0.267 OA
ATOM     10  N   UNL     1      -2.462  -2.765  -0.000  0.00  0.00    -0.310 N 
ATOM     11  C   UNL     1      -3.593  -2.013   0.009  0.00  0.00    +0.121 A 
ATOM     12  N   UNL     1      -3.587  -0.714   0.016  0.00  0.00    -0.233 NA
ATOM     13  H   UNL     1      -2.529  -3.733  -0.005  0.00  0.00    +0.170 HD
ENDBRANCH   1  11
BRANCH   1  14
ATOM     14  S   UNL     1      -6.261  -1.496   0.023  0.00  0.00    -0.085 S 
BRANCH  14  15
ATOM     15  C   UNL     1      -7.730  -2.469   0.025  0.00  0.00    +0.126 C 
ATOM     16  N   UNL     1      -8.898  -1.888   0.033  0.00  0.00    -0.365 N 
ATOM     17  N   UNL     1      -7.646  -3.842   0.018  0.00  0.00    -0.339 N 
ATOM     18  H   UNL     1      -6.777  -4.275   0.011  0.00  0.00    +0.144 HD
ATOM     19  H   UNL     1      -8.454  -4.378   0.019  0.00  0.00    +0.144 HD
ATOM     20  H   UNL     1      -8.957  -0.919   0.038  0.00  0.00    +0.161 HD
BRANCH  16  21
ATOM     21  C   UNL     1     -10.119  -2.697   0.035  0.00  0.00    +0.146 C 
BRANCH  21  22
ATOM     22  C   UNL     1     -11.341  -1.776   0.045  0.00  0.00    +0.137 C 
ATOM     23  C   UNL     1     -12.629  -2.617   0.168  0.00  0.00    +0.035 C 
ATOM     24  C   UNL     1     -13.602  -1.871  -0.785  0.00  0.00    +0.031 C 
ATOM     25  C   UNL     1     -12.623  -1.388  -1.885  0.00  0.00    +0.160 C 
ATOM     26  O   UNL     1     -11.412  -1.049  -1.188  0.00  0.00    -0.375 OA
ENDBRANCH  21  22
ENDBRANCH  16  21
ENDBRANCH  14  15
ENDBRANCH   1  14
TORSDOF 5
