REMARK  Name = ZINC63573191
REMARK  5 active torsions:
REMARK  status: ('A' for Active; 'I' for Inactive)
REMARK    1  A    between atoms: C_1  and  C_2
REMARK    2  A    between atoms: C_7  and  N_8
REMARK    3  A    between atoms: C_17  and  O_33
REMARK    4  A    between atoms: C_24  and  C_26
REMARK    5  A    between atoms: O_33  and  C_34
REMARK                            x       y       z     vdW  Elec       q    Type
REMARK                         _______ _______ _______ _____ _____    ______ ____
ROOT
ATOM      1  N   UNL     1       0.133   0.292   2.502  0.00  0.00    -0.269 N 
ATOM      2  C   UNL     1      -0.006  -0.482   3.596  0.00  0.00    +0.307 C 
ATOM      3  O   UNL     1      -0.053  -1.692   3.483  0.00  0.00    -0.252 OA
ATOM      4  N   UNL     1      -0.093   0.085   4.816  0.00  0.00    -0.276 N 
ATOM      5  C   UNL     1      -0.153   1.545   4.934  0.00  0.00    +0.114 C 
ATOM      6  C   UNL     1       1.010   2.036   5.816  0.00  0.00    +0.052 C 
ATOM      7  C   UNL     1       1.054   1.127   7.019  0.00  0.00    -0.035 C 
ATOM      8  C   UNL     1       1.068   1.391   8.319  0.00  0.00    +0.003 A 
ATOM      9  C   UNL     1       1.154   2.657   9.063  0.00  0.00    +0.055 A 
ATOM     10  C   UNL     1       1.122   2.570  10.422  0.00  0.00    +0.121 A 
ATOM     11  C   UNL     1       1.014   1.363  11.128  0.00  0.00    +0.047 A 
ATOM     12  C   UNL     1       0.938   0.140  10.543  0.00  0.00    +0.029 A 
ATOM     13  C   UNL     1       0.970   0.104   9.075  0.00  0.00    +0.043 A 
ATOM     14  N   UNL     1       0.937  -0.903   8.255  0.00  0.00    -0.375 N 
ATOM     15  C   UNL     1       1.072  -0.392   6.891  0.00  0.00    +0.131 C 
ATOM     16  C   UNL     1      -0.133  -0.769   6.014  0.00  0.00    +0.134 C 
ATOM     17  H   UNL     1       0.234   1.252   2.596  0.00  0.00    +0.156 HD
ATOM     18  H   UNL     1       0.840  -1.836   8.506  0.00  0.00    +0.160 HD
ENDROOT
BRANCH   1  25
ATOM     19  C   UNL     1      -0.805   1.850   0.314  0.00  0.00    +0.045 C 
ATOM     20  C   UNL     1      -0.317   0.436   0.133  0.00  0.00    -0.029 A 
ATOM     21  C   UNL     1      -0.311  -0.139  -1.123  0.00  0.00    +0.006 A 
ATOM     22  C   UNL     1       0.136  -1.436  -1.290  0.00  0.00    +0.020 A 
ATOM     23  C   UNL     1       0.579  -2.164  -0.200  0.00  0.00    +0.043 A 
ATOM     24  C   UNL     1       0.576  -1.594   1.060  0.00  0.00    +0.043 A 
ATOM     25  C   UNL     1       0.132  -0.289   1.229  0.00  0.00    +0.039 A 
ATOM     26 CL   UNL     1       1.139  -3.793  -0.413  0.00  0.00    -0.083 Cl
ENDBRANCH   1  25
BRANCH  16  27
ATOM     27  C   UNL     1      -1.414  -0.527   6.770  0.00  0.00    -0.025 A 
ATOM     28  C   UNL     1      -1.716   0.740   7.232  0.00  0.00    +0.008 A 
ATOM     29  C   UNL     1      -2.890   0.963   7.925  0.00  0.00    +0.038 A 
ATOM     30  C   UNL     1      -3.766  -0.084   8.156  0.00  0.00    +0.123 A 
ATOM     31  C   UNL     1      -3.463  -1.354   7.693  0.00  0.00    +0.038 A 
ATOM     32  C   UNL     1      -2.290  -1.573   6.996  0.00  0.00    +0.008 A 
ATOM     33  F   UNL     1      -4.915   0.132   8.834  0.00  0.00    -0.205 F 
ENDBRANCH  16  27
BRANCH  10  34
ATOM     34  O   UNL     1       1.200   3.723  11.137  0.00  0.00    -0.495 OA
ATOM     35  C   UNL     1       1.165   3.607  12.561  0.00  0.00    +0.277 C 
ENDBRANCH  10  34
TORSDOF 3
