REMARK  Name = ZINC20018172
REMARK  6 active torsions:
REMARK  status: ('A' for Active; 'I' for Inactive)
REMARK    1  A    between atoms: C_3  and  S_16
REMARK    2  A    between atoms: C_6  and  C_7
REMARK    3  A    between atoms: C_7  and  N_8
REMARK    4  A    between atoms: N_8  and  C_9
REMARK    5  A    between atoms: C_9  and  C_10
REMARK    6  A    between atoms: S_16  and  N_19
REMARK                            x       y       z     vdW  Elec       q    Type
REMARK                         _______ _______ _______ _____ _____    ______ ____
ROOT
ATOM      1  C   UNL     1      -2.088   2.168   1.228  0.00  0.00    +0.003 A 
ATOM      2  C   UNL     1      -2.736   2.610   2.367  0.00  0.00    +0.029 A 
ATOM      3  C   UNL     1      -2.017   2.843   3.525  0.00  0.00    +0.105 A 
ATOM      4  C   UNL     1      -0.651   2.630   3.545  0.00  0.00    +0.029 A 
ATOM      5  C   UNL     1      -0.004   2.185   2.407  0.00  0.00    +0.003 A 
ATOM      6  C   UNL     1      -0.723   1.951   1.250  0.00  0.00    -0.064 A 
ENDROOT
BRANCH   3   7
ATOM      7  S   UNL     1      -2.842   3.410   4.974  0.00  0.00    +0.056 S 
ATOM      8  O   UNL     1      -4.200   3.009   4.853  0.00  0.00    -0.153 OA
ATOM      9  O   UNL     1      -2.031   3.030   6.078  0.00  0.00    -0.153 OA
BRANCH   7  10
ATOM     10  N   UNL     1      -2.832   5.065   4.928  0.00  0.00    -0.204 NA
ATOM     11  H   UNL     1      -3.340   5.460   5.820  0.00  0.00    +0.144 HD
ATOM     12  H   UNL     1      -3.356   5.410   4.025  0.00  0.00    +0.144 HD
ENDBRANCH   7  10
ENDBRANCH   3   7
BRANCH   6  13
ATOM     13  C   UNL     1      -0.018   1.465   0.010  0.00  0.00    -0.046 C 
BRANCH  13  14
ATOM     14  N   UNL     1       0.002  -0.004   0.002  0.00  0.00    +0.385 N 
ATOM     15  H   UNL     1       0.534  -0.368   0.893  0.00  0.00    -0.085 HD
ATOM     16  H   UNL     1      -1.030  -0.385   0.010  0.00  0.00    -0.085 HD
BRANCH  14  17
ATOM     17  C   UNL     1       0.683  -0.515  -1.195  0.00  0.00    -0.039 C 
BRANCH  17  18
ATOM     18  C   UNL     1       0.684  -2.022  -1.168  0.00  0.00    -0.026 A 
ATOM     19  C   UNL     1      -0.232  -2.884  -1.671  0.00  0.00    +0.010 A 
ATOM     20  C   UNL     1      -0.022  -4.243  -1.529  0.00  0.00    +0.023 A 
ATOM     21  C   UNL     1       1.095  -4.673  -0.890  0.00  0.00    +0.055 A 
ATOM     22  S   UNL     1       1.896  -3.133  -0.473  0.00  0.00    -0.088 S 
ATOM     23 BR   UNL     1       1.660  -6.443  -0.540  0.00  0.00    -0.043 Br
ENDBRANCH  17  18
ENDBRANCH  14  17
ENDBRANCH  13  14
ENDBRANCH   6  13
TORSDOF 6
