REMARK  Name = ZINC63589064
REMARK  9 active torsions:
REMARK  status: ('A' for Active; 'I' for Inactive)
REMARK    1  A    between atoms: C_1  and  C_2
REMARK    2  A    between atoms: C_5  and  C_8
REMARK    3  A    between atoms: C_8  and  N_10
REMARK    4  A    between atoms: N_12  and  C_13
REMARK    5  A    between atoms: C_17  and  O_19
REMARK    6  A    between atoms: O_19  and  C_20
REMARK    7  A    between atoms: N_21  and  C_22
REMARK    8  A    between atoms: C_22  and  C_23
REMARK    9  A    between atoms: C_23  and  C_24
REMARK                            x       y       z     vdW  Elec       q    Type
REMARK                         _______ _______ _______ _____ _____    ______ ____
ROOT
ATOM      1  N   UNL     1       0.520  -5.265   1.911  0.00  0.00    -0.143 NA
ATOM      2  C   UNL     1       0.733  -6.170   0.968  0.00  0.00    +0.194 C 
ATOM      3  N   UNL     1       0.011  -6.134  -0.190  0.00  0.00    -0.328 N 
ATOM      4  N   UNL     1       1.675  -7.140   1.155  0.00  0.00    -0.357 N 
ATOM      5  H   UNL     1      -0.005  -5.326  -0.726  0.00  0.00    +0.169 HD
ATOM      6  H   UNL     1       2.155  -7.194   1.996  0.00  0.00    +0.162 HD
ENDROOT
BRANCH   3   7
ATOM      7  C   UNL     1      -0.706  -7.262  -0.603  0.00  0.00    +0.045 A 
ATOM      8  C   UNL     1      -1.322  -8.077   0.339  0.00  0.00    +0.026 A 
ATOM      9  C   UNL     1      -2.029  -9.191  -0.069  0.00  0.00    +0.006 A 
ATOM     10  C   UNL     1      -2.127  -9.498  -1.414  0.00  0.00    +0.046 A 
ATOM     11  C   UNL     1      -1.513  -8.687  -2.358  0.00  0.00    +0.122 A 
ATOM     12  C   UNL     1      -0.808  -7.564  -1.953  0.00  0.00    +0.071 A 
BRANCH  11  13
ATOM     13  O   UNL     1      -1.609  -8.989  -3.679  0.00  0.00    -0.495 OA
ATOM     14  C   UNL     1      -2.356 -10.158  -4.025  0.00  0.00    +0.277 C 
ENDBRANCH  11  13
ENDBRANCH   3   7
BRANCH   1  15
ATOM     15  C   UNL     1      -0.495  -4.399   1.790  0.00  0.00    +0.270 C 
ATOM     16  O   UNL     1      -1.165  -4.383   0.773  0.00  0.00    -0.268 OA
BRANCH  15  21
ATOM     17  C   UNL     1      -1.692  -0.750   6.079  0.00  0.00    +0.044 C 
ATOM     18  C   UNL     1      -1.378  -1.705   4.956  0.00  0.00    -0.050 A 
ATOM     19  C   UNL     1      -2.141  -1.685   3.802  0.00  0.00    +0.004 A 
ATOM     20  C   UNL     1      -1.859  -2.557   2.770  0.00  0.00    +0.013 A 
ATOM     21  C   UNL     1      -0.803  -3.460   2.893  0.00  0.00    +0.039 A 
ATOM     22  C   UNL     1      -0.038  -3.475   4.060  0.00  0.00    +0.013 A 
ATOM     23  C   UNL     1      -0.326  -2.594   5.082  0.00  0.00    +0.004 A 
ENDBRANCH  15  21
ENDBRANCH   1  15
BRANCH   4  24
ATOM     24  C   UNL     1       1.961  -8.098   0.084  0.00  0.00    +0.120 C 
BRANCH  24  25
ATOM     25  C   UNL     1       3.051  -9.067   0.546  0.00  0.00    +0.054 C 
BRANCH  25  26
ATOM     26  C   UNL     1       3.432  -9.976  -0.595  0.00  0.00    -0.040 C 
ATOM     27  C   UNL     1       4.431  -9.786  -1.486  0.00  0.00    -0.001 A 
ATOM     28  C   UNL     1       5.425  -8.719  -1.655  0.00  0.00    +0.010 A 
ATOM     29  C   UNL     1       6.319  -8.809  -2.665  0.00  0.00    +0.001 A 
ATOM     30  C   UNL     1       6.321  -9.893  -3.554  0.00  0.00    +0.002 A 
ATOM     31  C   UNL     1       5.440 -10.911  -3.463  0.00  0.00    +0.026 A 
ATOM     32  C   UNL     1       4.455 -10.921  -2.437  0.00  0.00    +0.043 A 
ATOM     33  N   UNL     1       3.507 -11.777  -2.146  0.00  0.00    -0.380 N 
ATOM     34  C   UNL     1       2.777 -11.286  -0.971  0.00  0.00    +0.144 C 
ATOM     35  H   UNL     1       3.321 -12.601  -2.624  0.00  0.00    +0.160 HD
ENDBRANCH  25  26
ENDBRANCH  24  25
ENDBRANCH   4  24
TORSDOF 7
