REMARK  Name = ZINC32957684
REMARK  11 active torsions:
REMARK  status: ('A' for Active; 'I' for Inactive)
REMARK    1  A    between atoms: C_1  and  C_2
REMARK    2  A    between atoms: C_2  and  O_3
REMARK    3  A    between atoms: O_3  and  C_4
REMARK    4  A    between atoms: C_4  and  C_6
REMARK    5  A    between atoms: C_10  and  N_11
REMARK    6  A    between atoms: C_12  and  C_14
REMARK    7  A    between atoms: C_14  and  N_15
REMARK    8  A    between atoms: N_24  and  C_25
REMARK    9  A    between atoms: C_25  and  C_26
REMARK   10  A    between atoms: C_26  and  O_27
REMARK   11  A    between atoms: C_29  and  C_33
REMARK                            x       y       z     vdW  Elec       q    Type
REMARK                         _______ _______ _______ _____ _____    ______ ____
ROOT
ATOM      1  N   UNL     1       2.466   1.733  -0.012  0.00  0.00    -0.278 N 
ATOM      2  C   UNL     1       3.491   2.607  -0.017  0.00  0.00    +0.237 C 
ATOM      3  O   UNL     1       3.271   3.800  -0.009  0.00  0.00    -0.273 OA
ATOM      4  H   UNL     1       2.665   0.651  -0.019  0.00  0.00    +0.155 HD
ENDROOT
BRANCH   1   9
ATOM      5  C   UNL     1      -0.018   1.460   0.010  0.00  0.00    +0.091 A 
ATOM      6  C   UNL     1      -1.270   2.197   0.020  0.00  0.00    -0.021 A 
ATOM      7  C   UNL     1      -1.147   3.542   0.033  0.00  0.00    -0.004 A 
ATOM      8  S   UNL     1       0.599   3.836   0.017  0.00  0.00    -0.077 S 
ATOM      9  C   UNL     1       1.159   2.197   0.003  0.00  0.00    +0.086 A 
ATOM     10  C   UNL     1      -2.253   4.551   0.050  0.00  0.00    +0.046 C 
ATOM     11  C   UNL     1      -3.555   3.834   0.436  0.00  0.00    -0.009 C 
ATOM     12  C   UNL     1      -3.687   2.563  -0.407  0.00  0.00    +0.008 C 
ATOM     13  C   UNL     1      -2.643   1.536   0.034  0.00  0.00    +0.037 C 
ATOM     14  C   UNL     1      -4.747   4.756   0.169  0.00  0.00    +0.008 C 
BRANCH   5  15
ATOM     15  C   UNL     1       0.002  -0.004   0.002  0.00  0.00    +0.342 C 
ATOM     16  O   UNL     1       0.020  -0.618   1.052  0.00  0.00    -0.245 OA
BRANCH  15  17
ATOM     17  O   UNL     1       0.001  -0.672  -1.170  0.00  0.00    -0.461 OA
BRANCH  17  19
ATOM     18  C   UNL     1       0.016  -2.700  -2.519  0.00  0.00    +0.048 C 
ATOM     19  C   UNL     1       0.021  -2.122  -1.102  0.00  0.00    +0.229 C 
ENDBRANCH  17  19
ENDBRANCH  15  17
ENDBRANCH   5  15
ENDBRANCH   1   9
BRANCH   2  20
ATOM     20  C   UNL     1       4.911   2.103  -0.033  0.00  0.00    +0.221 C 
BRANCH  20  21
ATOM     21  N   UNL     1       5.834   3.241  -0.036  0.00  0.00    -0.305 N 
ATOM     22  C   UNL     1       6.345   3.882  -1.153  0.00  0.00    +0.068 A 
ATOM     23  C   UNL     1       6.189   3.703  -2.519  0.00  0.00    +0.028 A 
ATOM     24  C   UNL     1       6.854   4.530  -3.400  0.00  0.00    +0.002 A 
ATOM     25  C   UNL     1       7.678   5.542  -2.928  0.00  0.00    +0.002 A 
ATOM     26  C   UNL     1       7.839   5.738  -1.575  0.00  0.00    +0.028 A 
ATOM     27  C   UNL     1       7.176   4.906  -0.669  0.00  0.00    +0.065 A 
ATOM     28  N   UNL     1       7.142   4.842   0.688  0.00  0.00    -0.327 N 
ATOM     29  C   UNL     1       6.354   3.865   1.062  0.00  0.00    +0.175 A 
ATOM     30  N   UNL     1       6.090   3.517   2.370  0.00  0.00    -0.314 N 
ATOM     31  H   UNL     1       5.413   2.678   2.591  0.00  0.00    +0.149 HD
ATOM     32  H   UNL     1       7.728   5.554   1.287  0.00  0.00    +0.169 HD
BRANCH  30  33
ATOM     33  C   UNL     1       6.711   4.264   3.466  0.00  0.00    +0.132 C 
BRANCH  33  34
ATOM     34  C   UNL     1       6.255   3.679   4.805  0.00  0.00    +0.174 C 
BRANCH  34  35
ATOM     35  O   UNL     1       6.746   2.344   4.933  0.00  0.00    -0.393 OA
ATOM     36  H   UNL     1       6.518   1.758   5.835  0.00  0.00    +0.209 HD
ENDBRANCH  34  35
ENDBRANCH  33  34
ENDBRANCH  30  33
ENDBRANCH  20  21
ENDBRANCH   2  20
TORSDOF 9
