REMARK  Name = ZINC14996578
REMARK  8 active torsions:
REMARK  status: ('A' for Active; 'I' for Inactive)
REMARK    1  A    between atoms: C_4  and  C_7
REMARK    2  A    between atoms: C_7  and  C_12
REMARK    3  A    between atoms: C_12  and  N_61
REMARK    4  A    between atoms: C_13  and  N_61
REMARK    5  A    between atoms: N_24  and  C_27
REMARK    6  A    between atoms: C_27  and  C_28
REMARK    7  A    between atoms: C_28  and  C_29
REMARK    8  A    between atoms: C_29  and  O_30
REMARK                            x       y       z     vdW  Elec       q    Type
REMARK                         _______ _______ _______ _____ _____    ______ ____
ROOT
ATOM      1  C   UNL     1      -1.471  -2.692   2.156  0.00  0.00    -0.067 C 
ATOM      2  C   UNL     1      -1.005  -4.139   2.345  0.00  0.00    -0.011 C 
ATOM      3  C   UNL     1      -1.600  -4.711   3.632  0.00  0.00    +0.035 C 
ATOM      4  C   UNL     1      -3.113  -4.509   3.610  0.00  0.00    -0.023 A 
ATOM      5  C   UNL     1      -3.673  -3.599   2.779  0.00  0.00    -0.006 A 
ATOM      6  S   UNL     1      -5.418  -3.703   3.086  0.00  0.00    -0.073 S 
ATOM      7  C   UNL     1      -5.393  -4.961   4.323  0.00  0.00    +0.116 A 
ATOM      8  C   UNL     1      -4.020  -5.261   4.458  0.00  0.00    +0.076 A 
ATOM      9  C   UNL     1      -3.664  -6.271   5.415  0.00  0.00    +0.262 A 
ATOM     10  O   UNL     1      -2.508  -6.604   5.607  0.00  0.00    -0.267 OA
ATOM     11  N   UNL     1      -4.697  -6.831   6.088  0.00  0.00    -0.299 N 
ATOM     12  C   UNL     1      -5.989  -6.476   5.888  0.00  0.00    +0.203 A 
ATOM     13  N   UNL     1      -6.354  -5.556   5.023  0.00  0.00    -0.230 NA
ATOM     14  C   UNL     1      -2.968  -2.700   1.812  0.00  0.00    +0.027 C 
ENDROOT
BRANCH   1  15
ATOM     15  N   UNL     1      -0.712  -2.076   1.052  0.00  0.00    +0.382 N 
ATOM     16  H   UNL     1       0.247  -2.442   1.055  0.00  0.00    -0.085 HD
ATOM     17  H   UNL     1      -1.164  -2.307   0.159  0.00  0.00    -0.085 HD
BRANCH  15  18
ATOM     18  C   UNL     1      -0.674  -0.610   1.212  0.00  0.00    -0.071 C 
BRANCH  18  19
ATOM     19  C   UNL     1       0.230  -0.011   0.133  0.00  0.00    -0.019 C 
ATOM     20  C   UNL     1       0.368   1.507   0.344  0.00  0.00    +0.010 C 
ATOM     21  C   UNL     1       1.867   1.785   0.576  0.00  0.00    +0.001 C 
ATOM     22  C   UNL     1       2.429   0.436   1.090  0.00  0.00    +0.001 C 
ATOM     23  C   UNL     1       1.650  -0.602   0.244  0.00  0.00    +0.010 C 
BRANCH  19  27
ATOM     24  C   UNL     1      -1.386  -0.808  -3.741  0.00  0.00    +0.000 A 
ATOM     25  C   UNL     1      -2.037   0.062  -2.886  0.00  0.00    +0.000 A 
ATOM     26  C   UNL     1      -1.514   0.320  -1.633  0.00  0.00    +0.004 A 
ATOM     27  C   UNL     1      -0.340  -0.292  -1.234  0.00  0.00    -0.043 A 
ATOM     28  C   UNL     1       0.314  -1.158  -2.091  0.00  0.00    +0.004 A 
ATOM     29  C   UNL     1      -0.212  -1.420  -3.342  0.00  0.00    +0.000 A 
ENDBRANCH  19  27
ENDBRANCH  18  19
ENDBRANCH  15  18
ENDBRANCH   1  15
BRANCH  11  30
ATOM     30  C   UNL     1      -4.403  -7.869   7.079  0.00  0.00    +0.128 C 
BRANCH  30  31
ATOM     31  C   UNL     1      -4.181  -7.221   8.447  0.00  0.00    +0.049 C 
BRANCH  31  32
ATOM     32  C   UNL     1      -3.874  -8.305   9.482  0.00  0.00    +0.157 C 
BRANCH  32  33
ATOM     33  O   UNL     1      -3.667  -7.699  10.760  0.00  0.00    -0.395 OA
ATOM     34  H   UNL     1      -3.467  -8.328  11.466  0.00  0.00    +0.209 HD
ENDBRANCH  32  33
ENDBRANCH  31  32
ENDBRANCH  30  31
ENDBRANCH  11  30
TORSDOF 8
