REMARK  Name = ZINC45287296
REMARK  10 active torsions:
REMARK  status: ('A' for Active; 'I' for Inactive)
REMARK    1  A    between atoms: C_1  and  C_2
REMARK    2  A    between atoms: C_2  and  C_3
REMARK    3  A    between atoms: C_2  and  O_4
REMARK    4  A    between atoms: O_4  and  C_5
REMARK    5  A    between atoms: N_7  and  C_8
REMARK    6  A    between atoms: N_7  and  C_9
REMARK    7  A    between atoms: C_12  and  C_32
REMARK    8  A    between atoms: C_14  and  C_18
REMARK    9  A    between atoms: C_23  and  C_26
REMARK   10  A    between atoms: N_34  and  O_35
REMARK                            x       y       z     vdW  Elec       q    Type
REMARK                         _______ _______ _______ _____ _____    ______ ____
ROOT
ATOM      1  C   UNL     1       4.007  -1.173  -2.281  0.00  0.00    +0.063 C 
ATOM      2  C   UNL     1       4.816  -0.225  -3.172  0.00  0.00    +0.032 C 
ATOM      3  C   UNL     1       6.306  -0.537  -3.011  0.00  0.00    +0.073 C 
ATOM      4  C   UNL     1       6.554  -2.007  -3.353  0.00  0.00    +0.028 C 
ATOM      5  N   UNL     1       5.774  -2.862  -2.450  0.00  0.00    +0.388 N 
ATOM      6  C   UNL     1       4.340  -2.620  -2.649  0.00  0.00    -0.059 C 
ATOM      7  H   UNL     1       5.981  -3.831  -2.644  0.00  0.00    -0.085 HD
ATOM      8  H   UNL     1       6.019  -2.652  -1.494  0.00  0.00    -0.085 HD
ENDROOT
BRANCH   4   9
ATOM      9  C   UNL     1       8.020  -2.319  -3.196  0.00  0.00    +0.203 C 
ATOM     10  O   UNL     1       8.535  -2.276  -2.099  0.00  0.00    -0.277 OA
ATOM     11  N   UNL     1       8.760  -2.645  -4.275  0.00  0.00    -0.299 N 
ATOM     12  C   UNL     1      10.172  -3.041  -4.144  0.00  0.00    +0.112 C 
ATOM     13  C   UNL     1      10.307  -4.481  -4.646  0.00  0.00    +0.054 C 
ATOM     14  C   UNL     1       9.573  -4.654  -5.942  0.00  0.00    -0.041 C 
ATOM     15  C   UNL     1       8.636  -3.845  -6.376  0.00  0.00    -0.004 C 
ATOM     16  C   UNL     1       8.187  -2.625  -5.628  0.00  0.00    +0.135 C 
BRANCH  14  17
ATOM     17  C   UNL     1       9.928  -5.813  -6.787  0.00  0.00    -0.022 A 
ATOM     18  C   UNL     1       9.682  -7.111  -6.335  0.00  0.00    +0.008 A 
ATOM     19  C   UNL     1      10.016  -8.189  -7.129  0.00  0.00    +0.001 A 
ATOM     20  C   UNL     1      10.593  -7.986  -8.370  0.00  0.00    +0.000 A 
ATOM     21  C   UNL     1      10.840  -6.702  -8.823  0.00  0.00    +0.001 A 
ATOM     22  C   UNL     1      10.506  -5.615  -8.041  0.00  0.00    +0.008 A 
ENDBRANCH  14  17
ENDBRANCH   4   9
BRANCH   1  25
ATOM     23  C   UNL     1       1.803  -0.554  -1.447  0.00  0.00    +0.403 C 
ATOM     24  O   UNL     1       2.292  -0.411  -0.344  0.00  0.00    -0.226 OA
ATOM     25  N   UNL     1       2.576  -0.933  -2.484  0.00  0.00    -0.269 N 
ATOM     26  C   UNL     1       1.986  -1.106  -3.813  0.00  0.00    +0.135 C 
BRANCH  23  27
ATOM     27  O   UNL     1       0.488  -0.334  -1.633  0.00  0.00    -0.448 OA
BRANCH  27  29
ATOM     28  C   UNL     1      -0.268   1.592  -0.384  0.00  0.00    +0.052 C 
ATOM     29  C   UNL     1      -0.271   0.066  -0.490  0.00  0.00    +0.172 C 
ATOM     30  C   UNL     1      -1.711  -0.432  -0.635  0.00  0.00    +0.052 C 
ENDBRANCH  27  29
ENDBRANCH  23  27
ENDBRANCH   1  25
BRANCH   3  31
ATOM     31  C   UNL     1       7.107   0.339  -3.940  0.00  0.00    +0.237 C 
ATOM     32  O   UNL     1       7.867  -0.162  -4.741  0.00  0.00    -0.273 OA
ATOM     33  N   UNL     1       6.978   1.679  -3.881  0.00  0.00    -0.197 N 
ATOM     34  H   UNL     1       6.370   2.080  -3.240  0.00  0.00    +0.182 HD
BRANCH  33  35
ATOM     35  O   UNL     1       7.730   2.502  -4.753  0.00  0.00    -0.295 OA
ATOM     36  H   UNL     1       7.570   3.449  -4.636  0.00  0.00    +0.241 HD
ENDBRANCH  33  35
ENDBRANCH   3  31
TORSDOF 7
