REMARK  Name = ZINC55143415
REMARK  4 active torsions:
REMARK  status: ('A' for Active; 'I' for Inactive)
REMARK    1  A    between atoms: C_2  and  N_16
REMARK    2  A    between atoms: C_6  and  O_7
REMARK    3  A    between atoms: O_7  and  C_8
REMARK    4  A    between atoms: C_11  and  N_14
REMARK                            x       y       z     vdW  Elec       q    Type
REMARK                         _______ _______ _______ _____ _____    ______ ____
ROOT
ATOM      1  O   UNL     1      -1.165  -0.700   0.010  0.00  0.00    -0.489 OA
ENDROOT
BRANCH   1   7
ATOM      2  C   UNL     1      -0.004   1.365   0.227  0.00  0.00    +0.078 A 
ATOM      3  C   UNL     1       1.183   2.072   0.218  0.00  0.00    +0.132 A 
ATOM      4  C   UNL     1       2.377   1.417  -0.017  0.00  0.00    +0.071 A 
ATOM      5  C   UNL     1       2.387   0.051  -0.243  0.00  0.00    +0.129 A 
ATOM      6  C   UNL     1       1.201  -0.661  -0.235  0.00  0.00    +0.084 A 
ATOM      7  C   UNL     1       0.002  -0.004   0.001  0.00  0.00    +0.126 A 
ATOM      8  F   UNL     1       3.556  -0.588  -0.472  0.00  0.00    -0.205 F 
BRANCH   3   9
ATOM      9  N   UNL     1       1.175   3.532   0.459  0.00  0.00    +0.057 N 
ATOM     10  O   UNL     1       0.131   4.106   0.663  0.00  0.00    -0.126 OA
ATOM     11  O   UNL     1       2.214   4.151   0.451  0.00  0.00    -0.126 OA
ENDBRANCH   3   9
ENDBRANCH   1   7
BRANCH   1  12
ATOM     12  C   UNL     1      -1.073  -2.121  -0.110  0.00  0.00    +0.173 C 
ATOM     13  C   UNL     1      -0.994  -2.505  -1.589  0.00  0.00    +0.043 C 
ATOM     14  C   UNL     1      -2.249  -2.012  -2.312  0.00  0.00    -0.013 C 
ATOM     15  C   UNL     1      -3.486  -2.657  -1.683  0.00  0.00    -0.075 C 
ATOM     16  C   UNL     1      -3.565  -2.274  -0.204  0.00  0.00    -0.013 C 
ATOM     17  C   UNL     1      -2.310  -2.767   0.519  0.00  0.00    +0.043 C 
BRANCH  15  18
ATOM     18  N   UNL     1      -4.691  -2.184  -2.377  0.00  0.00    +0.380 N 
ATOM     19  H   UNL     1      -4.638  -2.437  -3.353  0.00  0.00    -0.090 HD
ATOM     20  H   UNL     1      -5.507  -2.610  -1.963  0.00  0.00    -0.090 HD
ATOM     21  H   UNL     1      -4.756  -1.181  -2.293  0.00  0.00    -0.090 HD
ENDBRANCH  15  18
ENDBRANCH   1  12
TORSDOF 4
