REMARK  Name = ZINC08629653
REMARK  7 active torsions:
REMARK  status: ('A' for Active; 'I' for Inactive)
REMARK    1  A    between atoms: C_4  and  C_12
REMARK    2  A    between atoms: C_5  and  C_7
REMARK    3  A    between atoms: N_14  and  N_15
REMARK    4  A    between atoms: N_15  and  C_16
REMARK    5  A    between atoms: C_16  and  N_18
REMARK    6  A    between atoms: N_18  and  C_19
REMARK    7  A    between atoms: C_23  and  C_25
REMARK                            x       y       z     vdW  Elec       q    Type
REMARK                         _______ _______ _______ _____ _____    ______ ____
ROOT
ATOM      1  C   UNL     1       2.296   3.866   7.972  0.00  0.00    +0.261 C 
ATOM      2  O   UNL     1       1.707   4.148   8.997  0.00  0.00    -0.269 OA
ATOM      3  N   UNL     1       1.627   3.810   6.804  0.00  0.00    -0.231 N 
ATOM      4  H   UNL     1       2.098   3.585   5.986  0.00  0.00    +0.173 HD
ENDROOT
BRANCH   1   8
ATOM      5  C   UNL     1       6.473   3.054   8.072  0.00  0.00    +0.001 A 
ATOM      6  C   UNL     1       5.757   2.872   6.901  0.00  0.00    +0.001 A 
ATOM      7  C   UNL     1       4.401   3.128   6.865  0.00  0.00    +0.014 A 
ATOM      8  C   UNL     1       3.747   3.584   8.008  0.00  0.00    +0.048 A 
ATOM      9  C   UNL     1       4.475   3.769   9.197  0.00  0.00    +0.025 A 
ATOM     10  C   UNL     1       5.840   3.499   9.216  0.00  0.00    +0.012 A 
BRANCH   9  11
ATOM     11  C   UNL     1       3.793   4.247  10.421  0.00  0.00    +0.100 C 
ATOM     12  C   UNL     1       3.216   3.890  12.751  0.00  0.00    +0.115 C 
ATOM     13  C   UNL     1       2.921   5.391  12.793  0.00  0.00    +0.040 C 
ATOM     14  C   UNL     1       2.210   5.784  11.490  0.00  0.00    +0.104 C 
ATOM     15  N   UNL     1       3.112   5.445  10.378  0.00  0.00    -0.330 N 
ATOM     16  H   UNL     1       3.225   6.052   9.630  0.00  0.00    +0.147 HD
ATOM     17  N   UNL     1       3.902   3.443  11.483  0.00  0.00    -0.373 N 
ATOM     18  H   UNL     1       4.428   2.563  11.439  0.00  0.00    +0.161 HD
ENDBRANCH   9  11
ENDBRANCH   1   8
BRANCH   3  19
ATOM     19  N   UNL     1       0.252   4.078   6.770  0.00  0.00    -0.245 N 
ATOM     20  H   UNL     1      -0.218   4.303   7.588  0.00  0.00    +0.172 HD
BRANCH  19  21
ATOM     21  C   UNL     1      -0.417   4.022   5.602  0.00  0.00    +0.151 C 
ATOM     22  S   UNL     1      -2.097   4.349   5.561  0.00  0.00    -0.017 S 
BRANCH  21  23
ATOM     23  N   UNL     1       0.237   3.709   4.465  0.00  0.00    -0.296 N 
ATOM     24  H   UNL     1       1.170   3.446   4.499  0.00  0.00    +0.154 HD
BRANCH  23  25
ATOM     25  C   UNL     1      -0.430   3.765   3.237  0.00  0.00    +0.033 A 
ATOM     26  C   UNL     1      -0.229   2.769   2.290  0.00  0.00    +0.023 A 
ATOM     27  C   UNL     1      -0.889   2.826   1.079  0.00  0.00    +0.002 A 
ATOM     28  C   UNL     1      -1.754   3.871   0.810  0.00  0.00    +0.012 A 
ATOM     29  C   UNL     1      -1.953   4.867   1.748  0.00  0.00    +0.057 A 
ATOM     30  C   UNL     1      -1.295   4.815   2.962  0.00  0.00    +0.035 A 
BRANCH  29  31
ATOM     31  C   UNL     1      -2.892   6.006   1.449  0.00  0.00    +0.417 C 
ATOM     32  F   UNL     1      -2.183   7.049   0.843  0.00  0.00    -0.166 F 
ATOM     33  F   UNL     1      -3.466   6.463   2.640  0.00  0.00    -0.166 F 
ATOM     34  F   UNL     1      -3.900   5.565   0.585  0.00  0.00    -0.166 F 
ENDBRANCH  29  31
ENDBRANCH  23  25
ENDBRANCH  21  23
ENDBRANCH  19  21
ENDBRANCH   3  19
TORSDOF 7
