REMARK  Name = ZINC12520296
REMARK  6 active torsions:
REMARK  status: ('A' for Active; 'I' for Inactive)
REMARK    1  A    between atoms: C_1  and  O_2
REMARK    2  A    between atoms: O_2  and  C_3
REMARK    3  A    between atoms: C_5  and  C_14
REMARK    4  A    between atoms: C_8  and  O_9
REMARK    5  A    between atoms: O_9  and  C_10
REMARK    6  A    between atoms: C_10  and  C_11
REMARK                            x       y       z     vdW  Elec       q    Type
REMARK                         _______ _______ _______ _____ _____    ______ ____
ROOT
ATOM      1  C   UNL     1       2.401   0.380  -4.231  0.00  0.00    +0.209 C 
ATOM      2  N   UNL     1       2.140  -0.241  -5.542  0.00  0.00    -0.294 N 
ATOM      3  C   UNL     1       2.954  -1.294  -5.934  0.00  0.00    +0.159 C 
ATOM      4  N   UNL     1       4.330  -1.071  -5.872  0.00  0.00    -0.259 N 
ATOM      5  C   UNL     1       4.750  -0.253  -4.827  0.00  0.00    +0.205 A 
ATOM      6  N   UNL     1       3.856   0.448  -4.046  0.00  0.00    -0.288 N 
ATOM      7  C   UNL     1       4.583   1.155  -3.132  0.00  0.00    +0.072 A 
ATOM      8  C   UNL     1       4.226   2.028  -2.112  0.00  0.00    +0.028 A 
ATOM      9  C   UNL     1       5.253   2.577  -1.362  0.00  0.00    +0.002 A 
ATOM     10  C   UNL     1       6.582   2.278  -1.609  0.00  0.00    +0.002 A 
ATOM     11  C   UNL     1       6.964   1.413  -2.618  0.00  0.00    +0.030 A 
ATOM     12  C   UNL     1       5.942   0.847  -3.389  0.00  0.00    +0.091 A 
ATOM     13  N   UNL     1       5.970  -0.016  -4.429  0.00  0.00    -0.214 NA
ATOM     14  N   UNL     1       2.460  -2.430  -6.338  0.00  0.00    -0.375 N 
ATOM     15  H   UNL     1       1.422   0.075  -6.112  0.00  0.00    +0.151 HD
ATOM     16  H   UNL     1       1.499  -2.557  -6.371  0.00  0.00    +0.158 HD
ATOM     17  H   UNL     1       4.949  -1.458  -6.510  0.00  0.00    +0.158 HD
ATOM     18  H   UNL     1       3.054  -3.149  -6.607  0.00  0.00    +0.158 HD
ENDROOT
BRANCH   1  21
ATOM     19  C   UNL     1       0.606  -0.608  -1.056  0.00  0.00    +0.163 A 
ATOM     20  C   UNL     1       1.173   0.159  -2.062  0.00  0.00    +0.056 A 
ATOM     21  C   UNL     1       1.786  -0.455  -3.138  0.00  0.00    -0.002 A 
ATOM     22  C   UNL     1       1.836  -1.835  -3.214  0.00  0.00    +0.026 A 
ATOM     23  C   UNL     1       1.273  -2.606  -2.213  0.00  0.00    +0.064 A 
ATOM     24  C   UNL     1       0.662  -1.996  -1.129  0.00  0.00    +0.176 A 
ATOM     25 BR   UNL     1       1.342  -4.493  -2.321  0.00  0.00    -0.046 Br
BRANCH  19  27
ATOM     26  C   UNL     1      -0.017   1.425   0.010  0.00  0.00    +0.277 C 
ATOM     27  O   UNL     1       0.002  -0.004   0.002  0.00  0.00    -0.491 OA
ENDBRANCH  19  27
BRANCH  24  28
ATOM     28  O   UNL     1       0.112  -2.752  -0.141  0.00  0.00    -0.483 OA
BRANCH  28  29
ATOM     29  C   UNL     1      -1.259  -3.125  -0.296  0.00  0.00    +0.256 C 
BRANCH  29  30
ATOM     30  C   UNL     1      -1.691  -3.954   0.885  0.00  0.00    +0.006 C 
ATOM     31  C   UNL     1      -2.838  -3.714   1.470  0.00  0.00    +0.007 C 
ENDBRANCH  29  30
ENDBRANCH  28  29
ENDBRANCH  24  28
ENDBRANCH   1  21
TORSDOF 5
