REMARK  Name = ZINC38361535
REMARK  15 active torsions:
REMARK  status: ('A' for Active; 'I' for Inactive)
REMARK    1  A    between atoms: C_1  and  C_2
REMARK    2  A    between atoms: C_2  and  C_4
REMARK    3  A    between atoms: C_2  and  N_17
REMARK    4  A    between atoms: N_6  and  C_7
REMARK    5  A    between atoms: C_10  and  S_13
REMARK    6  A    between atoms: S_13  and  N_16
REMARK    7  A    between atoms: N_17  and  C_18
REMARK    8  A    between atoms: C_18  and  C_20
REMARK    9  A    between atoms: C_18  and  C_30
REMARK   10  A    between atoms: C_23  and  C_26
REMARK   11  A    between atoms: C_26  and  C_27
REMARK   12  A    between atoms: C_27  and  C_28
REMARK   13  A    between atoms: C_27  and  C_29
REMARK   14  A    between atoms: C_30  and  C_31
REMARK   15  A    between atoms: C_30  and  C_32
REMARK                            x       y       z     vdW  Elec       q    Type
REMARK                         _______ _______ _______ _____ _____    ______ ____
ROOT
ATOM      1  C   UNL     1      -0.038  -1.754   1.146  0.00  0.00    -0.004 C 
ATOM      2  C   UNL     1      -1.258  -1.741   0.223  0.00  0.00    +0.014 C 
ENDROOT
BRANCH   2   3
ATOM      3  C   UNL     1      -0.810  -1.917  -1.205  0.00  0.00    +0.203 C 
ATOM      4  O   UNL     1      -1.053  -1.058  -2.027  0.00  0.00    -0.277 OA
ATOM      5  N   UNL     1      -0.138  -3.027  -1.569  0.00  0.00    -0.287 N 
ATOM      6  H   UNL     1      -0.006  -3.745  -0.930  0.00  0.00    +0.155 HD
BRANCH   5   7
ATOM      7  C   UNL     1       0.369  -3.143  -2.868  0.00  0.00    +0.033 A 
ATOM      8  C   UNL     1       0.417  -4.385  -3.487  0.00  0.00    +0.025 A 
ATOM      9  C   UNL     1       0.918  -4.497  -4.770  0.00  0.00    +0.030 A 
ATOM     10  C   UNL     1       1.372  -3.374  -5.436  0.00  0.00    +0.105 A 
ATOM     11  C   UNL     1       1.327  -2.136  -4.822  0.00  0.00    +0.030 A 
ATOM     12  C   UNL     1       0.821  -2.017  -3.542  0.00  0.00    +0.025 A 
BRANCH  10  13
ATOM     13  S   UNL     1       2.011  -3.521  -7.072  0.00  0.00    +0.056 S 
ATOM     14  O   UNL     1       2.875  -2.411  -7.272  0.00  0.00    -0.153 OA
ATOM     15  O   UNL     1       2.451  -4.864  -7.217  0.00  0.00    -0.153 OA
BRANCH  13  16
ATOM     16  N   UNL     1       0.739  -3.324  -8.114  0.00  0.00    -0.204 NA
ATOM     17  H   UNL     1       0.887  -2.943  -8.993  0.00  0.00    +0.144 HD
ATOM     18  H   UNL     1      -0.154  -3.590  -7.845  0.00  0.00    +0.144 HD
ENDBRANCH  13  16
ENDBRANCH  10  13
ENDBRANCH   5   7
ENDBRANCH   2   3
BRANCH   2  19
ATOM     19  N   UNL     1      -1.964  -0.460   0.361  0.00  0.00    +0.391 N 
ATOM     20  H   UNL     1      -1.316   0.298   0.205  0.00  0.00    -0.084 HD
ATOM     21  H   UNL     1      -2.708  -0.411  -0.318  0.00  0.00    -0.084 HD
BRANCH  19  22
ATOM     22  C   UNL     1      -2.526  -0.354   1.714  0.00  0.00    -0.037 C 
BRANCH  22  23
ATOM     23  C   UNL     1      -3.565  -1.428   1.911  0.00  0.00    -0.061 A 
ATOM     24  C   UNL     1      -4.432  -1.748   0.883  0.00  0.00    +0.002 A 
ATOM     25  C   UNL     1      -5.385  -2.733   1.064  0.00  0.00    +0.004 A 
ATOM     26  C   UNL     1      -5.471  -3.398   2.273  0.00  0.00    -0.047 A 
ATOM     27  C   UNL     1      -4.603  -3.078   3.301  0.00  0.00    +0.004 A 
ATOM     28  C   UNL     1      -3.648  -2.096   3.118  0.00  0.00    +0.002 A 
BRANCH  26  29
ATOM     29  C   UNL     1      -6.510  -4.471   2.470  0.00  0.00    +0.038 C 
BRANCH  29  30
ATOM     30  C   UNL     1      -5.930  -5.825   2.058  0.00  0.00    -0.013 C 
ATOM     31  C   UNL     1      -4.782  -6.196   2.999  0.00  0.00    +0.007 C 
ATOM     32  C   UNL     1      -7.022  -6.894   2.140  0.00  0.00    +0.007 C 
ENDBRANCH  29  30
ENDBRANCH  26  29
ENDBRANCH  22  23
BRANCH  22  33
ATOM     33  C   UNL     1      -3.174   1.021   1.890  0.00  0.00    -0.027 C 
ATOM     34  C   UNL     1      -3.691   1.161   3.324  0.00  0.00    +0.006 C 
ATOM     35  C   UNL     1      -2.138   2.112   1.613  0.00  0.00    +0.006 C 
ENDBRANCH  22  33
ENDBRANCH  19  22
ENDBRANCH   2  19
TORSDOF 10
