REMARK  Name = ZINC39630611
REMARK  11 active torsions:
REMARK  status: ('A' for Active; 'I' for Inactive)
REMARK    1  A    between atoms: C_1  and  C_2
REMARK    2  A    between atoms: C_2  and  C_3
REMARK    3  A    between atoms: C_2  and  C_4
REMARK    4  A    between atoms: C_2  and  C_31
REMARK    5  A    between atoms: C_4  and  N_5
REMARK    6  A    between atoms: C_6  and  C_8
REMARK    7  A    between atoms: C_19  and  C_21
REMARK    8  A    between atoms: C_24  and  C_27
REMARK    9  A    between atoms: C_31  and  N_32
REMARK   10  A    between atoms: N_32  and  C_33
REMARK   11  A    between atoms: N_32  and  C_34
REMARK                            x       y       z     vdW  Elec       q    Type
REMARK                         _______ _______ _______ _____ _____    ______ ____
ROOT
ATOM      1  C   UNL     1      -5.882   0.932   2.682  0.00  0.00    +0.100 C 
ATOM      2  C   UNL     1      -5.612   0.877   4.202  0.00  0.00    +0.121 C 
ATOM      3  N   UNL     1      -6.957   0.917   4.823  0.00  0.00    -0.296 N 
ATOM      4  C   UNL     1      -7.795   0.067   3.943  0.00  0.00    +0.115 C 
ATOM      5  C   UNL     1      -7.315   0.399   2.516  0.00  0.00    -0.004 C 
ATOM      6  C   UNL     1      -8.209   1.469   1.895  0.00  0.00    -0.010 C 
ATOM      7  C   UNL     1      -9.614   0.896   1.688  0.00  0.00    -0.082 C 
ATOM      8  N   UNL     1      -9.541  -0.279   0.811  0.00  0.00    +0.379 N 
ATOM      9  C   UNL     1      -8.757  -1.338   1.456  0.00  0.00    -0.082 C 
ATOM     10  C   UNL     1      -7.315  -0.860   1.654  0.00  0.00    -0.010 C 
ATOM     11  C   UNL     1      -7.334   1.576   5.936  0.00  0.00    +0.247 C 
ATOM     12  O   UNL     1      -6.512   2.195   6.584  0.00  0.00    -0.270 OA
ATOM     13  H   UNL     1     -10.473  -0.617   0.626  0.00  0.00    -0.086 HD
ATOM     14  H   UNL     1      -9.102  -0.020  -0.060  0.00  0.00    -0.086 HD
ENDROOT
BRANCH  11  15
ATOM     15  C   UNL     1      -8.747   1.547   6.370  0.00  0.00    +0.037 A 
ATOM     16  C   UNL     1      -9.550   0.445   6.071  0.00  0.00    +0.013 A 
ATOM     17  C   UNL     1     -10.867   0.424   6.479  0.00  0.00    +0.013 A 
ATOM     18  C   UNL     1     -11.393   1.492   7.184  0.00  0.00    +0.055 A 
ATOM     19  C   UNL     1     -10.603   2.588   7.484  0.00  0.00    +0.013 A 
ATOM     20  C   UNL     1      -9.283   2.619   7.087  0.00  0.00    +0.013 A 
BRANCH  18  21
ATOM     21  C   UNL     1     -12.834   1.462   7.626  0.00  0.00    +0.417 C 
ATOM     22  F   UNL     1     -12.919   0.883   8.897  0.00  0.00    -0.166 F 
ATOM     23  F   UNL     1     -13.334   2.768   7.675  0.00  0.00    -0.166 F 
ATOM     24  F   UNL     1     -13.585   0.709   6.718  0.00  0.00    -0.166 F 
ENDBRANCH  18  21
ENDBRANCH  11  15
BRANCH   1  26
ATOM     25  N   UNL     1      -4.538   0.363   0.685  0.00  0.00    -0.315 N 
ATOM     26  C   UNL     1      -4.907   0.052   1.943  0.00  0.00    +0.218 C 
ATOM     27  O   UNL     1      -4.454  -0.936   2.482  0.00  0.00    -0.275 OA
ATOM     28  H   UNL     1      -4.900   1.153   0.255  0.00  0.00    +0.149 HD
BRANCH  25  29
ATOM     29  C   UNL     1      -3.589  -0.492  -0.033  0.00  0.00    +0.108 C 
BRANCH  29  31
ATOM     30  C   UNL     1      -4.663   0.135  -2.200  0.00  0.00    +0.010 C 
ATOM     31  C   UNL     1      -3.342   0.081  -1.430  0.00  0.00    -0.034 C 
ATOM     32  C   UNL     1      -2.764   1.492  -1.307  0.00  0.00    +0.010 C 
BRANCH  31  33
ATOM     33  C   UNL     1      -2.351  -0.812  -2.179  0.00  0.00    -0.072 C 
BRANCH  33  34
ATOM     34  N   UNL     1      -2.023  -0.201  -3.474  0.00  0.00    +0.376 N 
ATOM     35  C   UNL     1      -0.933   0.767  -3.296  0.00  0.00    -0.097 C 
ATOM     36  C   UNL     1      -1.602  -1.246  -4.416  0.00  0.00    -0.097 C 
ATOM     37  H   UNL     1      -2.837   0.272  -3.838  0.00  0.00    -0.083 HD
ENDBRANCH  33  34
ENDBRANCH  31  33
ENDBRANCH  29  31
ENDBRANCH  25  29
ENDBRANCH   1  26
TORSDOF 7
