REMARK  Name = ZINC38965846
REMARK  10 active torsions:
REMARK  status: ('A' for Active; 'I' for Inactive)
REMARK    1  A    between atoms: C_1  and  C_2
REMARK    2  A    between atoms: C_2  and  O_3
REMARK    3  A    between atoms: O_3  and  C_4
REMARK    4  A    between atoms: C_4  and  C_6
REMARK    5  A    between atoms: C_9  and  N_12
REMARK    6  A    between atoms: N_12  and  C_13
REMARK    7  A    between atoms: N_16  and  S_17
REMARK    8  A    between atoms: S_17  and  C_20
REMARK    9  A    between atoms: C_22  and  C_27
REMARK   10  A    between atoms: C_25  and  C_26
REMARK                            x       y       z     vdW  Elec       q    Type
REMARK                         _______ _______ _______ _____ _____    ______ ____
ROOT
ATOM      1  C   UNL     1      -6.845  -5.510  -0.067  0.00  0.00    +0.237 C 
ATOM      2  C   UNL     1      -7.788  -5.774  -1.219  0.00  0.00    +0.192 C 
ATOM      3  N   UNL     1      -7.505  -5.348  -2.414  0.00  0.00    -0.110 NA
ATOM      4  N   UNL     1      -8.921  -6.456  -0.989  0.00  0.00    -0.226 NA
ATOM      5  C   UNL     1      -9.230  -6.899   0.212  0.00  0.00    +0.089 A 
ATOM      6  C   UNL     1     -10.436  -7.616   0.418  0.00  0.00    +0.030 A 
ATOM      7  C   UNL     1     -10.758  -8.072   1.648  0.00  0.00    +0.002 A 
ATOM      8  C   UNL     1      -9.939  -7.869   2.772  0.00  0.00    +0.002 A 
ATOM      9  C   UNL     1      -8.769  -7.199   2.687  0.00  0.00    +0.027 A 
ATOM     10  C   UNL     1      -8.346  -6.670   1.381  0.00  0.00    +0.063 A 
ATOM     11  N   UNL     1      -7.223  -6.019   1.261  0.00  0.00    -0.359 N 
ATOM     12  H   UNL     1      -6.650  -5.874   2.030  0.00  0.00    +0.162 HD
ENDROOT
BRANCH   3  13
ATOM     13  S   UNL     1      -8.547  -5.645  -3.667  0.00  0.00    +0.101 S 
ATOM     14  O   UNL     1      -8.547  -7.051  -3.871  0.00  0.00    -0.146 OA
ATOM     15  O   UNL     1      -9.734  -4.915  -3.390  0.00  0.00    -0.146 OA
BRANCH  13  16
ATOM     16  C   UNL     1      -7.840  -4.926  -5.113  0.00  0.00    +0.116 A 
ATOM     17  C   UNL     1      -7.447  -5.734  -6.164  0.00  0.00    +0.032 A 
ATOM     18  C   UNL     1      -6.893  -5.171  -7.298  0.00  0.00    -0.049 A 
ATOM     19  C   UNL     1      -6.732  -3.800  -7.381  0.00  0.00    +0.004 A 
ATOM     20  C   UNL     1      -7.126  -2.993  -6.331  0.00  0.00    +0.005 A 
ATOM     21  C   UNL     1      -7.684  -3.556  -5.198  0.00  0.00    -0.024 A 
ATOM     22  C   UNL     1      -8.119  -2.675  -4.055  0.00  0.00    +0.046 C 
ATOM     23  C   UNL     1      -6.464  -6.051  -8.444  0.00  0.00    +0.044 C 
ENDBRANCH  13  16
ENDBRANCH   3  13
BRANCH   1  24
ATOM     24  N   UNL     1      -6.670  -4.060   0.044  0.00  0.00    -0.318 N 
ATOM     25  H   UNL     1      -7.446  -3.479   0.087  0.00  0.00    +0.148 HD
BRANCH  24  29
ATOM     26  C   UNL     1      -2.848  -2.431   0.172  0.00  0.00    +0.059 A 
ATOM     27  C   UNL     1      -3.022  -3.817   0.242  0.00  0.00    +0.017 A 
ATOM     28  C   UNL     1      -4.284  -4.351   0.200  0.00  0.00    +0.024 A 
ATOM     29  C   UNL     1      -5.392  -3.515   0.087  0.00  0.00    +0.029 A 
ATOM     30  C   UNL     1      -5.222  -2.135   0.018  0.00  0.00    +0.024 A 
ATOM     31  C   UNL     1      -3.963  -1.594   0.065  0.00  0.00    +0.017 A 
BRANCH  26  32
ATOM     32  C   UNL     1      -1.492  -1.854   0.218  0.00  0.00    +0.339 C 
ATOM     33  O   UNL     1      -1.343  -0.649   0.162  0.00  0.00    -0.245 OA
BRANCH  32  34
ATOM     34  O   UNL     1      -0.419  -2.662   0.321  0.00  0.00    -0.461 OA
BRANCH  34  36
ATOM     35  C   UNL     1       1.952  -3.104   0.478  0.00  0.00    +0.048 C 
ATOM     36  C   UNL     1       0.864  -2.034   0.360  0.00  0.00    +0.229 C 
ENDBRANCH  34  36
ENDBRANCH  32  34
ENDBRANCH  26  32
ENDBRANCH  24  29
ENDBRANCH   1  24
TORSDOF 7
