REMARK  Name = ZINC28312300
REMARK  12 active torsions:
REMARK  status: ('A' for Active; 'I' for Inactive)
REMARK    1  A    between atoms: C_1  and  C_2
REMARK    2  A    between atoms: C_6  and  C_8
REMARK    3  A    between atoms: N_10  and  C_11
REMARK    4  A    between atoms: C_11  and  C_23
REMARK    5  A    between atoms: C_12  and  C_13
REMARK    6  A    between atoms: C_16  and  O_21
REMARK    7  A    between atoms: C_18  and  O_19
REMARK    8  A    between atoms: O_19  and  C_20
REMARK    9  A    between atoms: O_21  and  C_22
REMARK   10  A    between atoms: N_25  and  C_26
REMARK   11  A    between atoms: C_31  and  O_32
REMARK   12  A    between atoms: O_32  and  C_33
REMARK                            x       y       z     vdW  Elec       q    Type
REMARK                         _______ _______ _______ _____ _____    ______ ____
ROOT
ATOM      1  C   UNL     1       1.177   7.744   0.061  0.00  0.00    +0.097 C 
ATOM      2  C   UNL     1       2.403   8.234  -0.248  0.00  0.00    +0.040 C 
ENDROOT
BRANCH   2   3
ATOM      3  C   UNL     1       2.634   9.683  -0.250  0.00  0.00    +0.019 A 
ATOM      4  C   UNL     1       1.623  10.556  -0.669  0.00  0.00    +0.015 A 
ATOM      5  C   UNL     1       1.845  11.915  -0.668  0.00  0.00    +0.046 A 
ATOM      6  C   UNL     1       3.071  12.424  -0.253  0.00  0.00    +0.124 A 
ATOM      7  C   UNL     1       4.080  11.568   0.165  0.00  0.00    +0.091 A 
ATOM      8  C   UNL     1       3.869  10.201   0.175  0.00  0.00    +0.131 A 
BRANCH   8   9
ATOM      9  O   UNL     1       4.854   9.363   0.588  0.00  0.00    -0.494 OA
ATOM     10  C   UNL     1       6.082   9.961   1.006  0.00  0.00    +0.277 C 
ENDBRANCH   8   9
BRANCH   6  11
ATOM     11  O   UNL     1       3.281  13.766  -0.256  0.00  0.00    -0.495 OA
ATOM     12  C   UNL     1       2.201  14.591  -0.697  0.00  0.00    +0.277 C 
ENDBRANCH   6  11
ENDBRANCH   2   3
BRANCH   1  15
ATOM     13  C   UNL     1      -0.298   5.885   0.245  0.00  0.00    +0.248 C 
ATOM     14  O   UNL     1      -1.171   6.633   0.639  0.00  0.00    -0.270 OA
ATOM     15  N   UNL     1       0.929   6.369  -0.034  0.00  0.00    -0.277 N 
ATOM     16  H   UNL     1       1.734   5.684  -0.337  0.00  0.00    +0.155 HD
BRANCH  13  22
ATOM     17  C   UNL     1      -3.480   2.050   0.499  0.00  0.00    +0.044 C 
ATOM     18  C   UNL     1      -2.109   2.595   0.194  0.00  0.00    -0.050 A 
ATOM     19  C   UNL     1      -1.111   1.746  -0.249  0.00  0.00    +0.003 A 
ATOM     20  C   UNL     1       0.149   2.239  -0.538  0.00  0.00    +0.001 A 
ATOM     21  C   UNL     1       0.420   3.583  -0.379  0.00  0.00    +0.013 A 
ATOM     22  C   UNL     1      -0.581   4.444   0.073  0.00  0.00    +0.037 A 
ATOM     23  C   UNL     1      -1.850   3.940   0.362  0.00  0.00    +0.016 A 
ENDBRANCH  13  22
ENDBRANCH   1  15
BRANCH   1  24
ATOM     24  C   UNL     1       0.112   8.653   0.496  0.00  0.00    +0.263 C 
ATOM     25  O   UNL     1      -0.828   8.886  -0.242  0.00  0.00    -0.268 OA
ATOM     26  N   UNL     1       0.173   9.230   1.712  0.00  0.00    -0.278 N 
ATOM     27  H   UNL     1       1.060   9.084   2.346  0.00  0.00    +0.155 HD
BRANCH  26  28
ATOM     28  C   UNL     1      -0.892  10.016   2.169  0.00  0.00    +0.076 A 
ATOM     29  C   UNL     1      -2.115   9.978   1.514  0.00  0.00    +0.027 A 
ATOM     30  C   UNL     1      -3.166  10.750   1.971  0.00  0.00    +0.002 A 
ATOM     31  C   UNL     1      -3.000  11.570   3.072  0.00  0.00    +0.004 A 
ATOM     32  C   UNL     1      -1.783  11.617   3.726  0.00  0.00    +0.047 A 
ATOM     33  C   UNL     1      -0.725  10.842   3.279  0.00  0.00    +0.141 A 
BRANCH  33  34
ATOM     34  O   UNL     1       0.473  10.888   3.920  0.00  0.00    -0.493 OA
ATOM     35  C   UNL     1       0.571  11.757   5.050  0.00  0.00    +0.277 C 
ENDBRANCH  33  34
ENDBRANCH  26  28
ENDBRANCH   1  24
TORSDOF 8
