REMARK  Name = ZINC36396213
REMARK  8 active torsions:
REMARK  status: ('A' for Active; 'I' for Inactive)
REMARK    1  A    between atoms: C_5  and  C_7
REMARK    2  A    between atoms: C_7  and  O_8
REMARK    3  A    between atoms: O_8  and  C_9
REMARK    4  A    between atoms: C_9  and  C_10
REMARK    5  A    between atoms: C_10  and  C_12
REMARK    6  A    between atoms: C_10  and  O_26
REMARK    7  A    between atoms: C_12  and  N_13
REMARK    8  A    between atoms: N_13  and  C_14
REMARK                            x       y       z     vdW  Elec       q    Type
REMARK                         _______ _______ _______ _____ _____    ______ ____
ROOT
ATOM      1  C   UNL     1      -1.783  -6.043   0.232  0.00  0.00    -0.048 C 
ENDROOT
BRANCH   1   2
ATOM      2  N   UNL     1      -3.193  -6.441   0.125  0.00  0.00    +0.385 N 
ATOM      3  H   UNL     1      -3.707  -6.074   0.911  0.00  0.00    -0.085 HD
ATOM      4  H   UNL     1      -3.582  -6.074  -0.731  0.00  0.00    -0.085 HD
BRANCH   2   5
ATOM      5  C   UNL     1      -3.289  -7.907   0.117  0.00  0.00    -0.039 C 
ATOM      6  C   UNL     1      -2.528  -8.437  -1.085  0.00  0.00    -0.000 C 
ATOM      7  C   UNL     1      -2.579  -9.972  -1.075  0.00  0.00    +0.073 C 
ATOM      8  S   UNL     1      -4.274 -10.453  -1.517  0.00  0.00    -0.125 S 
ATOM      9  C   UNL     1      -5.271  -9.381  -0.531  0.00  0.00    +0.010 A 
ATOM     10  C   UNL     1      -4.739  -8.291   0.130  0.00  0.00    -0.045 A 
ATOM     11  C   UNL     1      -5.592  -7.481   0.875  0.00  0.00    +0.041 A 
ATOM     12  C   UNL     1      -6.941  -7.757   0.961  0.00  0.00    +0.124 A 
ATOM     13  C   UNL     1      -7.466  -8.855   0.301  0.00  0.00    +0.039 A 
ATOM     14  C   UNL     1      -6.634  -9.661  -0.437  0.00  0.00    +0.018 A 
ATOM     15  F   UNL     1      -7.750  -6.957   1.690  0.00  0.00    -0.205 F 
ENDBRANCH   2   5
ENDBRANCH   1   2
BRANCH   1  16
ATOM     16  C   UNL     1      -1.691  -4.523   0.375  0.00  0.00    +0.123 C 
BRANCH  16  17
ATOM     17  O   UNL     1      -2.276  -3.901  -0.771  0.00  0.00    -0.391 OA
ATOM     18  H   UNL     1      -1.848  -4.135  -1.606  0.00  0.00    +0.210 HD
ENDBRANCH  16  17
BRANCH  16  19
ATOM     19  C   UNL     1      -0.223  -4.109   0.487  0.00  0.00    +0.189 C 
BRANCH  19  20
ATOM     20  O   UNL     1      -0.142  -2.704   0.737  0.00  0.00    -0.373 OA
BRANCH  20  21
ATOM     21  C   UNL     1       1.194  -2.212   0.860  0.00  0.00    +0.196 C 
BRANCH  21  26
ATOM     22  C   UNL     1      -0.082   1.294   1.442  0.00  0.00    +0.000 A 
ATOM     23  C   UNL     1       1.099   1.996   1.598  0.00  0.00    +0.001 A 
ATOM     24  C   UNL     1       2.311   1.337   1.515  0.00  0.00    +0.020 A 
ATOM     25  C   UNL     1       2.343  -0.026   1.276  0.00  0.00    +0.046 A 
ATOM     26  C   UNL     1       1.161  -0.728   1.121  0.00  0.00    -0.004 A 
ATOM     27  C   UNL     1      -0.051  -0.068   1.204  0.00  0.00    +0.007 A 
ATOM     28 CL   UNL     1       3.865  -0.854   1.170  0.00  0.00    -0.083 Cl
ENDBRANCH  21  26
ENDBRANCH  20  21
ENDBRANCH  19  20
ENDBRANCH  16  19
ENDBRANCH   1  16
TORSDOF 8
