REMARK  Name = ZINC10351730
REMARK  9 active torsions:
REMARK  status: ('A' for Active; 'I' for Inactive)
REMARK    1  A    between atoms: C_1  and  C_2
REMARK    2  A    between atoms: C_2  and  C_4
REMARK    3  A    between atoms: C_2  and  N_50
REMARK    4  A    between atoms: N_6  and  C_7
REMARK    5  A    between atoms: C_14  and  C_16
REMARK    6  A    between atoms: C_14  and  C_22
REMARK    7  A    between atoms: C_14  and  N_50
REMARK    8  A    between atoms: C_25  and  O_28
REMARK    9  A    between atoms: O_28  and  C_29
REMARK                            x       y       z     vdW  Elec       q    Type
REMARK                         _______ _______ _______ _____ _____    ______ ____
ROOT
ATOM      1  N   UNL     1       1.373   1.623   0.008  0.00  0.00    +0.394 N 
ATOM      2  H   UNL     1       1.702   1.666  -0.963  0.00  0.00    -0.083 HD
ATOM      3  H   UNL     1       1.396   2.564   0.418  0.00  0.00    -0.083 HD
ENDROOT
BRANCH   1   5
ATOM      4  C   UNL     1       2.207   1.123   2.262  0.00  0.00    -0.004 C 
ATOM      5  C   UNL     1       2.259   0.734   0.783  0.00  0.00    +0.014 C 
BRANCH   5   6
ATOM      6  C   UNL     1       3.671   0.876   0.275  0.00  0.00    +0.203 C 
ATOM      7  O   UNL     1       3.913   1.636  -0.638  0.00  0.00    -0.277 OA
ATOM      8  N   UNL     1       4.664   0.159   0.836  0.00  0.00    -0.285 N 
ATOM      9  H   UNL     1       4.483  -0.400   1.608  0.00  0.00    +0.155 HD
BRANCH   8  10
ATOM     10  C   UNL     1       5.958   0.220   0.304  0.00  0.00    +0.069 A 
ATOM     11  C   UNL     1       6.432   1.407  -0.238  0.00  0.00    +0.026 A 
ATOM     12  C   UNL     1       7.711   1.466  -0.756  0.00  0.00    +0.002 A 
ATOM     13  C   UNL     1       8.517   0.342  -0.747  0.00  0.00    +0.003 A 
ATOM     14  C   UNL     1       8.047  -0.844  -0.213  0.00  0.00    +0.040 A 
ATOM     15  C   UNL     1       6.770  -0.909   0.313  0.00  0.00    +0.144 A 
ATOM     16  F   UNL     1       6.311  -2.068   0.834  0.00  0.00    -0.204 F 
ENDBRANCH   8  10
ENDBRANCH   5   6
ENDBRANCH   1   5
BRANCH   1  17
ATOM     17  C   UNL     1      -0.011   1.115   0.032  0.00  0.00    -0.009 C 
BRANCH  17  18
ATOM     18  C   UNL     1      -0.707   1.607   1.275  0.00  0.00    -0.057 A 
ATOM     19  C   UNL     1      -0.488   2.896   1.725  0.00  0.00    +0.002 A 
ATOM     20  C   UNL     1      -1.130   3.349   2.862  0.00  0.00    +0.000 A 
ATOM     21  C   UNL     1      -1.982   2.510   3.556  0.00  0.00    +0.000 A 
ATOM     22  C   UNL     1      -2.196   1.219   3.109  0.00  0.00    +0.000 A 
ATOM     23  C   UNL     1      -1.558   0.768   1.969  0.00  0.00    +0.002 A 
ENDBRANCH  17  18
BRANCH  17  24
ATOM     24  C   UNL     1      -0.743   1.617  -1.186  0.00  0.00    -0.057 A 
ATOM     25  C   UNL     1      -0.546   2.914  -1.623  0.00  0.00    +0.006 A 
ATOM     26  C   UNL     1      -1.212   3.375  -2.743  0.00  0.00    +0.046 A 
ATOM     27  C   UNL     1      -2.088   2.539  -3.421  0.00  0.00    +0.120 A 
ATOM     28  C   UNL     1      -2.288   1.240  -2.976  0.00  0.00    +0.046 A 
ATOM     29  C   UNL     1      -1.615   0.782  -1.860  0.00  0.00    +0.006 A 
BRANCH  27  30
ATOM     30  O   UNL     1      -2.749   2.993  -4.518  0.00  0.00    -0.495 OA
ATOM     31  C   UNL     1      -2.494   4.340  -4.918  0.00  0.00    +0.277 C 
ENDBRANCH  27  30
ENDBRANCH  17  24
ENDBRANCH   1  17
TORSDOF 7
