REMARK  Name = ZINC47811820
REMARK  15 active torsions:
REMARK  status: ('A' for Active; 'I' for Inactive)
REMARK    1  A    between atoms: C_1  and  C_2
REMARK    2  A    between atoms: C_2  and  C_3
REMARK    3  A    between atoms: C_3  and  C_4
REMARK    4  A    between atoms: C_3  and  C_5
REMARK    5  A    between atoms: C_3  and  N_6
REMARK    6  A    between atoms: C_7  and  C_9
REMARK    7  A    between atoms: C_12  and  N_15
REMARK    8  A    between atoms: N_18  and  C_19
REMARK    9  A    between atoms: C_19  and  C_20
REMARK   10  A    between atoms: C_20  and  C_22
REMARK   11  A    between atoms: C_20  and  N_23
REMARK   12  A    between atoms: N_23  and  C_24
REMARK   13  A    between atoms: N_23  and  C_26
REMARK   14  A    between atoms: C_24  and  C_25
REMARK   15  A    between atoms: C_26  and  C_27
REMARK                            x       y       z     vdW  Elec       q    Type
REMARK                         _______ _______ _______ _____ _____    ______ ____
ROOT
ATOM      1  C   UNL     1       1.810  -3.814  -4.306  0.00  0.00    +0.037 A 
ATOM      2  C   UNL     1       2.775  -4.667  -4.848  0.00  0.00    +0.015 A 
ATOM      3  C   UNL     1       2.757  -6.009  -4.540  0.00  0.00    +0.024 A 
ATOM      4  C   UNL     1       1.778  -6.516  -3.691  0.00  0.00    +0.035 A 
ATOM      5  C   UNL     1       0.815  -5.670  -3.151  0.00  0.00    +0.024 A 
ATOM      6  C   UNL     1       0.831  -4.326  -3.450  0.00  0.00    +0.015 A 
ENDROOT
BRANCH   4   7
ATOM      7  N   UNL     1       1.762  -7.875  -3.381  0.00  0.00    -0.269 N 
ATOM      8  C   UNL     1       2.118  -8.783  -4.312  0.00  0.00    +0.304 C 
ATOM      9  O   UNL     1       2.537  -8.413  -5.392  0.00  0.00    -0.253 OA
ATOM     10  N   UNL     1       2.009 -10.099  -4.046  0.00  0.00    -0.301 N 
ATOM     11  H   UNL     1       1.495  -8.168  -2.496  0.00  0.00    +0.156 HD
ATOM     12  H   UNL     1       1.675 -10.394  -3.184  0.00  0.00    +0.150 HD
BRANCH  10  13
ATOM     13  C   UNL     1       2.396 -11.086  -5.058  0.00  0.00    +0.090 C 
BRANCH  13  14
ATOM     14  C   UNL     1       2.055 -12.491  -4.557  0.00  0.00    -0.054 C 
ATOM     15  C   UNL     1       2.364 -13.512  -5.654  0.00  0.00    -0.012 C 
BRANCH  14  16
ATOM     16  N   UNL     1       0.627 -12.556  -4.216  0.00  0.00    +0.382 N 
ATOM     17  H   UNL     1       0.405 -11.824  -3.558  0.00  0.00    -0.081 HD
BRANCH  16  18
ATOM     18  C   UNL     1      -0.176 -12.380  -5.433  0.00  0.00    -0.082 C 
ATOM     19  C   UNL     1      -1.657 -12.295  -5.059  0.00  0.00    -0.017 C 
ENDBRANCH  16  18
BRANCH  16  20
ATOM     20  C   UNL     1       0.327 -13.862  -3.616  0.00  0.00    -0.082 C 
ATOM     21  C   UNL     1       1.059 -13.990  -2.278  0.00  0.00    -0.017 C 
ENDBRANCH  16  20
ENDBRANCH  14  16
ENDBRANCH  13  14
ENDBRANCH  10  13
ENDBRANCH   4   7
BRANCH   1  23
ATOM     22  N   UNL     1       2.771  -1.883  -5.460  0.00  0.00    -0.306 N 
ATOM     23  C   UNL     1       1.827  -2.375  -4.634  0.00  0.00    +0.244 C 
ATOM     24  O   UNL     1       0.990  -1.633  -4.158  0.00  0.00    -0.270 OA
ATOM     25  H   UNL     1       3.440  -2.475  -5.840  0.00  0.00    +0.150 HD
BRANCH  22  26
ATOM     26  C   UNL     1       2.788  -0.455  -5.785  0.00  0.00    +0.029 C 
ATOM     27  C   UNL     1       2.962   0.358  -4.501  0.00  0.00    +0.031 C 
ATOM     28  C   UNL     1       1.470  -0.069  -6.459  0.00  0.00    +0.031 C 
BRANCH  26  30
ATOM     29  C   UNL     1       3.970   1.330  -7.074  0.00  0.00    +0.006 C 
ATOM     30  C   UNL     1       3.952  -0.162  -6.735  0.00  0.00    +0.022 C 
ENDBRANCH  26  30
ENDBRANCH  22  26
ENDBRANCH   1  23
TORSDOF 9
