REMARK  Name = ZINC47139179
REMARK  7 active torsions:
REMARK  status: ('A' for Active; 'I' for Inactive)
REMARK    1  A    between atoms: C_4  and  O_31
REMARK    2  A    between atoms: C_5  and  C_7
REMARK    3  A    between atoms: N_11  and  C_25
REMARK    4  A    between atoms: N_13  and  N_14
REMARK    5  A    between atoms: C_15  and  C_16
REMARK    6  A    between atoms: C_21  and  O_22
REMARK    7  A    between atoms: C_25  and  C_26
REMARK                            x       y       z     vdW  Elec       q    Type
REMARK                         _______ _______ _______ _____ _____    ______ ____
ROOT
ATOM      1  C   UNL     1       0.752  -2.976  -2.858  0.00  0.00    +0.032 C 
ATOM      2  C   UNL     1      -0.315  -3.529  -2.226  0.00  0.00    +0.078 C 
ATOM      3  C   UNL     1      -0.472  -4.885  -1.667  0.00  0.00    +0.259 C 
ATOM      4  O   UNL     1       0.425  -5.706  -1.727  0.00  0.00    -0.269 OA
ATOM      5  N   UNL     1      -1.631  -5.168  -1.096  0.00  0.00    -0.237 N 
ATOM      6  C   UNL     1      -2.634  -4.225  -1.038  0.00  0.00    +0.190 C 
ATOM      7  N   UNL     1      -3.837  -4.340  -0.511  0.00  0.00    -0.126 NA
ATOM      8  S   UNL     1      -1.904  -2.808  -1.842  0.00  0.00    -0.047 S 
ENDROOT
BRANCH   1  13
ATOM      9  C   UNL     1      -0.723   0.153  -4.300  0.00  0.00    +0.001 A 
ATOM     10  C   UNL     1       0.420   0.874  -4.607  0.00  0.00    +0.004 A 
ATOM     11  C   UNL     1       1.671   0.348  -4.348  0.00  0.00    +0.046 A 
ATOM     12  C   UNL     1       1.792  -0.908  -3.777  0.00  0.00    +0.124 A 
ATOM     13  C   UNL     1       0.638  -1.644  -3.463  0.00  0.00    +0.018 A 
ATOM     14  C   UNL     1      -0.623  -1.098  -3.731  0.00  0.00    +0.011 A 
BRANCH  12  15
ATOM     15  O   UNL     1       3.021  -1.426  -3.523  0.00  0.00    -0.506 OA
ATOM     16  H   UNL     1       3.364  -1.212  -2.644  0.00  0.00    +0.292 HD
ENDBRANCH  12  15
ENDBRANCH   1  13
BRANCH   7  17
ATOM     17  N   UNL     1      -4.197  -5.449   0.040  0.00  0.00    -0.155 NA
ATOM     18  C   UNL     1      -5.389  -5.563   0.562  0.00  0.00    +0.146 C 
BRANCH  18  19
ATOM     19  C   UNL     1      -6.362  -4.470   0.417  0.00  0.00    +0.037 A 
ATOM     20  C   UNL     1      -5.922  -3.148   0.295  0.00  0.00    +0.028 A 
ATOM     21  C   UNL     1      -6.841  -2.128   0.160  0.00  0.00    +0.019 A 
ATOM     22  C   UNL     1      -8.198  -2.408   0.144  0.00  0.00    +0.019 A 
ATOM     23  C   UNL     1      -8.645  -3.711   0.264  0.00  0.00    +0.047 A 
ATOM     24  C   UNL     1      -7.737  -4.748   0.394  0.00  0.00    +0.126 A 
ATOM     25 BR   UNL     1      -6.246  -0.341  -0.004  0.00  0.00    -0.050 Br
BRANCH  24  26
ATOM     26  O   UNL     1      -8.176  -6.028   0.506  0.00  0.00    -0.506 OA
ATOM     27  H   UNL     1      -8.408  -6.287   1.409  0.00  0.00    +0.292 HD
ENDBRANCH  24  26
ENDBRANCH  18  19
ENDBRANCH   7  17
BRANCH   5  28
ATOM     28  C   UNL     1      -1.851  -6.497  -0.521  0.00  0.00    +0.190 C 
BRANCH  28  29
ATOM     29  C   UNL     1      -1.423  -6.497   0.924  0.00  0.00    +0.123 A 
ATOM     30  C   UNL     1      -2.209  -6.206   1.976  0.00  0.00    +0.046 A 
ATOM     31  C   UNL     1      -1.405  -6.327   3.133  0.00  0.00    +0.041 A 
ATOM     32  C   UNL     1      -0.177  -6.685   2.719  0.00  0.00    +0.195 A 
ATOM     33  O   UNL     1      -0.195  -6.792   1.380  0.00  0.00    -0.466 OA
ENDBRANCH  28  29
ENDBRANCH   5  28
TORSDOF 7
