REMARK  Name = ZINC50941202
REMARK  4 active torsions:
REMARK  status: ('A' for Active; 'I' for Inactive)
REMARK    1  A    between atoms: C_5  and  N_8
REMARK    2  A    between atoms: C_9  and  C_11
REMARK    3  A    between atoms: C_11  and  C_12
REMARK    4  A    between atoms: C_12  and  C_13
REMARK                            x       y       z     vdW  Elec       q    Type
REMARK                         _______ _______ _______ _____ _____    ______ ____
ROOT
ATOM      1  N   UNL     1       1.238  -2.081  -0.022  0.00  0.00    -0.283 N 
ATOM      2  C   UNL     1       0.156  -2.775   0.384  0.00  0.00    +0.217 C 
ATOM      3  O   UNL     1      -0.867  -2.190   0.671  0.00  0.00    -0.275 OA
ATOM      4  H   UNL     1       2.032  -2.552  -0.320  0.00  0.00    +0.155 HD
ENDROOT
BRANCH   1   9
ATOM      5  C   UNL     1       0.782   1.398  -1.132  0.00  0.00    +0.037 A 
ATOM      6  C   UNL     1       1.172   2.087   0.002  0.00  0.00    +0.021 A 
ATOM      7  C   UNL     1       1.583   1.397   1.128  0.00  0.00    +0.037 A 
ATOM      8  C   UNL     1       1.606   0.015   1.123  0.00  0.00    +0.065 A 
ATOM      9  C   UNL     1       1.215  -0.681  -0.014  0.00  0.00    +0.070 A 
ATOM     10  C   UNL     1       0.803   0.015  -1.143  0.00  0.00    +0.065 A 
ATOM     11 CL   UNL     1       0.313  -0.849  -2.567  0.00  0.00    -0.082 Cl
ATOM     12 CL   UNL     1       2.123  -0.851   2.537  0.00  0.00    -0.082 Cl
ATOM     13 BR   UNL     1       1.143   3.978   0.013  0.00  0.00    -0.050 Br
ENDBRANCH   1   9
BRANCH   2  14
ATOM     14  C   UNL     1       0.218  -4.277   0.482  0.00  0.00    +0.094 C 
BRANCH  14  15
ATOM     15  C   UNL     1      -1.133  -4.813   0.963  0.00  0.00    -0.007 C 
BRANCH  15  16
ATOM     16  C   UNL     1      -1.070  -6.338   1.063  0.00  0.00    -0.071 C 
ATOM     17  C   UNL     1      -2.376  -6.864   1.663  0.00  0.00    -0.016 C 
ATOM     18  C   UNL     1      -2.308  -8.391   1.761  0.00  0.00    -0.003 C 
ATOM     19  C   UNL     1      -2.034  -8.970   0.370  0.00  0.00    -0.019 C 
ATOM     20  C   UNL     1      -0.741  -8.367  -0.182  0.00  0.00    -0.082 C 
ATOM     21  N   UNL     1      -0.879  -6.908  -0.276  0.00  0.00    +0.381 N 
ATOM     22  H   UNL     1      -1.676  -6.683  -0.853  0.00  0.00    -0.086 HD
ATOM     23  H   UNL     1      -0.046  -6.519  -0.691  0.00  0.00    -0.086 HD
ENDBRANCH  15  16
ENDBRANCH  14  15
ENDBRANCH   2  14
TORSDOF 4
