REMARK  Name = ZINC38819169
REMARK  10 active torsions:
REMARK  status: ('A' for Active; 'I' for Inactive)
REMARK    1  A    between atoms: C_1  and  C_2
REMARK    2  A    between atoms: C_2  and  C_3
REMARK    3  A    between atoms: C_3  and  C_4
REMARK    4  A    between atoms: C_4  and  C_5
REMARK    5  A    between atoms: C_5  and  O_6
REMARK    6  A    between atoms: O_6  and  C_7
REMARK    7  A    between atoms: C_7  and  C_9
REMARK    8  A    between atoms: C_12  and  N_15
REMARK    9  A    between atoms: C_19  and  C_22
REMARK   10  A    between atoms: C_20  and  N_21
REMARK                            x       y       z     vdW  Elec       q    Type
REMARK                         _______ _______ _______ _____ _____    ______ ____
ROOT
ATOM      1  N   UNL     1       2.295 -10.174  -3.867  0.00  0.00    -0.281 N 
ATOM      2  C   UNL     1       3.010 -11.064  -2.940  0.00  0.00    +0.191 C 
ATOM      3  C   UNL     1       2.747 -12.459  -3.469  0.00  0.00    +0.183 C 
ATOM      4  O   UNL     1       3.152 -13.508  -3.004  0.00  0.00    -0.290 OA
ATOM      5  C   UNL     1       1.948 -12.294  -4.595  0.00  0.00    +0.074 C 
ATOM      6  C   UNL     1       1.691 -10.960  -4.808  0.00  0.00    +0.099 C 
ENDROOT
BRANCH   5   7
ATOM      7  C   UNL     1       1.433 -13.419  -5.456  0.00  0.00    +0.212 C 
ATOM      8  N   UNL     1       0.661 -14.365  -4.641  0.00  0.00    -0.359 N 
ATOM      9  C   UNL     1       1.255 -15.521  -4.718  0.00  0.00    +0.060 A 
ATOM     10  C   UNL     1       0.963 -16.836  -4.130  0.00  0.00    +0.027 A 
ATOM     11  C   UNL     1       1.776 -17.878  -4.394  0.00  0.00    +0.002 A 
ATOM     12  C   UNL     1       2.910 -17.765  -5.219  0.00  0.00    +0.002 A 
ATOM     13  C   UNL     1       3.268 -16.607  -5.807  0.00  0.00    +0.027 A 
ATOM     14  C   UNL     1       2.455 -15.402  -5.592  0.00  0.00    +0.060 A 
ATOM     15  N   UNL     1       2.556 -14.177  -6.020  0.00  0.00    -0.359 N 
ATOM     16  H   UNL     1      -0.143 -14.166  -4.136  0.00  0.00    +0.162 HD
ATOM     17  H   UNL     1       3.247 -13.829  -6.605  0.00  0.00    +0.162 HD
ENDBRANCH   5   7
BRANCH   1  21
ATOM     18  C   UNL     1       2.126  -6.019  -3.652  0.00  0.00    +0.059 A 
ATOM     19  C   UNL     1       1.523  -6.797  -2.659  0.00  0.00    +0.017 A 
ATOM     20  C   UNL     1       1.580  -8.170  -2.733  0.00  0.00    +0.024 A 
ATOM     21  C   UNL     1       2.238  -8.785  -3.795  0.00  0.00    +0.035 A 
ATOM     22  C   UNL     1       2.839  -8.013  -4.786  0.00  0.00    +0.024 A 
ATOM     23  C   UNL     1       2.780  -6.640  -4.721  0.00  0.00    +0.017 A 
BRANCH  18  24
ATOM     24  C   UNL     1       2.067  -4.548  -3.576  0.00  0.00    +0.339 C 
ATOM     25  O   UNL     1       2.587  -3.873  -4.442  0.00  0.00    -0.245 OA
BRANCH  24  26
ATOM     26  O   UNL     1       1.435  -3.952  -2.546  0.00  0.00    -0.461 OA
BRANCH  26  27
ATOM     27  C   UNL     1       1.417  -2.523  -2.535  0.00  0.00    +0.232 C 
BRANCH  27  28
ATOM     28  C   UNL     1       0.661  -2.031  -1.299  0.00  0.00    +0.041 C 
BRANCH  28  29
ATOM     29  C   UNL     1       0.641  -0.502  -1.288  0.00  0.00    +0.003 C 
BRANCH  29  31
ATOM     30  C   UNL     1      -0.134   1.520  -0.041  0.00  0.00    +0.004 C 
ATOM     31  C   UNL     1      -0.114  -0.010  -0.052  0.00  0.00    -0.003 C 
ENDBRANCH  29  31
ENDBRANCH  28  29
ENDBRANCH  27  28
ENDBRANCH  26  27
ENDBRANCH  24  26
ENDBRANCH  18  24
ENDBRANCH   1  21
BRANCH   6  32
ATOM     32  N   UNL     1       0.928 -10.479  -5.837  0.00  0.00    -0.346 N 
ATOM     33  H   UNL     1       0.849  -9.523  -5.976  0.00  0.00    +0.143 HD
ATOM     34  H   UNL     1       0.467 -11.095  -6.428  0.00  0.00    +0.143 HD
ENDBRANCH   6  32
TORSDOF 9
