REMARK  Name = ZINC47972027
REMARK  9 active torsions:
REMARK  status: ('A' for Active; 'I' for Inactive)
REMARK    1  A    between atoms: C_1  and  C_2
REMARK    2  A    between atoms: C_2  and  C_3
REMARK    3  A    between atoms: N_5  and  C_6
REMARK    4  A    between atoms: C_9  and  N_13
REMARK    5  A    between atoms: C_11  and  C_12
REMARK    6  A    between atoms: N_16  and  C_17
REMARK    7  A    between atoms: C_17  and  C_18
REMARK    8  A    between atoms: C_18  and  C_19
REMARK    9  A    between atoms: C_18  and  N_20
REMARK                            x       y       z     vdW  Elec       q    Type
REMARK                         _______ _______ _______ _____ _____    ______ ____
ROOT
ATOM      1  N   UNL     1       3.519  -3.286  -6.031  0.00  0.00    -0.269 N 
ATOM      2  C   UNL     1       4.289  -2.470  -6.778  0.00  0.00    +0.304 C 
ATOM      3  O   UNL     1       4.227  -1.266  -6.623  0.00  0.00    -0.253 OA
ATOM      4  N   UNL     1       5.129  -2.989  -7.696  0.00  0.00    -0.301 N 
ATOM      5  H   UNL     1       3.519  -4.241  -6.200  0.00  0.00    +0.156 HD
ATOM      6  H   UNL     1       5.179  -3.950  -7.819  0.00  0.00    +0.150 HD
ENDROOT
BRANCH   1  10
ATOM      7  C   UNL     1       1.136  -1.704  -2.997  0.00  0.00    +0.036 A 
ATOM      8  C   UNL     1       1.729  -2.950  -2.836  0.00  0.00    +0.025 A 
ATOM      9  C   UNL     1       2.517  -3.473  -3.841  0.00  0.00    +0.025 A 
ATOM     10  C   UNL     1       2.718  -2.754  -5.012  0.00  0.00    +0.035 A 
ATOM     11  C   UNL     1       2.126  -1.509  -5.172  0.00  0.00    +0.028 A 
ATOM     12  C   UNL     1       1.332  -0.988  -4.170  0.00  0.00    -0.027 A 
ATOM     13  C   UNL     1       0.684   0.361  -4.347  0.00  0.00    +0.046 C 
BRANCH   7  16
ATOM     14  C   UNL     1      -0.267  -1.994  -1.095  0.00  0.00    +0.217 C 
ATOM     15  O   UNL     1      -0.196  -3.196  -1.241  0.00  0.00    -0.275 OA
ATOM     16  N   UNL     1       0.336  -1.172  -1.977  0.00  0.00    -0.285 N 
ATOM     17  H   UNL     1       0.215  -0.212  -1.906  0.00  0.00    +0.155 HD
BRANCH  14  19
ATOM     18  C   UNL     1      -1.610  -2.559   0.911  0.00  0.00    +0.013 C 
ATOM     19  C   UNL     1      -1.029  -1.420   0.071  0.00  0.00    +0.093 C 
ENDBRANCH  14  19
ENDBRANCH   7  16
ENDBRANCH   1  10
BRANCH   4  20
ATOM     20  C   UNL     1       5.966  -2.102  -8.507  0.00  0.00    +0.090 C 
BRANCH  20  21
ATOM     21  C   UNL     1       6.725  -2.928  -9.547  0.00  0.00    -0.054 C 
ATOM     22  C   UNL     1       7.578  -1.998 -10.413  0.00  0.00    -0.012 C 
BRANCH  21  23
ATOM     23  N   UNL     1       5.766  -3.646 -10.398  0.00  0.00    +0.385 N 
ATOM     24  C   UNL     1       6.493  -4.528 -11.323  0.00  0.00    -0.073 C 
ATOM     25  C   UNL     1       5.492  -5.481 -11.976  0.00  0.00    +0.017 C 
ATOM     26  C   UNL     1       4.336  -4.697 -12.543  0.00  0.00    -0.048 A 
ATOM     27  C   UNL     1       3.503  -5.312 -13.464  0.00  0.00    +0.004 A 
ATOM     28  C   UNL     1       2.432  -4.627 -14.003  0.00  0.00    +0.000 A 
ATOM     29  C   UNL     1       2.190  -3.320 -13.620  0.00  0.00    +0.000 A 
ATOM     30  C   UNL     1       3.020  -2.706 -12.704  0.00  0.00    +0.002 A 
ATOM     31  C   UNL     1       4.097  -3.393 -12.164  0.00  0.00    -0.061 A 
ATOM     32  C   UNL     1       4.981  -2.682 -11.174  0.00  0.00    -0.042 C 
ATOM     33  H   UNL     1       5.149  -4.196  -9.820  0.00  0.00    -0.081 HD
ENDBRANCH  21  23
ENDBRANCH  20  21
ENDBRANCH   4  20
TORSDOF 6
