REMARK  Name = ZINC15961957
REMARK  5 active torsions:
REMARK  status: ('A' for Active; 'I' for Inactive)
REMARK    1  A    between atoms: C_4  and  C_7
REMARK    2  A    between atoms: C_13  and  N_17
REMARK    3  A    between atoms: N_18  and  C_19
REMARK    4  A    between atoms: C_22  and  S_25
REMARK    5  A    between atoms: S_25  and  N_28
REMARK                            x       y       z     vdW  Elec       q    Type
REMARK                         _______ _______ _______ _____ _____    ______ ____
ROOT
ATOM      1  C   UNL     1       3.695  -0.684  -0.037  0.00  0.00    +0.053 A 
ATOM      2  C   UNL     1       4.870   0.014  -0.040  0.00  0.00    +0.098 A 
ATOM      3  C   UNL     1       6.091  -0.682  -0.056  0.00  0.00    +0.275 A 
ATOM      4  N   UNL     1       6.099  -2.031  -0.069  0.00  0.00    -0.176 N 
ATOM      5  C   UNL     1       4.925  -2.720  -0.067  0.00  0.00    +0.168 A 
ATOM      6  N   UNL     1       3.723  -2.056  -0.045  0.00  0.00    -0.337 N 
ATOM      7  C   UNL     1       5.244  -4.077  -0.083  0.00  0.00    +0.169 A 
ATOM      8  C   UNL     1       6.660  -4.169  -0.096  0.00  0.00    +0.168 A 
ATOM      9  N   UNL     1       7.151  -2.955  -0.087  0.00  0.00    -0.145 NA
ATOM     10  N   UNL     1       7.402  -5.348  -0.113  0.00  0.00    -0.340 N 
ATOM     11  O   UNL     1       7.143  -0.067  -0.058  0.00  0.00    -0.266 OA
ATOM     12  H   UNL     1       6.949  -6.206  -0.118  0.00  0.00    +0.144 HD
ATOM     13  H   UNL     1       8.371  -5.312  -0.121  0.00  0.00    +0.144 HD
ATOM     14  H   UNL     1       2.892  -2.558  -0.040  0.00  0.00    +0.167 HD
ENDROOT
BRANCH   1  18
ATOM     15  C   UNL     1      -0.017   1.379   0.010  0.00  0.00    +0.000 A 
ATOM     16  C   UNL     1       1.168   2.094   0.002  0.00  0.00    +0.001 A 
ATOM     17  C   UNL     1       2.377   1.430  -0.013  0.00  0.00    +0.010 A 
ATOM     18  C   UNL     1       2.404   0.034  -0.021  0.00  0.00    -0.001 A 
ATOM     19  C   UNL     1       1.204  -0.681  -0.013  0.00  0.00    +0.010 A 
ATOM     20  C   UNL     1       0.002  -0.004   0.002  0.00  0.00    +0.001 A 
ENDBRANCH   1  18
BRANCH   7  21
ATOM     21  N   UNL     1       4.367  -5.114  -0.086  0.00  0.00    -0.142 NA
ATOM     22  N   UNL     1       4.804  -6.328  -0.102  0.00  0.00    -0.149 NA
BRANCH  22  23
ATOM     23  C   UNL     1       3.920  -7.372  -0.106  0.00  0.00    +0.086 A 
ATOM     24  C   UNL     1       2.545  -7.128  -0.098  0.00  0.00    +0.031 A 
ATOM     25  C   UNL     1       1.659  -8.186  -0.101  0.00  0.00    +0.030 A 
ATOM     26  C   UNL     1       2.131  -9.487  -0.113  0.00  0.00    +0.105 A 
ATOM     27  C   UNL     1       3.492  -9.736  -0.121  0.00  0.00    +0.030 A 
ATOM     28  C   UNL     1       4.389  -8.688  -0.123  0.00  0.00    +0.031 A 
BRANCH  26  29
ATOM     29  S   UNL     1       0.993 -10.832  -0.116  0.00  0.00    +0.056 S 
ATOM     30  O   UNL     1       1.684 -11.950   0.423  0.00  0.00    -0.153 OA
ATOM     31  O   UNL     1      -0.217 -10.342   0.444  0.00  0.00    -0.153 OA
BRANCH  29  32
ATOM     32  N   UNL     1       0.669 -11.195  -1.699  0.00  0.00    -0.204 NA
ATOM     33  H   UNL     1       1.091 -10.687  -2.409  0.00  0.00    +0.144 HD
ATOM     34  H   UNL     1       0.057 -11.916  -1.916  0.00  0.00    +0.144 HD
ENDBRANCH  29  32
ENDBRANCH  26  29
ENDBRANCH  22  23
ENDBRANCH   7  21
TORSDOF 5
