REMARK  Name = ZINC52069051
REMARK  5 active torsions:
REMARK  status: ('A' for Active; 'I' for Inactive)
REMARK    1  A    between atoms: C_1  and  C_2
REMARK    2  A    between atoms: C_2  and  C_3
REMARK    3  A    between atoms: C_2  and  C_4
REMARK    4  A    between atoms: C_2  and  N_5
REMARK    5  A    between atoms: N_8  and  C_9
REMARK                            x       y       z     vdW  Elec       q    Type
REMARK                         _______ _______ _______ _____ _____    ______ ____
ROOT
ATOM      1  N   UNL     1       0.611  -1.008  -1.242  0.00  0.00    -0.353 N 
ATOM      2  C   UNL     1       1.873  -0.707  -1.366  0.00  0.00    +0.174 C 
ATOM      3  N   UNL     1       2.619  -0.400  -0.252  0.00  0.00    -0.371 N 
ATOM      4  N   UNL     1       2.460  -0.696  -2.611  0.00  0.00    -0.328 N 
ATOM      5  H   UNL     1       0.062  -1.130  -2.032  0.00  0.00    +0.163 HD
ATOM      6  H   UNL     1       2.231  -0.490   0.632  0.00  0.00    +0.159 HD
ATOM      7  H   UNL     1       3.534  -0.092  -0.350  0.00  0.00    +0.159 HD
ATOM      8  H   UNL     1       1.917  -0.825  -3.404  0.00  0.00    +0.169 HD
ENDROOT
BRANCH   4   9
ATOM      9  C   UNL     1       3.840  -0.499  -2.733  0.00  0.00    +0.042 A 
ATOM     10  C   UNL     1       4.709  -1.084  -1.821  0.00  0.00    +0.027 A 
ATOM     11  C   UNL     1       6.071  -0.888  -1.944  0.00  0.00    +0.016 A 
ATOM     12  C   UNL     1       6.569  -0.110  -2.974  0.00  0.00    +0.014 A 
ATOM     13  C   UNL     1       5.705   0.474  -3.883  0.00  0.00    +0.016 A 
ATOM     14  C   UNL     1       4.343   0.277  -3.769  0.00  0.00    +0.027 A 
ATOM     15  I   UNL     1       8.635   0.185  -3.156  0.00  0.00    -0.044 I 
ENDBRANCH   4   9
BRANCH   1  17
ATOM     16  C   UNL     1       0.089   0.174   0.835  0.00  0.00    +0.033 C 
ATOM     17  C   UNL     1       0.022  -1.161   0.090  0.00  0.00    +0.033 C 
ATOM     18  C   UNL     1       0.800  -2.221   0.873  0.00  0.00    +0.033 C 
ATOM     19  C   UNL     1      -1.438  -1.597  -0.045  0.00  0.00    +0.033 C 
ENDBRANCH   1  17
TORSDOF 2
