REMARK  Name = ZINC24338963
REMARK  10 active torsions:
REMARK  status: ('A' for Active; 'I' for Inactive)
REMARK    1  A    between atoms: C_1  and  C_2
REMARK    2  A    between atoms: C_5  and  C_38
REMARK    3  A    between atoms: C_10  and  C_12
REMARK    4  A    between atoms: C_12  and  N_13
REMARK    5  A    between atoms: N_16  and  C_19
REMARK    6  A    between atoms: C_19  and  C_21
REMARK    7  A    between atoms: C_19  and  C_22
REMARK    8  A    between atoms: N_24  and  C_25
REMARK    9  A    between atoms: C_30  and  S_31
REMARK   10  A    between atoms: S_31  and  C_32
REMARK                            x       y       z     vdW  Elec       q    Type
REMARK                         _______ _______ _______ _____ _____    ______ ____
ROOT
ATOM      1  C   UNL     1      -0.569   3.884  -1.606  0.00  0.00    +0.017 C 
ATOM      2  C   UNL     1      -1.936   3.433  -2.125  0.00  0.00    -0.004 C 
ENDROOT
BRANCH   1   6
ATOM      3  N   UNL     1      -0.824   1.462   1.846  0.00  0.00    -0.298 NA
ATOM      4  C   UNL     1       0.275   1.207   0.905  0.00  0.00    +0.066 C 
ATOM      5  C   UNL     1      -0.072   1.811  -0.458  0.00  0.00    -0.062 C 
ATOM      6  N   UNL     1      -0.307   3.253  -0.305  0.00  0.00    +0.389 N 
ATOM      7  C   UNL     1      -1.407   3.509   0.635  0.00  0.00    -0.062 C 
ATOM      8  C   UNL     1      -1.059   2.905   1.998  0.00  0.00    +0.066 C 
ATOM      9  H   UNL     1       0.607   3.704   0.110  0.00  0.00    -0.081 HD
BRANCH   3  10
ATOM     10  C   UNL     1      -0.561   0.831   3.147  0.00  0.00    +0.180 C 
BRANCH  10  18
ATOM     11  C   UNL     1      -0.296  -1.003   7.785  0.00  0.00    +0.009 C 
ATOM     12  C   UNL     1      -0.740  -1.503   6.409  0.00  0.00    +0.004 C 
ATOM     13  C   UNL     1      -0.596  -3.025   6.348  0.00  0.00    +0.009 C 
ATOM     14  C   UNL     1      -1.071  -3.530   4.983  0.00  0.00    +0.004 C 
ATOM     15  C   UNL     1      -0.197  -2.917   3.884  0.00  0.00    +0.111 C 
ATOM     16  N   UNL     1      -0.215  -1.454   4.027  0.00  0.00    -0.300 N 
ATOM     17  C   UNL     1       0.143  -0.867   5.325  0.00  0.00    +0.111 C 
ATOM     18  C   UNL     1      -0.547  -0.667   2.985  0.00  0.00    +0.230 C 
ATOM     19  O   UNL     1      -0.836  -1.164   1.917  0.00  0.00    -0.274 OA
ATOM     20  C   UNL     1      -2.528  -3.119   4.766  0.00  0.00    +0.009 C 
ENDBRANCH  10  18
ENDBRANCH   3  10
ENDBRANCH   1   6
BRANCH   1  21
ATOM     21  C   UNL     1      -0.561   5.383  -1.448  0.00  0.00    +0.203 C 
ATOM     22  O   UNL     1      -0.357   5.877  -0.359  0.00  0.00    -0.277 OA
ATOM     23  N   UNL     1      -0.781   6.174  -2.517  0.00  0.00    -0.286 N 
ATOM     24  H   UNL     1      -0.878   5.731  -3.518  0.00  0.00    +0.155 HD
BRANCH  23  25
ATOM     25  C   UNL     1      -0.885   7.562  -2.351  0.00  0.00    +0.047 A 
ATOM     26  C   UNL     1      -1.174   8.094  -1.104  0.00  0.00    +0.024 A 
ATOM     27  C   UNL     1      -1.271   9.463  -0.942  0.00  0.00    +0.002 A 
ATOM     28  C   UNL     1      -1.092  10.306  -2.023  0.00  0.00    +0.001 A 
ATOM     29  C   UNL     1      -0.810   9.785  -3.272  0.00  0.00    +0.017 A 
ATOM     30  C   UNL     1      -0.705   8.412  -3.443  0.00  0.00    +0.034 A 
BRANCH  30  31
ATOM     31  S   UNL     1      -0.346   7.744  -5.033  0.00  0.00    -0.088 S 
BRANCH  31  32
ATOM     32  C   UNL     1      -0.053   9.164  -6.035  0.00  0.00    +0.013 A 
ATOM     33  C   UNL     1      -1.084   9.705  -6.794  0.00  0.00    +0.015 A 
ATOM     34  C   UNL     1      -0.852  10.820  -7.574  0.00  0.00    +0.001 A 
ATOM     35  C   UNL     1       0.407  11.393  -7.609  0.00  0.00    +0.000 A 
ATOM     36  C   UNL     1       1.436  10.853  -6.859  0.00  0.00    +0.001 A 
ATOM     37  C   UNL     1       1.211   9.741  -6.073  0.00  0.00    +0.015 A 
ENDBRANCH  31  32
ENDBRANCH  30  31
ENDBRANCH  23  25
ENDBRANCH   1  21
TORSDOF 7
