REMARK  Name = ZINC40674597
REMARK  9 active torsions:
REMARK  status: ('A' for Active; 'I' for Inactive)
REMARK    1  A    between atoms: C_1  and  C_2
REMARK    2  A    between atoms: C_2  and  O_3
REMARK    3  A    between atoms: O_3  and  C_4
REMARK    4  A    between atoms: C_5  and  C_12
REMARK    5  A    between atoms: C_12  and  N_13
REMARK    6  A    between atoms: N_13  and  C_14
REMARK    7  A    between atoms: C_14  and  C_15
REMARK    8  A    between atoms: C_14  and  C_16
REMARK    9  A    between atoms: C_14  and  C_17
REMARK                            x       y       z     vdW  Elec       q    Type
REMARK                         _______ _______ _______ _____ _____    ______ ____
ROOT
ATOM      1  C   UNL     1      -1.405  -1.983  -2.390  0.00  0.00    -0.042 C 
ENDROOT
BRANCH   1   3
ATOM      2  C   UNL     1      -1.366  -1.681   0.099  0.00  0.00    +0.136 A 
ATOM      3  C   UNL     1      -1.536  -2.524  -0.990  0.00  0.00    -0.021 A 
ATOM      4  C   UNL     1      -1.826  -3.860  -0.789  0.00  0.00    +0.020 A 
ATOM      5  C   UNL     1      -1.947  -4.357   0.496  0.00  0.00    +0.019 A 
ATOM      6  C   UNL     1      -1.778  -3.519   1.583  0.00  0.00    +0.034 A 
ATOM      7  C   UNL     1      -1.482  -2.183   1.387  0.00  0.00    +0.061 A 
ATOM      8 BR   UNL     1      -1.242  -1.039   2.874  0.00  0.00    -0.046 Br
ATOM      9 BR   UNL     1      -2.344  -6.186   0.767  0.00  0.00    -0.050 Br
BRANCH   2  10
ATOM     10  O   UNL     1      -1.080  -0.367  -0.097  0.00  0.00    -0.491 OA
BRANCH  10  12
ATOM     11  C   UNL     1      -1.667   1.972  -0.252  0.00  0.00    +0.048 C 
ATOM     12  C   UNL     1      -2.186   0.537  -0.149  0.00  0.00    +0.226 C 
ENDBRANCH  10  12
ENDBRANCH   2  10
ENDBRANCH   1   3
BRANCH   1  13
ATOM     13  N   UNL     1       0.017  -1.819  -2.721  0.00  0.00    +0.391 N 
ATOM     14  H   UNL     1       0.440  -1.169  -2.076  0.00  0.00    -0.084 HD
ATOM     15  H   UNL     1       0.483  -2.712  -2.653  0.00  0.00    -0.084 HD
BRANCH  13  16
ATOM     16  C   UNL     1       0.144  -1.304  -4.090  0.00  0.00    +0.004 C 
ATOM     17  C   UNL     1      -0.497  -2.290  -5.069  0.00  0.00    -0.001 C 
ATOM     18  C   UNL     1      -0.562   0.050  -4.193  0.00  0.00    -0.001 C 
BRANCH  16  19
ATOM     19  C   UNL     1       1.603  -1.136  -4.430  0.00  0.00    +0.199 C 
ATOM     20  O   UNL     1       1.991  -1.345  -5.560  0.00  0.00    -0.278 OA
ATOM     21  N   UNL     1       2.477  -0.752  -3.478  0.00  0.00    -0.330 N 
ATOM     22  H   UNL     1       2.167  -0.585  -2.574  0.00  0.00    +0.145 HD
ATOM     23  H   UNL     1       3.416  -0.644  -3.696  0.00  0.00    +0.145 HD
ENDBRANCH  16  19
ENDBRANCH  13  16
ENDBRANCH   1  13
TORSDOF 6
