REMARK  Name = ZINC41641931
REMARK  9 active torsions:
REMARK  status: ('A' for Active; 'I' for Inactive)
REMARK    1  A    between atoms: C_2  and  C_3
REMARK    2  A    between atoms: C_3  and  O_4
REMARK    3  A    between atoms: O_4  and  C_5
REMARK    4  A    between atoms: C_10  and  C_11
REMARK    5  A    between atoms: C_11  and  N_12
REMARK    6  A    between atoms: N_12  and  C_13
REMARK    7  A    between atoms: C_13  and  C_14
REMARK    8  A    between atoms: C_14  and  S_15
REMARK    9  A    between atoms: S_15  and  N_18
REMARK                            x       y       z     vdW  Elec       q    Type
REMARK                         _______ _______ _______ _____ _____    ______ ____
ROOT
ATOM      1  C   UNL     1       3.965   2.961  -0.019  0.00  0.00    -0.043 C 
ENDROOT
BRANCH   1   7
ATOM      2  C   UNL     1       1.482   3.312   0.006  0.00  0.00    +0.123 A 
ATOM      3  C   UNL     1       0.372   4.143   0.026  0.00  0.00    +0.047 A 
ATOM      4  C   UNL     1       0.536   5.514   0.032  0.00  0.00    +0.019 A 
ATOM      5  C   UNL     1       1.808   6.060   0.017  0.00  0.00    +0.018 A 
ATOM      6  C   UNL     1       2.917   5.233  -0.004  0.00  0.00    +0.020 A 
ATOM      7  C   UNL     1       2.756   3.861  -0.004  0.00  0.00    -0.022 A 
ATOM      8 BR   UNL     1       2.030   7.938   0.025  0.00  0.00    -0.050 Br
BRANCH   2   9
ATOM      9  O   UNL     1       1.323   1.962   0.000  0.00  0.00    -0.479 OA
BRANCH   9  10
ATOM     10  C   UNL     1      -0.018   1.468   0.010  0.00  0.00    +0.317 C 
BRANCH  10  12
ATOM     11  C   UNL     1       0.018  -1.178  -0.004  0.00  0.00    +0.007 C 
ATOM     12  C   UNL     1       0.002  -0.004   0.002  0.00  0.00    -0.065 C 
ENDBRANCH  10  12
ENDBRANCH   9  10
ENDBRANCH   2   9
ENDBRANCH   1   7
BRANCH   1  13
ATOM     13  N   UNL     1       4.201   2.482  -1.388  0.00  0.00    +0.383 N 
ATOM     14  H   UNL     1       3.394   1.968  -1.708  0.00  0.00    -0.085 HD
ATOM     15  H   UNL     1       4.361   3.270  -1.997  0.00  0.00    -0.085 HD
BRANCH  13  16
ATOM     16  C   UNL     1       5.379   1.604  -1.403  0.00  0.00    -0.058 C 
BRANCH  16  17
ATOM     17  C   UNL     1       5.625   1.106  -2.829  0.00  0.00    +0.166 C 
BRANCH  17  18
ATOM     18  S   UNL     1       7.080   0.022  -2.848  0.00  0.00    +0.025 S 
ATOM     19  O   UNL     1       8.254   0.774  -2.572  0.00  0.00    -0.158 OA
ATOM     20  O   UNL     1       6.805  -1.178  -2.139  0.00  0.00    -0.158 OA
BRANCH  18  21
ATOM     21  N   UNL     1       7.240  -0.447  -4.428  0.00  0.00    -0.208 NA
ATOM     22  H   UNL     1       8.119  -0.647  -4.787  0.00  0.00    +0.144 HD
ATOM     23  H   UNL     1       6.456  -0.522  -4.994  0.00  0.00    +0.144 HD
ENDBRANCH  18  21
ENDBRANCH  17  18
ENDBRANCH  16  17
ENDBRANCH  13  16
ENDBRANCH   1  13
TORSDOF 9
