REMARK  Name = ZINC47683902
REMARK  11 active torsions:
REMARK  status: ('A' for Active; 'I' for Inactive)
REMARK    1  A    between atoms: C_1  and  C_2
REMARK    2  A    between atoms: C_2  and  C_3
REMARK    3  A    between atoms: C_2  and  N_4
REMARK    4  A    between atoms: N_4  and  C_5
REMARK    5  A    between atoms: N_4  and  C_23
REMARK    6  A    between atoms: C_5  and  C_6
REMARK    7  A    between atoms: C_6  and  N_7
REMARK    8  A    between atoms: N_10  and  C_11
REMARK    9  A    between atoms: C_16  and  C_19
REMARK   10  A    between atoms: C_23  and  C_24
REMARK   11  A    between atoms: C_23  and  C_25
REMARK                            x       y       z     vdW  Elec       q    Type
REMARK                         _______ _______ _______ _____ _____    ______ ____
ROOT
ATOM      1  N   UNL     1      -3.042   2.023  -2.231  0.00  0.00    -0.301 N 
ATOM      2  C   UNL     1      -3.288   3.337  -2.405  0.00  0.00    +0.300 C 
ATOM      3  O   UNL     1      -2.849   4.148  -1.613  0.00  0.00    -0.253 OA
ATOM      4  N   UNL     1      -4.021   3.751  -3.458  0.00  0.00    -0.297 N 
ATOM      5  H   UNL     1      -3.392   1.376  -2.863  0.00  0.00    +0.150 HD
ATOM      6  H   UNL     1      -4.372   3.104  -4.090  0.00  0.00    +0.151 HD
ENDROOT
BRANCH   4   7
ATOM      7  C   UNL     1      -4.289   5.179  -3.647  0.00  0.00    +0.075 C 
ATOM      8  C   UNL     1      -5.513   5.582  -2.822  0.00  0.00    +0.022 C 
ATOM      9  C   UNL     1      -5.793   7.073  -3.020  0.00  0.00    +0.002 C 
ATOM     10  C   UNL     1      -6.062   7.350  -4.500  0.00  0.00    +0.012 C 
ATOM     11  C   UNL     1      -4.837   6.947  -5.325  0.00  0.00    +0.095 C 
ATOM     12  C   UNL     1      -4.558   5.456  -5.127  0.00  0.00    +0.034 C 
BRANCH  11  13
ATOM     13  C   UNL     1      -5.106   7.223  -6.806  0.00  0.00    +0.393 C 
ATOM     14  F   UNL     1      -5.362   8.587  -6.986  0.00  0.00    -0.170 F 
ATOM     15  F   UNL     1      -3.986   6.855  -7.559  0.00  0.00    -0.170 F 
ATOM     16  F   UNL     1      -6.215   6.481  -7.225  0.00  0.00    -0.170 F 
ENDBRANCH  11  13
ENDBRANCH   4   7
BRANCH   1  17
ATOM     17  C   UNL     1      -2.245   1.573  -1.087  0.00  0.00    +0.087 C 
BRANCH  17  18
ATOM     18  C   UNL     1      -2.116   0.048  -1.124  0.00  0.00    -0.059 C 
BRANCH  18  19
ATOM     19  N   UNL     1      -1.448  -0.416   0.099  0.00  0.00    +0.384 N 
ATOM     20  H   UNL     1      -1.932  -0.052   0.905  0.00  0.00    -0.081 HD
BRANCH  19  22
ATOM     21  C   UNL     1       0.438   0.208  -1.333  0.00  0.00    -0.014 C 
ATOM     22  C   UNL     1      -0.057   0.057   0.107  0.00  0.00    -0.074 C 
ATOM     23  C   UNL     1       0.017   1.410   0.817  0.00  0.00    -0.014 C 
ENDBRANCH  19  22
BRANCH  19  24
ATOM     24  C   UNL     1      -1.466  -1.885   0.139  0.00  0.00    -0.074 C 
ATOM     25  C   UNL     1      -0.882  -2.366   1.469  0.00  0.00    -0.014 C 
ATOM     26  C   UNL     1      -2.907  -2.381   0.005  0.00  0.00    -0.014 C 
ENDBRANCH  19  24
ENDBRANCH  18  19
ENDBRANCH  17  18
ENDBRANCH   1  17
TORSDOF 7
