REMARK  Name = ZINC08701708
REMARK  4 active torsions:
REMARK  status: ('A' for Active; 'I' for Inactive)
REMARK    1  A    between atoms: C_8  and  N_11
REMARK    2  A    between atoms: N_11  and  N_12
REMARK    3  A    between atoms: N_25  and  C_26
REMARK    4  A    between atoms: C_29  and  N_32
REMARK                            x       y       z     vdW  Elec       q    Type
REMARK                         _______ _______ _______ _____ _____    ______ ____
ROOT
ATOM      1  N   UNL     1      -0.649  -2.995  -0.647  0.00  0.00    -0.234 N 
ATOM      2  C   UNL     1      -1.488  -4.050  -0.349  0.00  0.00    +0.238 A 
ATOM      3  N   UNL     1      -0.987  -5.269  -0.175  0.00  0.00    -0.180 NA
ATOM      4  C   UNL     1      -1.794  -6.285   0.113  0.00  0.00    +0.225 A 
ATOM      5  N   UNL     1      -3.103  -6.082   0.227  0.00  0.00    -0.181 NA
ATOM      6  C   UNL     1      -3.604  -4.863   0.053  0.00  0.00    +0.224 A 
ATOM      7  N   UNL     1      -2.796  -3.846  -0.230  0.00  0.00    -0.180 NA
ATOM      8  N   UNL     1      -4.963  -4.653   0.170  0.00  0.00    -0.295 N 
ATOM      9  C   UNL     1      -5.876  -5.760   0.494  0.00  0.00    +0.136 C 
ATOM     10  C   UNL     1      -6.765  -5.328   1.665  0.00  0.00    +0.179 C 
ATOM     11  O   UNL     1      -7.375  -4.072   1.355  0.00  0.00    -0.377 OA
ATOM     12  C   UNL     1      -6.447  -3.000   1.173  0.00  0.00    +0.179 C 
ATOM     13  C   UNL     1      -5.541  -3.312  -0.018  0.00  0.00    +0.136 C 
ATOM     14  N   UNL     1      -1.273  -7.552   0.294  0.00  0.00    -0.283 N 
ATOM     15  H   UNL     1      -1.014  -2.105  -0.770  0.00  0.00    +0.173 HD
ATOM     16  H   UNL     1      -1.868  -8.306   0.428  0.00  0.00    +0.155 HD
ENDROOT
BRANCH  14  17
ATOM     17  C   UNL     1       0.112  -7.746   0.285  0.00  0.00    +0.034 A 
ATOM     18  C   UNL     1       0.955  -6.768   0.795  0.00  0.00    +0.025 A 
ATOM     19  C   UNL     1       2.322  -6.963   0.784  0.00  0.00    +0.034 A 
ATOM     20  C   UNL     1       2.852  -8.131   0.266  0.00  0.00    +0.126 A 
ATOM     21  C   UNL     1       2.014  -9.107  -0.243  0.00  0.00    +0.034 A 
ATOM     22  C   UNL     1       0.646  -8.921  -0.230  0.00  0.00    +0.025 A 
BRANCH  20  23
ATOM     23  N   UNL     1       4.317  -8.337   0.255  0.00  0.00    +0.056 N 
ATOM     24  O   UNL     1       5.051  -7.484   0.699  0.00  0.00    -0.126 OA
ATOM     25  O   UNL     1       4.781  -9.357  -0.197  0.00  0.00    -0.126 OA
ENDBRANCH  20  23
ENDBRANCH  14  17
BRANCH   1  26
ATOM     26  N   UNL     1       0.730  -3.210  -0.772  0.00  0.00    -0.259 N 
ATOM     27  H   UNL     1       1.106  -4.080  -0.563  0.00  0.00    +0.170 HD
BRANCH  26  35
ATOM     28  C   UNL     1      -0.161   0.978  -2.295  0.00  0.00    +0.001 A 
ATOM     29  C   UNL     1       1.005   1.661  -2.605  0.00  0.00    +0.002 A 
ATOM     30  C   UNL     1       2.244   1.064  -2.439  0.00  0.00    +0.024 A 
ATOM     31  C   UNL     1       2.333  -0.239  -1.957  0.00  0.00    +0.043 A 
ATOM     32  N   UNL     1       3.408  -1.041  -1.708  0.00  0.00    -0.280 N 
ATOM     33  C   UNL     1       3.028  -2.221  -1.250  0.00  0.00    +0.264 C 
ATOM     34  O   UNL     1       3.762  -3.142  -0.941  0.00  0.00    -0.268 OA
ATOM     35  C   UNL     1       1.525  -2.219  -1.180  0.00  0.00    +0.116 C 
ATOM     36  C   UNL     1       1.139  -0.937  -1.640  0.00  0.00    +0.024 A 
ATOM     37  C   UNL     1      -0.104  -0.315  -1.815  0.00  0.00    +0.012 A 
ATOM     38  H   UNL     1       4.331  -0.780  -1.850  0.00  0.00    +0.155 HD
ENDBRANCH  26  35
ENDBRANCH   1  26
TORSDOF 4
