REMARK  Name = ZINC39533645
REMARK  9 active torsions:
REMARK  status: ('A' for Active; 'I' for Inactive)
REMARK    1  A    between atoms: C_1  and  O_2
REMARK    2  A    between atoms: O_2  and  N_3
REMARK    3  A    between atoms: N_3  and  C_4
REMARK    4  A    between atoms: C_4  and  C_5
REMARK    5  A    between atoms: C_5  and  C_7
REMARK    6  A    between atoms: C_5  and  N_19
REMARK    7  A    between atoms: C_10  and  C_13
REMARK    8  A    between atoms: C_23  and  C_26
REMARK    9  A    between atoms: C_31  and  O_32
REMARK                            x       y       z     vdW  Elec       q    Type
REMARK                         _______ _______ _______ _____ _____    ______ ____
ROOT
ATOM      1  C   UNL     1       1.240  -2.621  -2.397  0.00  0.00    +0.103 C 
ENDROOT
BRANCH   1   2
ATOM      2  N   UNL     1       2.619  -2.137  -2.545  0.00  0.00    -0.297 NA
ATOM      3  C   UNL     1       3.231  -1.881  -1.233  0.00  0.00    +0.066 C 
ATOM      4  C   UNL     1       4.682  -1.438  -1.427  0.00  0.00    -0.066 C 
ATOM      5  N   UNL     1       4.716  -0.220  -2.248  0.00  0.00    +0.385 N 
ATOM      6  C   UNL     1       4.125  -0.498  -3.564  0.00  0.00    -0.023 C 
ATOM      7  C   UNL     1       2.669  -0.934  -3.387  0.00  0.00    +0.074 C 
ATOM      8  H   UNL     1       4.190   0.509  -1.791  0.00  0.00    -0.085 HD
ATOM      9  H   UNL     1       5.673   0.079  -2.366  0.00  0.00    -0.085 HD
BRANCH   6  10
ATOM     10  C   UNL     1       4.177   0.747  -4.411  0.00  0.00    -0.019 A 
ATOM     11  C   UNL     1       4.333   1.983  -3.815  0.00  0.00    +0.005 A 
ATOM     12  C   UNL     1       4.380   3.126  -4.591  0.00  0.00    +0.000 A 
ATOM     13  C   UNL     1       4.272   3.035  -5.967  0.00  0.00    +0.004 A 
ATOM     14  C   UNL     1       4.117   1.801  -6.568  0.00  0.00    +0.045 A 
ATOM     15  C   UNL     1       4.074   0.652  -5.791  0.00  0.00    +0.118 A 
BRANCH  15  16
ATOM     16  O   UNL     1       3.927  -0.563  -6.381  0.00  0.00    -0.507 OA
ATOM     17  H   UNL     1       3.006  -0.838  -6.492  0.00  0.00    +0.292 HD
ENDBRANCH  15  16
ENDBRANCH   6  10
ENDBRANCH   1   2
BRANCH   1  18
ATOM     18  C   UNL     1       1.241  -4.126  -2.323  0.00  0.00    -0.029 A 
ATOM     19  C   UNL     1       2.162  -4.776  -1.521  0.00  0.00    +0.006 A 
ATOM     20  C   UNL     1       2.167  -6.154  -1.449  0.00  0.00    +0.009 A 
ATOM     21  C   UNL     1       1.242  -6.891  -2.187  0.00  0.00    -0.018 A 
ATOM     22  C   UNL     1       0.317  -6.231  -2.993  0.00  0.00    +0.009 A 
ATOM     23  C   UNL     1       0.317  -4.852  -3.053  0.00  0.00    +0.006 A 
BRANCH  21  24
ATOM     24  C   UNL     1       1.243  -8.373  -2.114  0.00  0.00    -0.018 A 
ATOM     25  C   UNL     1       2.165  -9.033  -1.303  0.00  0.00    +0.008 A 
ATOM     26  C   UNL     1       2.161 -10.412  -1.239  0.00  0.00    +0.001 A 
ATOM     27  C   UNL     1       1.244 -11.138  -1.978  0.00  0.00    +0.000 A 
ATOM     28  C   UNL     1       0.328 -10.489  -2.784  0.00  0.00    +0.001 A 
ATOM     29  C   UNL     1       0.319  -9.110  -2.851  0.00  0.00    +0.008 A 
ENDBRANCH  21  24
ENDBRANCH   1  18
BRANCH   1  30
ATOM     30  C   UNL     1       0.633  -2.047  -1.116  0.00  0.00    +0.134 C 
BRANCH  30  31
ATOM     31  N   UNL     1       0.569  -0.583  -1.217  0.00  0.00    -0.200 NA
ATOM     32  H   UNL     1       1.491  -0.188  -1.325  0.00  0.00    +0.154 HD
BRANCH  31  34
ATOM     33  C   UNL     1      -0.213   1.418  -0.092  0.00  0.00    +0.221 C 
ATOM     34  O   UNL     1      -0.115  -0.007  -0.059  0.00  0.00    -0.303 OA
ENDBRANCH  31  34
ENDBRANCH  30  31
ENDBRANCH   1  30
TORSDOF 8
