REMARK  Name = ZINC37634333
REMARK  4 active torsions:
REMARK  status: ('A' for Active; 'I' for Inactive)
REMARK    1  A    between atoms: C_2  and  C_3
REMARK    2  A    between atoms: C_9  and  C_11
REMARK    3  A    between atoms: C_11  and  C_12
REMARK    4  A    between atoms: C_12  and  C_13
REMARK                            x       y       z     vdW  Elec       q    Type
REMARK                         _______ _______ _______ _____ _____    ______ ____
ROOT
ATOM      1  C   UNL     1      -1.297  -0.774   0.015  0.00  0.00    +0.032 C 
ATOM      2  C   UNL     1      -1.353  -1.668   1.258  0.00  0.00    +0.117 C 
ATOM      3  N   UNL     1      -0.292  -2.680   1.160  0.00  0.00    -0.285 N 
ATOM      4  C   UNL     1      -0.219  -3.514  -0.047  0.00  0.00    +0.109 C 
ATOM      5  C   UNL     1      -0.176  -2.599  -1.276  0.00  0.00    +0.023 C 
ATOM      6  C   UNL     1      -1.374  -1.647  -1.240  0.00  0.00    -0.001 C 
ATOM      7  C   UNL     1       0.598  -2.840   2.160  0.00  0.00    +0.300 C 
ATOM      8  O   UNL     1       0.588  -2.083   3.111  0.00  0.00    -0.253 OA
ATOM      9  N   UNL     1       1.500  -3.840   2.105  0.00  0.00    -0.313 N 
ATOM     10  H   UNL     1       1.556  -4.400   1.315  0.00  0.00    +0.146 HD
ATOM     11  H   UNL     1       2.093  -4.001   2.857  0.00  0.00    +0.146 HD
ENDROOT
BRANCH   1  13
ATOM     12  C   UNL     1      -0.026   1.310   0.021  0.00  0.00    +0.004 C 
ATOM     13  C   UNL     1      -0.004   0.001   0.010  0.00  0.00    -0.029 C 
ENDBRANCH   1  13
BRANCH   6  14
ATOM     14  C   UNL     1      -1.354  -0.754  -2.483  0.00  0.00    +0.015 C 
BRANCH  14  15
ATOM     15  C   UNL     1      -1.556  -1.615  -3.732  0.00  0.00    +0.125 C 
BRANCH  15  16
ATOM     16  C   UNL     1      -1.537  -0.736  -4.956  0.00  0.00    +0.356 C 
ATOM     17  O   UNL     1      -1.376   0.467  -4.840  0.00  0.00    -0.246 OA
ATOM     18  O   UNL     1      -1.682  -1.228  -6.062  0.00  0.00    -0.246 OA
ENDBRANCH  15  16
ENDBRANCH  14  15
ENDBRANCH   6  14
TORSDOF 4
