REMARK  Name = ZINC66993278
REMARK  8 active torsions:
REMARK  status: ('A' for Active; 'I' for Inactive)
REMARK    1  A    between atoms: C_1  and  C_2
REMARK    2  A    between atoms: C_5  and  C_8
REMARK    3  A    between atoms: C_13  and  N_16
REMARK    4  A    between atoms: N_16  and  C_17
REMARK    5  A    between atoms: C_17  and  C_18
REMARK    6  A    between atoms: C_21  and  O_24
REMARK    7  A    between atoms: O_24  and  C_25
REMARK    8  A    between atoms: C_25  and  C_26
REMARK                            x       y       z     vdW  Elec       q    Type
REMARK                         _______ _______ _______ _____ _____    ______ ____
ROOT
ATOM      1  N   UNL     1       1.901  -6.699   4.421  0.00  0.00    +0.384 N 
ATOM      2  H   UNL     1       2.815  -6.511   4.035  0.00  0.00    -0.085 HD
ATOM      3  H   UNL     1       1.803  -6.218   5.302  0.00  0.00    -0.085 HD
ENDROOT
BRANCH   1   9
ATOM      4  C   UNL     1       0.059  -4.251  -0.021  0.00  0.00    +0.247 C 
ATOM      5  O   UNL     1       0.150  -3.039  -0.013  0.00  0.00    -0.270 OA
ATOM      6  N   UNL     1      -0.028  -4.929   1.140  0.00  0.00    -0.298 N 
ATOM      7  C   UNL     1      -0.149  -4.213   2.418  0.00  0.00    +0.106 C 
ATOM      8  C   UNL     1       0.951  -4.704   3.364  0.00  0.00    +0.003 C 
ATOM      9  C   UNL     1       0.869  -6.227   3.488  0.00  0.00    -0.068 C 
ATOM     10  C   UNL     1       1.094  -6.865   2.115  0.00  0.00    +0.003 C 
ATOM     11  C   UNL     1      -0.010  -6.398   1.153  0.00  0.00    +0.106 C 
BRANCH   4  16
ATOM     12  C   UNL     1       0.000  -7.097  -5.023  0.00  0.00    +0.044 C 
ATOM     13  C   UNL     1       0.015  -6.352  -3.713  0.00  0.00    -0.050 A 
ATOM     14  C   UNL     1       0.886  -5.291  -3.534  0.00  0.00    +0.004 A 
ATOM     15  C   UNL     1       0.905  -4.604  -2.338  0.00  0.00    +0.013 A 
ATOM     16  C   UNL     1       0.044  -4.982  -1.306  0.00  0.00    +0.037 A 
ATOM     17  C   UNL     1      -0.832  -6.053  -1.493  0.00  0.00    +0.013 A 
ATOM     18  C   UNL     1      -0.845  -6.728  -2.697  0.00  0.00    +0.004 A 
ENDBRANCH   4  16
ENDBRANCH   1   9
BRANCH   1  19
ATOM     19  C   UNL     1       1.747  -8.144   4.632  0.00  0.00    -0.046 C 
BRANCH  19  20
ATOM     20  C   UNL     1       2.806  -8.628   5.589  0.00  0.00    -0.064 A 
ATOM     21  C   UNL     1       4.028  -9.057   5.106  0.00  0.00    +0.005 A 
ATOM     22  C   UNL     1       5.000  -9.501   5.982  0.00  0.00    +0.046 A 
ATOM     23  C   UNL     1       4.749  -9.516   7.346  0.00  0.00    +0.121 A 
ATOM     24  C   UNL     1       3.522  -9.085   7.828  0.00  0.00    +0.046 A 
ATOM     25  C   UNL     1       2.555  -8.636   6.949  0.00  0.00    +0.005 A 
BRANCH  23  26
ATOM     26  O   UNL     1       5.704  -9.953   8.209  0.00  0.00    -0.483 OA
BRANCH  26  27
ATOM     27  C   UNL     1       5.375  -9.941   9.600  0.00  0.00    +0.324 C 
BRANCH  27  28
ATOM     28  C   UNL     1       6.546 -10.455  10.397  0.00  0.00    +0.248 C 
ATOM     29  O   UNL     1       7.562 -10.799   9.830  0.00  0.00    -0.272 OA
ATOM     30  N   UNL     1       6.465 -10.534  11.740  0.00  0.00    -0.327 N 
ATOM     31  H   UNL     1       5.653 -10.259  12.194  0.00  0.00    +0.145 HD
ATOM     32  H   UNL     1       7.219 -10.865  12.253  0.00  0.00    +0.145 HD
ENDBRANCH  27  28
ENDBRANCH  26  27
ENDBRANCH  23  26
ENDBRANCH  19  20
ENDBRANCH   1  19
TORSDOF 7
