REMARK  Name = ZINC50361431
REMARK  7 active torsions:
REMARK  status: ('A' for Active; 'I' for Inactive)
REMARK    1  A    between atoms: C_2  and  C_8
REMARK    2  A    between atoms: C_8  and  N_9
REMARK    3  A    between atoms: N_9  and  C_10
REMARK    4  A    between atoms: C_10  and  C_11
REMARK    5  A    between atoms: C_11  and  C_12
REMARK    6  A    between atoms: C_12  and  S_13
REMARK    7  A    between atoms: S_13  and  N_16
REMARK                            x       y       z     vdW  Elec       q    Type
REMARK                         _______ _______ _______ _____ _____    ______ ____
ROOT
ATOM      1  N   UNL     1       1.899   3.708   1.388  0.00  0.00    +0.384 N 
ATOM      2  H   UNL     1       1.016   3.643   1.872  0.00  0.00    -0.085 HD
ATOM      3  H   UNL     1       2.582   3.130   1.855  0.00  0.00    -0.085 HD
ENDROOT
BRANCH   1   4
ATOM      4  C   UNL     1       1.734   3.250   0.003  0.00  0.00    -0.007 C 
BRANCH   4   6
ATOM      5  C   UNL     1      -0.017   1.410   0.010  0.00  0.00    +0.059 A 
ATOM      6  C   UNL     1       1.265   1.818  -0.000  0.00  0.00    +0.091 A 
ATOM      7  O   UNL     1       2.056   0.732  -0.014  0.00  0.00    -0.454 OA
ATOM      8  C   UNL     1       1.296  -0.376  -0.012  0.00  0.00    +0.184 A 
ATOM      9  C   UNL     1       0.002  -0.004   0.002  0.00  0.00    +0.070 A 
ATOM     10 BR   UNL     1      -1.501  -1.152   0.011  0.00  0.00    -0.046 Br
ATOM     11 BR   UNL     1       1.936  -2.156  -0.029  0.00  0.00    -0.007 Br
ENDBRANCH   4   6
ENDBRANCH   1   4
BRANCH   1  12
ATOM     12  C   UNL     1       2.357   5.104   1.391  0.00  0.00    -0.080 C 
BRANCH  12  13
ATOM     13  C   UNL     1       2.529   5.582   2.834  0.00  0.00    +0.005 C 
BRANCH  13  14
ATOM     14  C   UNL     1       3.006   7.035   2.837  0.00  0.00    +0.183 C 
BRANCH  14  15
ATOM     15  S   UNL     1       3.210   7.601   4.548  0.00  0.00    +0.027 S 
ATOM     16  O   UNL     1       1.945   7.685   5.191  0.00  0.00    -0.158 OA
ATOM     17  O   UNL     1       4.292   6.916   5.165  0.00  0.00    -0.158 OA
BRANCH  15  18
ATOM     18  N   UNL     1       3.723   9.171   4.419  0.00  0.00    -0.208 NA
ATOM     19  H   UNL     1       3.844   9.571   3.544  0.00  0.00    +0.144 HD
ATOM     20  H   UNL     1       3.902   9.690   5.219  0.00  0.00    +0.144 HD
ENDBRANCH  15  18
ENDBRANCH  14  15
ENDBRANCH  13  14
ENDBRANCH  12  13
ENDBRANCH   1  12
TORSDOF 7
