REMARK  Name = ZINC38661712
REMARK  5 active torsions:
REMARK  status: ('A' for Active; 'I' for Inactive)
REMARK    1  A    between atoms: C_6  and  C_10
REMARK    2  A    between atoms: C_10  and  S_11
REMARK    3  A    between atoms: S_11  and  C_12
REMARK    4  A    between atoms: C_16  and  C_26
REMARK    5  A    between atoms: N_18  and  C_19
REMARK                            x       y       z     vdW  Elec       q    Type
REMARK                         _______ _______ _______ _____ _____    ______ ____
ROOT
ATOM      1  C   UNL     1      -5.078  -5.548  -1.472  0.00  0.00    +0.218 C 
ATOM      2  N   UNL     1      -6.250  -5.545  -0.557  0.00  0.00    -0.226 NA
ATOM      3  N   UNL     1      -5.634  -5.369   0.768  0.00  0.00    -0.230 NA
ATOM      4  C   UNL     1      -4.387  -6.165   0.703  0.00  0.00    +0.189 C 
ATOM      5  N   UNL     1      -4.033  -6.279  -0.726  0.00  0.00    -0.284 N 
ATOM      6  H   UNL     1      -6.873  -4.781  -0.770  0.00  0.00    +0.143 HD
ATOM      7  H   UNL     1      -6.242  -5.709   1.498  0.00  0.00    +0.143 HD
ENDROOT
BRANCH   5   8
ATOM      8  C   UNL     1      -2.931  -6.945  -1.268  0.00  0.00    +0.033 A 
ATOM      9  C   UNL     1      -2.100  -7.697  -0.447  0.00  0.00    +0.024 A 
ATOM     10  C   UNL     1      -1.011  -8.355  -0.985  0.00  0.00    +0.017 A 
ATOM     11  C   UNL     1      -0.747  -8.264  -2.340  0.00  0.00    +0.018 A 
ATOM     12  C   UNL     1      -1.573  -7.516  -3.160  0.00  0.00    +0.017 A 
ATOM     13  C   UNL     1      -2.667  -6.862  -2.629  0.00  0.00    +0.024 A 
ATOM     14 BR   UNL     1       0.745  -9.165  -3.073  0.00  0.00    -0.050 Br
ENDBRANCH   5   8
BRANCH   4  15
ATOM     15  C   UNL     1      -3.285  -5.461   1.453  0.00  0.00    -0.009 A 
ATOM     16  C   UNL     1      -2.097  -5.128   0.822  0.00  0.00    +0.024 A 
ATOM     17  C   UNL     1      -1.109  -4.483   1.542  0.00  0.00    +0.083 A 
ATOM     18  N   UNL     1      -1.288  -4.186   2.815  0.00  0.00    -0.367 N 
ATOM     19  C   UNL     1      -2.405  -4.488   3.448  0.00  0.00    +0.083 A 
ATOM     20  C   UNL     1      -3.439  -5.128   2.790  0.00  0.00    +0.024 A 
ATOM     21  H   UNL     1      -0.579  -3.734   3.298  0.00  0.00    +0.165 HD
ENDBRANCH   4  15
BRANCH   1  22
ATOM     22  S   UNL     1      -4.541  -3.852  -1.820  0.00  0.00    -0.114 S 
BRANCH  22  23
ATOM     23  C   UNL     1      -4.466  -3.070  -0.185  0.00  0.00    +0.146 C 
BRANCH  23  29
ATOM     24  C   UNL     1      -2.610   2.632  -0.776  0.00  0.00    +0.002 A 
ATOM     25  C   UNL     1      -3.974   2.876  -0.845  0.00  0.00    +0.002 A 
ATOM     26  C   UNL     1      -4.871   1.849  -0.756  0.00  0.00    +0.030 A 
ATOM     27  C   UNL     1      -4.415   0.538  -0.594  0.00  0.00    +0.089 A 
ATOM     28  N   UNL     1      -5.039  -0.662  -0.476  0.00  0.00    -0.232 NA
ATOM     29  C   UNL     1      -4.152  -1.605  -0.343  0.00  0.00    +0.118 A 
ATOM     30  N   UNL     1      -2.899  -1.074  -0.365  0.00  0.00    -0.341 N 
ATOM     31  C   UNL     1      -3.034   0.290  -0.524  0.00  0.00    +0.066 A 
ATOM     32  C   UNL     1      -2.137   1.347  -0.616  0.00  0.00    +0.028 A 
ATOM     33  H   UNL     1      -2.066  -1.564  -0.284  0.00  0.00    +0.167 HD
ENDBRANCH  23  29
ENDBRANCH  22  23
ENDBRANCH   1  22
TORSDOF 5
