REMARK  Name = ZINC29069926
REMARK  8 active torsions:
REMARK  status: ('A' for Active; 'I' for Inactive)
REMARK    1  A    between atoms: C_1  and  C_2
REMARK    2  A    between atoms: C_2  and  C_4
REMARK    3  A    between atoms: C_2  and  N_15
REMARK    4  A    between atoms: C_7  and  N_10
REMARK    5  A    between atoms: N_15  and  C_16
REMARK    6  A    between atoms: N_15  and  C_17
REMARK    7  A    between atoms: C_17  and  C_18
REMARK    8  A    between atoms: C_18  and  C_19
REMARK                            x       y       z     vdW  Elec       q    Type
REMARK                         _______ _______ _______ _____ _____    ______ ____
ROOT
ATOM      1  N   UNL     1       1.397   3.501   0.007  0.00  0.00    +0.383 N 
ATOM      2  C   UNL     1       0.821   4.027  -1.238  0.00  0.00    -0.095 C 
ATOM      3  H   UNL     1       0.756   3.826   0.840  0.00  0.00    -0.081 HD
ENDROOT
BRANCH   1   5
ATOM      4  C   UNL     1       3.269   3.554   1.586  0.00  0.00    -0.008 C 
ATOM      5  C   UNL     1       2.743   4.045   0.236  0.00  0.00    -0.041 C 
BRANCH   5   6
ATOM      6  C   UNL     1       2.683   5.551   0.237  0.00  0.00    -0.061 A 
ATOM      7  C   UNL     1       1.621   6.198   0.842  0.00  0.00    +0.004 A 
ATOM      8  C   UNL     1       1.566   7.578   0.850  0.00  0.00    +0.028 A 
ATOM      9  C   UNL     1       2.572   8.315   0.241  0.00  0.00    +0.067 A 
ATOM     10  C   UNL     1       3.634   7.662  -0.370  0.00  0.00    +0.028 A 
ATOM     11  C   UNL     1       3.686   6.282  -0.371  0.00  0.00    +0.004 A 
BRANCH   9  12
ATOM     12  N   UNL     1       2.517   9.716   0.243  0.00  0.00    -0.220 N 
ATOM     13  C   UNL     1       1.554  10.485   0.787  0.00  0.00    +0.225 A 
ATOM     14  N   UNL     1       1.871  11.738   0.579  0.00  0.00    -0.222 NA
ATOM     15  C   UNL     1       3.017  11.808  -0.098  0.00  0.00    +0.245 A 
ATOM     16  N   UNL     1       3.451  10.597  -0.327  0.00  0.00    -0.154 NA
ENDBRANCH   9  12
ENDBRANCH   5   6
ENDBRANCH   1   5
BRANCH   1  17
ATOM     17  C   UNL     1       1.417   2.032  -0.001  0.00  0.00    -0.069 C 
BRANCH  17  18
ATOM     18  C   UNL     1      -0.018   1.503   0.010  0.00  0.00    +0.078 C 
BRANCH  18  19
ATOM     19  C   UNL     1       0.002  -0.004   0.002  0.00  0.00    +0.219 C 
ATOM     20  O   UNL     1       1.060  -0.596  -0.011  0.00  0.00    -0.275 OA
ATOM     21  N   UNL     1      -1.156  -0.694   0.009  0.00  0.00    -0.240 N 
ATOM     22  C   UNL     1      -1.137  -2.041   0.002  0.00  0.00    +0.303 C 
ATOM     23  O   UNL     1      -0.077  -2.635  -0.011  0.00  0.00    -0.253 OA
ATOM     24  N   UNL     1      -2.295  -2.731   0.009  0.00  0.00    -0.313 N 
ATOM     25  H   UNL     1      -2.116  -0.157   0.021  0.00  0.00    +0.159 HD
ATOM     26  H   UNL     1      -2.280  -3.831   0.003  0.00  0.00    +0.146 HD
ATOM     27  H   UNL     1      -3.255  -2.194   0.021  0.00  0.00    +0.146 HD
ENDBRANCH  18  19
ENDBRANCH  17  18
ENDBRANCH   1  17
TORSDOF 6
