REMARK  Name = ZINC52091814
REMARK  5 active torsions:
REMARK  status: ('A' for Active; 'I' for Inactive)
REMARK    1  A    between atoms: C_1  and  C_2
REMARK    2  A    between atoms: C_2  and  C_3
REMARK    3  A    between atoms: C_2  and  C_4
REMARK    4  A    between atoms: C_2  and  N_5
REMARK    5  A    between atoms: N_8  and  C_9
REMARK                            x       y       z     vdW  Elec       q    Type
REMARK                         _______ _______ _______ _____ _____    ______ ____
ROOT
ATOM      1  N   UNL     1       0.587  -0.504  -1.261  0.00  0.00    -0.353 N 
ATOM      2  C   UNL     1       1.899  -0.215  -1.552  0.00  0.00    +0.174 C 
ATOM      3  N   UNL     1       2.587   0.559  -0.761  0.00  0.00    -0.371 N 
ATOM      4  N   UNL     1       2.487  -0.745  -2.679  0.00  0.00    -0.327 N 
ATOM      5  H   UNL     1       0.052  -1.015  -1.889  0.00  0.00    +0.163 HD
ATOM      6  H   UNL     1       3.492   0.815  -1.000  0.00  0.00    +0.159 HD
ATOM      7  H   UNL     1       3.432  -0.603  -2.845  0.00  0.00    +0.169 HD
ATOM      8  H   UNL     1       2.194   0.880   0.065  0.00  0.00    +0.159 HD
ENDROOT
BRANCH   4   9
ATOM      9  C   UNL     1       1.720  -1.487  -3.585  0.00  0.00    +0.056 A 
ATOM     10  C   UNL     1       1.842  -2.869  -3.630  0.00  0.00    +0.028 A 
ATOM     11  C   UNL     1       1.084  -3.600  -4.524  0.00  0.00    +0.017 A 
ATOM     12  C   UNL     1       0.205  -2.955  -5.376  0.00  0.00    +0.019 A 
ATOM     13  C   UNL     1       0.081  -1.578  -5.334  0.00  0.00    +0.032 A 
ATOM     14  C   UNL     1       0.832  -0.842  -4.437  0.00  0.00    +0.042 A 
ATOM     15 BR   UNL     1       0.656   1.039  -4.374  0.00  0.00    -0.048 Br
ATOM     16 BR   UNL     1      -0.830  -3.958  -6.600  0.00  0.00    -0.050 Br
ENDBRANCH   4   9
BRANCH   1  18
ATOM     17  C   UNL     1      -0.008   1.488   0.027  0.00  0.00    +0.033 C 
ATOM     18  C   UNL     1      -0.003  -0.042  -0.002  0.00  0.00    +0.033 C 
ATOM     19  C   UNL     1       0.822  -0.571   1.173  0.00  0.00    +0.033 C 
ATOM     20  C   UNL     1      -1.439  -0.559   0.109  0.00  0.00    +0.033 C 
ENDBRANCH   1  18
TORSDOF 2
