REMARK  Name = ZINC38898128
REMARK  6 active torsions:
REMARK  status: ('A' for Active; 'I' for Inactive)
REMARK    1  A    between atoms: C_1  and  C_2
REMARK    2  A    between atoms: C_5  and  C_31
REMARK    3  A    between atoms: C_6  and  N_8
REMARK    4  A    between atoms: N_8  and  C_9
REMARK    5  A    between atoms: C_9  and  C_10
REMARK    6  A    between atoms: C_22  and  C_24
REMARK                            x       y       z     vdW  Elec       q    Type
REMARK                         _______ _______ _______ _____ _____    ______ ____
ROOT
ATOM      1  N   UNL     1       0.050  -2.587   2.443  0.00  0.00    -0.266 N 
ATOM      2  C   UNL     1       1.097  -2.522   3.290  0.00  0.00    +0.252 C 
ATOM      3  O   UNL     1       0.980  -2.920   4.433  0.00  0.00    -0.270 OA
ENDROOT
BRANCH   1   9
ATOM      4  C   UNL     1       0.975  -3.185  -2.348  0.00  0.00    +0.044 C 
ATOM      5  C   UNL     1       0.600  -2.308  -1.181  0.00  0.00    -0.049 A 
ATOM      6  C   UNL     1       0.359  -0.961  -1.379  0.00  0.00    +0.004 A 
ATOM      7  C   UNL     1       0.015  -0.153  -0.311  0.00  0.00    +0.005 A 
ATOM      8  C   UNL     1      -0.088  -0.689   0.958  0.00  0.00    -0.029 A 
ATOM      9  C   UNL     1       0.153  -2.041   1.160  0.00  0.00    +0.040 A 
ATOM     10  C   UNL     1       0.493  -2.852   0.084  0.00  0.00    +0.027 A 
ATOM     11  C   UNL     1      -0.462   0.193   2.121  0.00  0.00    +0.045 C 
ENDBRANCH   1   9
BRANCH   2  12
ATOM     12  C   UNL     1       2.386  -1.968   2.829  0.00  0.00    +0.051 A 
ATOM     13  C   UNL     1       2.995  -2.472   1.678  0.00  0.00    +0.014 A 
ATOM     14  C   UNL     1       4.199  -1.950   1.253  0.00  0.00    +0.001 A 
ATOM     15  C   UNL     1       4.804  -0.929   1.964  0.00  0.00    +0.001 A 
ATOM     16  C   UNL     1       4.207  -0.424   3.105  0.00  0.00    +0.016 A 
ATOM     17  C   UNL     1       2.999  -0.933   3.538  0.00  0.00    +0.030 A 
ATOM     18 BR   UNL     1       2.180  -0.235   5.094  0.00  0.00    -0.050 Br
ENDBRANCH   2  12
BRANCH   1  19
ATOM     19  C   UNL     1      -1.196  -3.230   2.868  0.00  0.00    +0.131 C 
BRANCH  19  20
ATOM     20  C   UNL     1      -1.217  -4.678   2.375  0.00  0.00    +0.116 C 
ATOM     21  C   UNL     1      -2.635  -5.198   2.516  0.00  0.00    -0.003 C 
ATOM     22  C   UNL     1      -2.820  -6.306   3.288  0.00  0.00    -0.007 A 
ATOM     23  C   UNL     1      -4.155  -6.873   3.478  0.00  0.00    +0.009 A 
ATOM     24  C   UNL     1      -4.293  -7.978   4.257  0.00  0.00    +0.001 A 
ATOM     25  C   UNL     1      -3.192  -8.574   4.872  0.00  0.00    +0.002 A 
ATOM     26  C   UNL     1      -1.928  -8.096   4.736  0.00  0.00    +0.024 A 
ATOM     27  C   UNL     1      -1.676  -6.957   3.950  0.00  0.00    +0.040 A 
ATOM     28  N   UNL     1      -0.431  -6.497   3.822  0.00  0.00    -0.284 N 
ATOM     29  C   UNL     1      -0.126  -5.431   3.102  0.00  0.00    +0.226 C 
ATOM     30  O   UNL     1       1.030  -5.059   3.024  0.00  0.00    -0.275 OA
ATOM     31  H   UNL     1       0.284  -6.966   4.280  0.00  0.00    +0.155 HD
ENDBRANCH  19  20
ENDBRANCH   1  19
TORSDOF 4
