REMARK  Name = ZINC39855982
REMARK  7 active torsions:
REMARK  status: ('A' for Active; 'I' for Inactive)
REMARK    1  A    between atoms: C_1  and  C_2
REMARK    2  A    between atoms: C_2  and  N_3
REMARK    3  A    between atoms: C_9  and  C_11
REMARK    4  A    between atoms: C_12  and  C_27
REMARK    5  A    between atoms: C_17  and  C_25
REMARK    6  A    between atoms: C_17  and  C_26
REMARK    7  A    between atoms: N_20  and  N_21
REMARK                            x       y       z     vdW  Elec       q    Type
REMARK                         _______ _______ _______ _____ _____    ______ ____
ROOT
ATOM      1  C   UNL     1      -4.271  -4.266  -1.406  0.00  0.00    +0.193 A 
ATOM      2  C   UNL     1      -4.895  -5.218  -2.163  0.00  0.00    +0.009 A 
ATOM      3  C   UNL     1      -4.578  -6.451  -1.580  0.00  0.00    +0.043 A 
ATOM      4  C   UNL     1      -3.777  -6.199  -0.492  0.00  0.00    +0.116 A 
ATOM      5  O   UNL     1      -3.598  -4.883  -0.408  0.00  0.00    -0.454 OA
ATOM      6  C   UNL     1      -3.235  -7.290   0.398  0.00  0.00    +0.081 C 
ATOM      7  C   UNL     1      -4.089  -8.550   0.235  0.00  0.00    -0.023 C 
ATOM      8  C   UNL     1      -4.209  -8.935  -1.243  0.00  0.00    +0.064 C 
ATOM      9  C   UNL     1      -4.964  -7.828  -1.964  0.00  0.00    +0.073 C 
ATOM     10  N   UNL     1      -5.879  -8.073  -2.850  0.00  0.00    -0.175 NA
ATOM     11  C   UNL     1      -5.486  -8.289   0.803  0.00  0.00    +0.011 C 
ATOM     12  C   UNL     1      -3.440  -9.701   1.005  0.00  0.00    +0.011 C 
ATOM     13  C   UNL     1      -5.752  -4.987  -3.381  0.00  0.00    +0.048 C 
ENDROOT
BRANCH   1  20
ATOM     14  N   UNL     1      -3.639  -0.188   1.414  0.00  0.00    +0.382 N 
ATOM     15  C   UNL     1      -3.926  -1.604   1.673  0.00  0.00    -0.060 C 
ATOM     16  C   UNL     1      -3.305  -2.461   0.565  0.00  0.00    +0.089 C 
ATOM     17  N   UNL     1      -3.795  -1.971  -0.733  0.00  0.00    -0.299 N 
ATOM     18  C   UNL     1      -3.696  -0.530  -1.011  0.00  0.00    +0.089 C 
ATOM     19  C   UNL     1      -4.298   0.236   0.172  0.00  0.00    -0.060 C 
ATOM     20  C   UNL     1      -4.319  -2.818  -1.641  0.00  0.00    +0.282 C 
ATOM     21  O   UNL     1      -4.832  -2.383  -2.655  0.00  0.00    -0.267 OA
ATOM     22  H   UNL     1      -2.643  -0.059   1.325  0.00  0.00    -0.082 HD
BRANCH  14  24
ATOM     23  C   UNL     1      -3.365   0.271   3.804  0.00  0.00    -0.017 C 
ATOM     24  C   UNL     1      -4.138   0.624   2.532  0.00  0.00    -0.082 C 
ENDBRANCH  14  24
ENDBRANCH   1  20
BRANCH  10  25
ATOM     25  N   UNL     1      -6.204  -9.396  -3.174  0.00  0.00    -0.248 N 
ATOM     26  C   UNL     1      -7.170  -9.655  -4.109  0.00  0.00    +0.187 C 
ATOM     27  N   UNL     1      -7.479 -10.914  -4.417  0.00  0.00    -0.370 N 
ATOM     28  N   UNL     1      -7.802  -8.647  -4.710  0.00  0.00    -0.370 N 
ATOM     29  H   UNL     1      -5.744 -10.130  -2.736  0.00  0.00    +0.192 HD
ATOM     30  H   UNL     1      -7.020 -11.647  -3.979  0.00  0.00    +0.159 HD
ATOM     31  H   UNL     1      -7.577  -7.731  -4.486  0.00  0.00    +0.159 HD
ATOM     32  H   UNL     1      -8.486  -8.830  -5.373  0.00  0.00    +0.159 HD
ATOM     33  H   UNL     1      -8.164 -11.097  -5.080  0.00  0.00    +0.159 HD
ENDBRANCH  10  25
TORSDOF 3
