REMARK  Name = ZINC64041649
REMARK  9 active torsions:
REMARK  status: ('A' for Active; 'I' for Inactive)
REMARK    1  A    between atoms: C_1  and  C_2
REMARK    2  A    between atoms: C_2  and  C_3
REMARK    3  A    between atoms: C_3  and  N_4
REMARK    4  A    between atoms: N_4  and  C_5
REMARK    5  A    between atoms: C_5  and  N_7
REMARK    6  A    between atoms: N_7  and  C_8
REMARK    7  A    between atoms: C_8  and  C_9
REMARK    8  A    between atoms: C_9  and  C_11
REMARK    9  A    between atoms: C_9  and  C_17
REMARK                            x       y       z     vdW  Elec       q    Type
REMARK                         _______ _______ _______ _____ _____    ______ ____
ROOT
ATOM      1  C   UNL     1       1.875  -6.211  -3.289  0.00  0.00    +0.048 C 
ENDROOT
BRANCH   1   2
ATOM      2  C   UNL     1       2.747  -7.029  -4.206  0.00  0.00    -0.036 C 
ATOM      3  C   UNL     1       3.761  -7.848  -3.847  0.00  0.00    -0.001 A 
ATOM      4  C   UNL     1       4.335  -8.208  -2.545  0.00  0.00    +0.010 A 
ATOM      5  C   UNL     1       5.373  -9.075  -2.502  0.00  0.00    +0.001 A 
ATOM      6  C   UNL     1       5.912  -9.637  -3.667  0.00  0.00    +0.002 A 
ATOM      7  C   UNL     1       5.438  -9.355  -4.899  0.00  0.00    +0.026 A 
ATOM      8  C   UNL     1       4.349  -8.456  -5.062  0.00  0.00    +0.043 A 
ATOM      9  N   UNL     1       3.721  -8.030  -6.131  0.00  0.00    -0.380 N 
ATOM     10  C   UNL     1       2.660  -7.106  -5.714  0.00  0.00    +0.145 C 
ATOM     11  H   UNL     1       3.923  -8.285  -7.045  0.00  0.00    +0.160 HD
ENDBRANCH   1   2
BRANCH   1  12
ATOM     12  C   UNL     1       0.416  -6.641  -3.455  0.00  0.00    +0.063 C 
ATOM     13  C   UNL     1       0.195  -8.100  -2.975  0.00  0.00    +0.042 C 
ATOM     14  C   UNL     1      -1.115  -8.232  -2.267  0.00  0.00    -0.019 C 
ATOM     15  C   UNL     1      -1.725  -7.157  -1.810  0.00  0.00    +0.036 C 
ATOM     16  S   UNL     1      -0.684  -5.777  -2.255  0.00  0.00    -0.129 S 
ENDBRANCH   1  12
BRANCH   1  17
ATOM     17  C   UNL     1       2.013  -4.729  -3.643  0.00  0.00    +0.112 C 
BRANCH  17  18
ATOM     18  N   UNL     1       3.381  -4.286  -3.365  0.00  0.00    -0.326 N 
ATOM     19  H   UNL     1       4.011  -4.891  -2.943  0.00  0.00    +0.148 HD
BRANCH  18  20
ATOM     20  C   UNL     1       3.765  -3.037  -3.694  0.00  0.00    +0.130 C 
ATOM     21  S   UNL     1       2.653  -1.968  -4.438  0.00  0.00    -0.019 S 
BRANCH  20  22
ATOM     22  N   UNL     1       5.024  -2.629  -3.438  0.00  0.00    -0.327 N 
ATOM     23  H   UNL     1       5.653  -3.234  -3.017  0.00  0.00    +0.148 HD
BRANCH  22  24
ATOM     24  C   UNL     1       5.441  -1.271  -3.796  0.00  0.00    +0.103 C 
BRANCH  24  26
ATOM     25  C   UNL     1       7.340   0.352  -3.775  0.00  0.00    +0.005 C 
ATOM     26  C   UNL     1       6.905  -1.066  -3.401  0.00  0.00    +0.015 C 
ENDBRANCH  24  26
ENDBRANCH  22  24
ENDBRANCH  20  22
ENDBRANCH  18  20
ENDBRANCH  17  18
ENDBRANCH   1  17
TORSDOF 8
