REMARK  Name = ZINC38094544
REMARK  6 active torsions:
REMARK  status: ('A' for Active; 'I' for Inactive)
REMARK    1  A    between atoms: C_3  and  C_8
REMARK    2  A    between atoms: C_8  and  C_10
REMARK    3  A    between atoms: C_8  and  O_19
REMARK    4  A    between atoms: C_10  and  N_11
REMARK    5  A    between atoms: N_11  and  C_12
REMARK    6  A    between atoms: C_12  and  C_13
REMARK                            x       y       z     vdW  Elec       q    Type
REMARK                         _______ _______ _______ _____ _____    ______ ____
ROOT
ATOM      1  C   UNL     1       3.672   2.183  -0.022  0.00  0.00    +0.128 C 
ENDROOT
BRANCH   1   4
ATOM      2  C   UNL     1      -0.017   1.378   0.010  0.00  0.00    +0.001 A 
ATOM      3  C   UNL     1       1.171   2.086   0.002  0.00  0.00    +0.006 A 
ATOM      4  C   UNL     1       2.378   1.411  -0.013  0.00  0.00    -0.020 A 
ATOM      5  C   UNL     1       2.397   0.029  -0.022  0.00  0.00    +0.021 A 
ATOM      6  C   UNL     1       1.210  -0.679  -0.014  0.00  0.00    +0.018 A 
ATOM      7  C   UNL     1       0.002  -0.004   0.002  0.00  0.00    +0.015 A 
ATOM      8 BR   UNL     1       1.236  -2.570  -0.025  0.00  0.00    -0.050 Br
ENDBRANCH   1   4
BRANCH   1   9
ATOM      9  O   UNL     1       4.654   1.475   0.737  0.00  0.00    -0.389 OA
ATOM     10  H   UNL     1       4.848   0.590   0.401  0.00  0.00    +0.210 HD
ENDBRANCH   1   9
BRANCH   1  11
ATOM     11  C   UNL     1       4.160   2.344  -1.463  0.00  0.00    -0.046 C 
BRANCH  11  12
ATOM     12  N   UNL     1       5.421   3.097  -1.472  0.00  0.00    +0.381 N 
ATOM     13  H   UNL     1       5.273   4.008  -1.063  0.00  0.00    -0.086 HD
ATOM     14  H   UNL     1       6.115   2.597  -0.936  0.00  0.00    -0.086 HD
BRANCH  12  15
ATOM     15  C   UNL     1       5.890   3.252  -2.856  0.00  0.00    -0.077 C 
BRANCH  15  16
ATOM     16  C   UNL     1       7.204   4.035  -2.864  0.00  0.00    -0.000 C 
ATOM     17  C   UNL     1       7.758   4.169  -4.309  0.00  0.00    +0.032 C 
ATOM     18  C   UNL     1       8.558   5.491  -4.196  0.00  0.00    +0.160 C 
ATOM     19  O   UNL     1       7.787   6.322  -3.314  0.00  0.00    -0.380 OA
ATOM     20  C   UNL     1       6.969   5.507  -2.461  0.00  0.00    +0.161 C 
ENDBRANCH  15  16
ENDBRANCH  12  15
ENDBRANCH  11  12
ENDBRANCH   1  11
TORSDOF 6
