REMARK  Name = ZINC64635195
REMARK  10 active torsions:
REMARK  status: ('A' for Active; 'I' for Inactive)
REMARK    1  A    between atoms: C_1  and  N_2
REMARK    2  A    between atoms: N_2  and  C_3
REMARK    3  A    between atoms: N_2  and  C_9
REMARK    4  A    between atoms: C_3  and  C_4
REMARK    5  A    between atoms: C_4  and  C_5
REMARK    6  A    between atoms: C_9  and  C_10
REMARK    7  A    between atoms: N_12  and  C_13
REMARK    8  A    between atoms: C_18  and  S_19
REMARK    9  A    between atoms: S_19  and  C_20
REMARK   10  A    between atoms: C_20  and  C_21
REMARK                            x       y       z     vdW  Elec       q    Type
REMARK                         _______ _______ _______ _____ _____    ______ ____
ROOT
ATOM      1  C   UNL     1      -0.063  -0.115   2.429  0.00  0.00    +0.201 C 
ATOM      2  O   UNL     1      -1.101   0.505   2.329  0.00  0.00    -0.278 OA
ATOM      3  N   UNL     1       0.406  -0.453   3.646  0.00  0.00    -0.286 N 
ATOM      4  H   UNL     1       1.200  -1.004   3.724  0.00  0.00    +0.155 HD
ENDROOT
BRANCH   3   5
ATOM      5  C   UNL     1      -0.255  -0.009   4.800  0.00  0.00    +0.047 A 
ATOM      6  C   UNL     1      -1.636   0.116   4.806  0.00  0.00    +0.024 A 
ATOM      7  C   UNL     1      -2.286   0.554   5.944  0.00  0.00    +0.002 A 
ATOM      8  C   UNL     1      -1.563   0.868   7.081  0.00  0.00    +0.001 A 
ATOM      9  C   UNL     1      -0.186   0.746   7.085  0.00  0.00    +0.016 A 
ATOM     10  C   UNL     1       0.474   0.302   5.948  0.00  0.00    +0.030 A 
BRANCH  10  11
ATOM     11  S   UNL     1       2.229   0.139   5.952  0.00  0.00    -0.114 S 
BRANCH  11  12
ATOM     12  C   UNL     1       2.713   0.646   7.624  0.00  0.00    +0.169 C 
BRANCH  12  13
ATOM     13  C   UNL     1       4.211   0.552   7.764  0.00  0.00    +0.221 C 
ATOM     14  O   UNL     1       4.885   0.180   6.827  0.00  0.00    -0.275 OA
ATOM     15  N   UNL     1       4.801   0.883   8.930  0.00  0.00    -0.329 N 
ATOM     16  H   UNL     1       4.261   1.181   9.679  0.00  0.00    +0.145 HD
ATOM     17  H   UNL     1       5.765   0.822   9.020  0.00  0.00    +0.145 HD
ENDBRANCH  12  13
ENDBRANCH  11  12
ENDBRANCH  10  11
ENDBRANCH   3   5
BRANCH   1  18
ATOM     18  C   UNL     1       0.702  -0.506   1.191  0.00  0.00    +0.018 C 
BRANCH  18  20
ATOM     19  C   UNL     1      -0.026   1.445   0.001  0.00  0.00    -0.096 C 
ATOM     20  N   UNL     1      -0.011  -0.024   0.001  0.00  0.00    +0.384 N 
ATOM     21  H   UNL     1      -0.959  -0.370   0.014  0.00  0.00    -0.082 HD
BRANCH  20  22
ATOM     22  C   UNL     1       0.669  -0.507  -1.208  0.00  0.00    -0.070 C 
BRANCH  22  23
ATOM     23  C   UNL     1      -0.142  -0.111  -2.443  0.00  0.00    +0.095 C 
BRANCH  23  24
ATOM     24  C   UNL     1       0.568  -0.614  -3.702  0.00  0.00    +0.388 C 
ATOM     25  F   UNL     1       0.683  -2.007  -3.647  0.00  0.00    -0.171 F 
ATOM     26  F   UNL     1      -0.174  -0.252  -4.831  0.00  0.00    -0.171 F 
ATOM     27  F   UNL     1       1.843  -0.044  -3.778  0.00  0.00    -0.171 F 
ENDBRANCH  23  24
ENDBRANCH  22  23
ENDBRANCH  20  22
ENDBRANCH  18  20
ENDBRANCH   1  18
TORSDOF 9
