REMARK  Name = ZINC58165807
REMARK  4 active torsions:
REMARK  status: ('A' for Active; 'I' for Inactive)
REMARK    1  A    between atoms: C_3  and  N_8
REMARK    2  A    between atoms: N_11  and  C_14
REMARK    3  A    between atoms: C_14  and  N_15
REMARK    4  A    between atoms: C_19  and  C_21
REMARK                            x       y       z     vdW  Elec       q    Type
REMARK                         _______ _______ _______ _____ _____    ______ ____
ROOT
ATOM      1  N   UNL     1       3.582   2.124  -0.021  0.00  0.00    -0.327 N 
ATOM      2  C   UNL     1       3.587   3.591  -0.118  0.00  0.00    +0.120 C 
ATOM      3  C   UNL     1       4.535   4.002  -1.249  0.00  0.00    +0.105 C 
ATOM      4  N   UNL     1       5.852   3.390  -1.026  0.00  0.00    -0.281 NA
ATOM      5  C   UNL     1       5.772   1.924  -1.072  0.00  0.00    +0.105 C 
ATOM      6  C   UNL     1       4.875   1.429   0.073  0.00  0.00    +0.120 C 
ENDROOT
BRANCH   1   9
ATOM      7  C   UNL     1       1.209  -0.683  -0.026  0.00  0.00    +0.003 A 
ATOM      8  C   UNL     1       2.398   0.021  -0.035  0.00  0.00    +0.023 A 
ATOM      9  C   UNL     1       2.382   1.410  -0.013  0.00  0.00    +0.031 A 
ATOM     10  C   UNL     1       1.169   2.087   0.018  0.00  0.00    +0.043 A 
ATOM     11  C   UNL     1      -0.017   1.377   0.026  0.00  0.00    +0.043 A 
ATOM     12  C   UNL     1       0.004  -0.007   0.004  0.00  0.00    +0.020 A 
ATOM     13 CL   UNL     1      -1.533   2.221   0.065  0.00  0.00    -0.083 Cl
ENDBRANCH   1   9
BRANCH   4  14
ATOM     14  C   UNL     1       6.837   3.894  -1.992  0.00  0.00    +0.234 C 
BRANCH  14  15
ATOM     15  N   UNL     1       8.183   3.771  -1.427  0.00  0.00    -0.208 N 
ATOM     16  C   UNL     1       8.942   4.771  -0.932  0.00  0.00    +0.268 A 
ATOM     17  S   UNL     1       8.508   6.425  -0.849  0.00  0.00    +0.011 S 
ATOM     18  O   UNL     1      10.101   4.231  -0.516  0.00  0.00    -0.409 OA
ATOM     19  C   UNL     1      10.071   2.900  -0.748  0.00  0.00    +0.283 A 
ATOM     20  N   UNL     1       8.926   2.589  -1.290  0.00  0.00    -0.125 NA
BRANCH  19  21
ATOM     21  C   UNL     1      11.152   1.954  -0.432  0.00  0.00    +0.191 A 
ATOM     22  C   UNL     1      12.346   2.266   0.144  0.00  0.00    +0.055 A 
ATOM     23  C   UNL     1      13.068   1.063   0.259  0.00  0.00    +0.042 A 
ATOM     24  C   UNL     1      12.291   0.085  -0.247  0.00  0.00    +0.196 A 
ATOM     25  O   UNL     1      11.133   0.625  -0.659  0.00  0.00    -0.458 OA
ENDBRANCH  19  21
ENDBRANCH  14  15
ENDBRANCH   4  14
TORSDOF 4
