REMARK  Name = ZINC66827704
REMARK  6 active torsions:
REMARK  status: ('A' for Active; 'I' for Inactive)
REMARK    1  A    between atoms: C_1  and  O_2
REMARK    2  A    between atoms: O_2  and  C_3
REMARK    3  A    between atoms: N_5  and  C_6
REMARK    4  A    between atoms: C_8  and  N_13
REMARK    5  A    between atoms: N_13  and  C_14
REMARK    6  A    between atoms: C_14  and  C_15
REMARK                            x       y       z     vdW  Elec       q    Type
REMARK                         _______ _______ _______ _____ _____    ______ ____
ROOT
ATOM      1  N   UNL     1       2.887  -1.839  -5.393  0.00  0.00    -0.338 N 
ATOM      2  H   UNL     1       2.932  -0.871  -5.347  0.00  0.00    +0.146 HD
ENDROOT
BRANCH   1   5
ATOM      3  C   UNL     1       1.183  -2.616  -2.225  0.00  0.00    +0.073 A 
ATOM      4  C   UNL     1       1.771  -1.896  -3.255  0.00  0.00    +0.049 A 
ATOM      5  C   UNL     1       2.295  -2.562  -4.353  0.00  0.00    +0.029 A 
ATOM      6  C   UNL     1       2.231  -3.948  -4.419  0.00  0.00    +0.026 A 
ATOM      7  C   UNL     1       1.645  -4.664  -3.393  0.00  0.00    +0.042 A 
ATOM      8  C   UNL     1       1.126  -4.004  -2.294  0.00  0.00    +0.145 A 
ATOM      9  F   UNL     1       0.559  -4.707  -1.289  0.00  0.00    -0.204 F 
BRANCH   3  12
ATOM     10  C   UNL     1       0.070  -0.741  -1.270  0.00  0.00    +0.404 C 
ATOM     11  O   UNL     1       0.076  -0.199  -2.357  0.00  0.00    -0.226 OA
ATOM     12  N   UNL     1       0.653  -1.946  -1.115  0.00  0.00    -0.248 N 
ATOM     13  H   UNL     1       0.706  -2.350  -0.234  0.00  0.00    +0.158 HD
BRANCH  10  15
ATOM     14  C   UNL     1      -1.117   1.137  -0.456  0.00  0.00    +0.282 C 
ATOM     15  O   UNL     1      -0.519  -0.139  -0.219  0.00  0.00    -0.453 OA
ENDBRANCH  10  15
ENDBRANCH   3  12
ENDBRANCH   1   5
BRANCH   1  16
ATOM     16  C   UNL     1       3.441  -2.543  -6.552  0.00  0.00    +0.155 C 
BRANCH  16  17
ATOM     17  C   UNL     1       4.016  -1.542  -7.521  0.00  0.00    +0.040 A 
ATOM     18  C   UNL     1       5.368  -1.520  -7.787  0.00  0.00    +0.093 A 
ATOM     19  C   UNL     1       5.882  -0.586  -8.687  0.00  0.00    +0.259 A 
ATOM     20  O   UNL     1       7.079  -0.562  -8.928  0.00  0.00    -0.267 OA
ATOM     21  N   UNL     1       5.044   0.303  -9.300  0.00  0.00    -0.263 N 
ATOM     22  C   UNL     1       5.396   1.276 -10.204  0.00  0.00    +0.104 A 
ATOM     23  C   UNL     1       4.481   2.086 -10.735  0.00  0.00    +0.067 A 
ATOM     24  S   UNL     1       2.982   1.503  -9.958  0.00  0.00    -0.059 S 
ATOM     25  C   UNL     1       3.716   0.211  -8.978  0.00  0.00    +0.158 A 
ATOM     26  N   UNL     1       3.226  -0.666  -8.138  0.00  0.00    -0.337 N 
ATOM     27  H   UNL     1       2.273  -0.676  -7.960  0.00  0.00    +0.168 HD
ENDBRANCH  16  17
ENDBRANCH   1  16
TORSDOF 5
