REMARK  Name = ZINC20357126
REMARK  11 active torsions:
REMARK  status: ('A' for Active; 'I' for Inactive)
REMARK    1  A    between atoms: C_1  and  C_2
REMARK    2  A    between atoms: C_5  and  N_9
REMARK    3  A    between atoms: N_9  and  C_10
REMARK    4  A    between atoms: C_10  and  N_12
REMARK    5  A    between atoms: N_12  and  C_13
REMARK    6  A    between atoms: N_12  and  C_20
REMARK    7  A    between atoms: C_13  and  C_14
REMARK    8  A    between atoms: C_22  and  C_28
REMARK    9  A    between atoms: C_22  and  C_29
REMARK   10  A    between atoms: C_24  and  C_26
REMARK   11  A    between atoms: C_24  and  C_27
REMARK                            x       y       z     vdW  Elec       q    Type
REMARK                         _______ _______ _______ _____ _____    ______ ____
ROOT
ATOM      1  N   UNL     1       0.388   5.049  -1.211  0.00  0.00    -0.304 N 
ENDROOT
BRANCH   1   2
ATOM      2  C   UNL     1       0.407   3.581  -1.177  0.00  0.00    +0.073 C 
ATOM      3  C   UNL     1      -0.501   3.039  -2.280  0.00  0.00    +0.009 C 
ATOM      4  C   UNL     1      -0.484   1.513  -2.280  0.00  0.00    -0.072 C 
ATOM      5  N   UNL     1       0.855   0.963  -2.259  0.00  0.00    +0.386 N 
ATOM      6  C   UNL     1       1.878   1.564  -1.429  0.00  0.00    -0.072 C 
ATOM      7  C   UNL     1       1.832   3.090  -1.436  0.00  0.00    +0.009 C 
ATOM      8  C   UNL     1       1.790   1.056   0.014  0.00  0.00    -0.010 C 
ATOM      9  C   UNL     1       3.258   1.139  -1.980  0.00  0.00    -0.010 C 
ATOM     10  C   UNL     1      -1.179   1.040  -3.576  0.00  0.00    -0.010 C 
ATOM     11  C   UNL     1      -1.316   0.990  -1.103  0.00  0.00    -0.010 C 
ATOM     12  H   UNL     1       0.818  -0.081  -1.916  0.00  0.00    -0.084 HD
ATOM     13  H   UNL     1       1.283   1.001  -3.272  0.00  0.00    -0.084 HD
ENDBRANCH   1   2
BRANCH   1  14
ATOM     14  C   UNL     1      -0.126   5.740  -0.175  0.00  0.00    +0.138 C 
ATOM     15  S   UNL     1      -0.267   7.444  -0.268  0.00  0.00    -0.018 S 
BRANCH  14  16
ATOM     16  N   UNL     1      -0.530   5.090   0.935  0.00  0.00    -0.296 N 
ATOM     17  H   UNL     1      -1.599   4.888   1.096  0.00  0.00    +0.154 HD
BRANCH  16  22
ATOM     18  C   UNL     1       3.288   3.403   4.778  0.00  0.00    +0.044 C 
ATOM     19  C   UNL     1       2.274   3.850   3.758  0.00  0.00    -0.049 A 
ATOM     20  C   UNL     1       2.695   4.424   2.572  0.00  0.00    +0.005 A 
ATOM     21  C   UNL     1       1.768   4.836   1.635  0.00  0.00    +0.025 A 
ATOM     22  C   UNL     1       0.412   4.673   1.883  0.00  0.00    +0.051 A 
ATOM     23  C   UNL     1      -0.009   4.101   3.077  0.00  0.00    +0.062 A 
ATOM     24  C   UNL     1       0.924   3.686   4.009  0.00  0.00    +0.025 A 
ATOM     25 CL   UNL     1      -1.704   3.901   3.396  0.00  0.00    -0.082 Cl
ENDBRANCH  16  22
ENDBRANCH  14  16
ENDBRANCH   1  14
BRANCH   1  26
ATOM     26  C   UNL     1       0.927   5.761  -2.372  0.00  0.00    +0.162 C 
BRANCH  26  27
ATOM     27  C   UNL     1      -0.169   5.974  -3.384  0.00  0.00    +0.058 A 
ATOM     28  C   UNL     1      -0.874   7.163  -3.387  0.00  0.00    +0.025 A 
ATOM     29  C   UNL     1      -1.876   7.351  -4.327  0.00  0.00    +0.003 A 
ATOM     30  C   UNL     1      -2.140   6.328  -5.224  0.00  0.00    +0.020 A 
ATOM     31  C   UNL     1      -1.397   5.165  -5.157  0.00  0.00    +0.111 A 
ATOM     32  N   UNL     1      -0.447   5.023  -4.253  0.00  0.00    -0.258 NA
ENDBRANCH  26  27
ENDBRANCH   1  26
TORSDOF 6
