REMARK  Name = ZINC12520278
REMARK  14 active torsions:
REMARK  status: ('A' for Active; 'I' for Inactive)
REMARK    1  A    between atoms: C_1  and  C_2
REMARK    2  A    between atoms: C_2  and  O_3
REMARK    3  A    between atoms: O_3  and  C_4
REMARK    4  A    between atoms: C_4  and  C_6
REMARK    5  A    between atoms: C_10  and  N_11
REMARK    6  A    between atoms: C_12  and  C_14
REMARK    7  A    between atoms: C_14  and  S_15
REMARK    8  A    between atoms: S_15  and  C_16
REMARK    9  A    between atoms: C_21  and  O_26
REMARK   10  A    between atoms: O_26  and  C_27
REMARK   11  A    between atoms: C_28  and  C_34
REMARK   12  A    between atoms: C_28  and  C_35
REMARK   13  A    between atoms: C_30  and  C_32
REMARK   14  A    between atoms: C_30  and  C_33
REMARK                            x       y       z     vdW  Elec       q    Type
REMARK                         _______ _______ _______ _____ _____    ______ ____
ROOT
ATOM      1  C   UNL     1       1.496  -2.371   2.467  0.00  0.00    +0.091 A 
ATOM      2  C   UNL     1       0.805  -2.677   3.700  0.00  0.00    -0.024 A 
ATOM      3  C   UNL     1       1.594  -3.180   4.678  0.00  0.00    -0.016 A 
ATOM      4  S   UNL     1       3.205  -3.246   3.954  0.00  0.00    -0.079 S 
ATOM      5  C   UNL     1       2.862  -2.627   2.431  0.00  0.00    +0.086 A 
ATOM      6  C   UNL     1       1.161  -3.569   6.052  0.00  0.00    -0.041 C 
ATOM      7  N   UNL     1      -0.293  -3.536   6.205  0.00  0.00    +0.389 N 
ATOM      8  C   UNL     1      -1.080  -3.593   4.981  0.00  0.00    -0.069 C 
ATOM      9  C   UNL     1      -0.677  -2.498   3.985  0.00  0.00    +0.024 C 
ATOM     10  C   UNL     1      -0.959  -4.963   4.309  0.00  0.00    -0.010 C 
ATOM     11  C   UNL     1      -2.561  -3.375   5.347  0.00  0.00    -0.010 C 
ATOM     12  C   UNL     1       1.698  -4.969   6.381  0.00  0.00    -0.005 C 
ATOM     13  C   UNL     1       1.784  -2.576   7.053  0.00  0.00    -0.005 C 
ATOM     14  H   UNL     1      -0.574  -4.312   6.808  0.00  0.00    -0.084 HD
ATOM     15  H   UNL     1      -0.546  -2.687   6.715  0.00  0.00    -0.084 HD
ENDROOT
BRANCH   5  16
ATOM     16  N   UNL     1       3.739  -2.417   1.378  0.00  0.00    -0.279 N 
ATOM     17  C   UNL     1       5.044  -2.724   1.516  0.00  0.00    +0.228 C 
ATOM     18  O   UNL     1       5.451  -3.184   2.562  0.00  0.00    -0.275 OA
ATOM     19  H   UNL     1       3.413  -2.049   0.541  0.00  0.00    +0.155 HD
BRANCH  17  20
ATOM     20  C   UNL     1       5.997  -2.496   0.371  0.00  0.00    +0.173 C 
BRANCH  20  21
ATOM     21  S   UNL     1       7.667  -3.004   0.864  0.00  0.00    -0.079 S 
BRANCH  21  22
ATOM     22  C   UNL     1       8.650  -2.680  -0.562  0.00  0.00    +0.168 A 
ATOM     23  N   UNL     1       9.993  -2.914  -0.660  0.00  0.00    -0.333 N 
ATOM     24  H   UNL     1      10.565  -3.283   0.031  0.00  0.00    +0.168 HD
ATOM     25  C   UNL     1      10.385  -2.528  -1.931  0.00  0.00    +0.070 A 
ATOM     26  C   UNL     1      11.599  -2.526  -2.602  0.00  0.00    +0.073 A 
ATOM     27  C   UNL     1      11.664  -2.061  -3.904  0.00  0.00    +0.122 A 
ATOM     28  C   UNL     1      10.518  -1.597  -4.542  0.00  0.00    +0.048 A 
ATOM     29  C   UNL     1       9.308  -1.593  -3.887  0.00  0.00    +0.033 A 
ATOM     30  C   UNL     1       9.227  -2.059  -2.572  0.00  0.00    +0.090 A 
ATOM     31  N   UNL     1       8.201  -2.183  -1.688  0.00  0.00    -0.222 NA
BRANCH  27  32
ATOM     32  O   UNL     1      12.854  -2.059  -4.563  0.00  0.00    -0.495 OA
ATOM     33  C   UNL     1      12.851  -1.566  -5.904  0.00  0.00    +0.277 C 
ENDBRANCH  27  32
ENDBRANCH  21  22
ENDBRANCH  20  21
ENDBRANCH  17  20
ENDBRANCH   5  16
BRANCH   1  34
ATOM     34  C   UNL     1       0.801  -1.814   1.305  0.00  0.00    +0.342 C 
ATOM     35  O   UNL     1       0.321  -2.557   0.470  0.00  0.00    -0.245 OA
BRANCH  34  36
ATOM     36  O   UNL     1       0.693  -0.477   1.160  0.00  0.00    -0.461 OA
BRANCH  36  38
ATOM     37  C   UNL     1      -0.019   1.526   0.010  0.00  0.00    +0.048 C 
ATOM     38  C   UNL     1       0.002  -0.004   0.002  0.00  0.00    +0.229 C 
ENDBRANCH  36  38
ENDBRANCH  34  36
ENDBRANCH   1  34
TORSDOF 8
