REMARK  Name = ZINC09472448
REMARK  17 active torsions:
REMARK  status: ('A' for Active; 'I' for Inactive)
REMARK    1  A    between atoms: C_1  and  C_2
REMARK    2  A    between atoms: C_2  and  C_3
REMARK    3  A    between atoms: C_3  and  C_4
REMARK    4  A    between atoms: C_4  and  N_5
REMARK    5  A    between atoms: N_5  and  C_6
REMARK    6  A    between atoms: N_5  and  S_10
REMARK    7  A    between atoms: C_6  and  C_7
REMARK    8  A    between atoms: C_7  and  C_8
REMARK    9  A    between atoms: C_8  and  C_9
REMARK   10  A    between atoms: S_10  and  C_13
REMARK   11  A    between atoms: C_16  and  C_19
REMARK   12  A    between atoms: N_21  and  C_22
REMARK   13  A    between atoms: C_23  and  C_32
REMARK   14  A    between atoms: C_24  and  C_31
REMARK   15  A    between atoms: C_25  and  C_27
REMARK   16  A    between atoms: C_27  and  O_29
REMARK   17  A    between atoms: O_29  and  C_30
REMARK                            x       y       z     vdW  Elec       q    Type
REMARK                         _______ _______ _______ _____ _____    ______ ____
ROOT
ATOM      1  C   UNL     1       2.718   3.870  -0.003  0.00  0.00    +0.249 C 
ATOM      2  O   UNL     1       3.649   3.088  -0.016  0.00  0.00    -0.270 OA
ATOM      3  N   UNL     1       1.452   3.409   0.006  0.00  0.00    -0.275 N 
ATOM      4  H   UNL     1       0.709   4.032   0.016  0.00  0.00    +0.156 HD
ENDROOT
BRANCH   1   8
ATOM      5  C   UNL     1       3.456   8.052   0.010  0.00  0.00    +0.106 A 
ATOM      6  C   UNL     1       4.518   7.165  -0.004  0.00  0.00    +0.029 A 
ATOM      7  C   UNL     1       4.286   5.806  -0.008  0.00  0.00    +0.015 A 
ATOM      8  C   UNL     1       2.975   5.325   0.002  0.00  0.00    +0.037 A 
ATOM      9  C   UNL     1       1.908   6.225   0.010  0.00  0.00    +0.015 A 
ATOM     10  C   UNL     1       2.155   7.582   0.020  0.00  0.00    +0.029 A 
BRANCH   5  11
ATOM     11  S   UNL     1       3.762   9.787   0.017  0.00  0.00    +0.061 S 
ATOM     12  O   UNL     1       2.611  10.401   0.581  0.00  0.00    -0.153 OA
ATOM     13  O   UNL     1       5.064   9.968   0.557  0.00  0.00    -0.153 OA
BRANCH  11  14
ATOM     14  N   UNL     1       3.833  10.278  -1.563  0.00  0.00    -0.177 NA
BRANCH  14  15
ATOM     15  C   UNL     1       2.615  10.715  -2.250  0.00  0.00    +0.109 C 
BRANCH  15  16
ATOM     16  C   UNL     1       2.500  12.239  -2.163  0.00  0.00    +0.017 C 
BRANCH  16  18
ATOM     17  C   UNL     1       1.112  14.219  -2.794  0.00  0.00    +0.004 C 
ATOM     18  C   UNL     1       1.227  12.695  -2.880  0.00  0.00    -0.002 C 
ENDBRANCH  16  18
ENDBRANCH  15  16
ENDBRANCH  14  15
BRANCH  14  19
ATOM     19  C   UNL     1       5.114  10.275  -2.275  0.00  0.00    +0.109 C 
BRANCH  19  20
ATOM     20  C   UNL     1       5.260   8.967  -3.056  0.00  0.00    +0.017 C 
BRANCH  20  21
ATOM     21  C   UNL     1       6.597   8.964  -3.799  0.00  0.00    -0.002 C 
ATOM     22  C   UNL     1       6.743   7.656  -4.580  0.00  0.00    +0.004 C 
ENDBRANCH  20  21
ENDBRANCH  19  20
ENDBRANCH  14  19
ENDBRANCH  11  14
ENDBRANCH   5  11
ENDBRANCH   1   8
BRANCH   3  23
ATOM     23  C   UNL     1       1.212   2.050   0.002  0.00  0.00    +0.085 A 
ATOM     24  C   UNL     1      -0.017   1.381   0.010  0.00  0.00    +0.069 A 
ATOM     25  C   UNL     1       0.002  -0.004   0.002  0.00  0.00    -0.015 A 
ATOM     26  C   UNL     1       1.224  -0.624  -0.013  0.00  0.00    +0.102 A 
ATOM     27  S   UNL     1       2.360   0.751  -0.016  0.00  0.00    -0.066 S 
ATOM     28  C   UNL     1      -1.277  -0.801   0.010  0.00  0.00    +0.046 C 
BRANCH  24  29
ATOM     29  C   UNL     1      -1.284   2.123   0.020  0.00  0.00    +0.244 C 
ATOM     30  O   UNL     1      -1.804   2.425   1.078  0.00  0.00    -0.270 OA
ATOM     31  N   UNL     1      -1.872   2.470  -1.143  0.00  0.00    -0.325 N 
ATOM     32  H   UNL     1      -1.457   2.230  -1.986  0.00  0.00    +0.145 HD
ATOM     33  H   UNL     1      -2.709   2.960  -1.136  0.00  0.00    +0.145 HD
ENDBRANCH  24  29
BRANCH  26  34
ATOM     34  C   UNL     1       1.522  -2.055  -0.024  0.00  0.00    +0.346 C 
ATOM     35  O   UNL     1       0.614  -2.865  -0.020  0.00  0.00    -0.244 OA
BRANCH  34  36
ATOM     36  O   UNL     1       2.803  -2.477  -0.038  0.00  0.00    -0.464 OA
ATOM     37  C   UNL     1       3.021  -3.889  -0.048  0.00  0.00    +0.280 C 
ENDBRANCH  34  36
ENDBRANCH  26  34
ENDBRANCH   3  23
TORSDOF 13
