REMARK  Name = ZINC63258950
REMARK  10 active torsions:
REMARK  status: ('A' for Active; 'I' for Inactive)
REMARK    1  A    between atoms: C_7  and  C_10
REMARK    2  A    between atoms: C_10  and  C_11
REMARK    3  A    between atoms: C_11  and  C_12
REMARK    4  A    between atoms: C_12  and  C_13
REMARK    5  A    between atoms: C_13  and  O_15
REMARK    6  A    between atoms: O_15  and  C_16
REMARK    7  A    between atoms: C_16  and  C_17
REMARK    8  A    between atoms: N_19  and  C_20
REMARK    9  A    between atoms: C_24  and  S_26
REMARK   10  A    between atoms: S_26  and  N_29
REMARK                            x       y       z     vdW  Elec       q    Type
REMARK                         _______ _______ _______ _____ _____    ______ ____
ROOT
ATOM      1  C   UNL     1      -1.717  -6.730  -4.486  0.00  0.00    +0.328 C 
ENDROOT
BRANCH   1   2
ATOM      2  C   UNL     1      -2.645  -7.915  -4.562  0.00  0.00    +0.255 C 
ATOM      3  O   UNL     1      -3.111  -8.387  -3.547  0.00  0.00    -0.272 OA
ATOM      4  N   UNL     1      -2.959  -8.449  -5.759  0.00  0.00    -0.283 N 
ATOM      5  H   UNL     1      -2.641  -8.032  -6.575  0.00  0.00    +0.155 HD
BRANCH   4   6
ATOM      6  C   UNL     1      -3.742  -9.607  -5.825  0.00  0.00    +0.035 A 
ATOM      7  C   UNL     1      -3.503 -10.554  -6.812  0.00  0.00    +0.023 A 
ATOM      8  C   UNL     1      -4.277 -11.695  -6.874  0.00  0.00    +0.004 A 
ATOM      9  C   UNL     1      -5.291 -11.896  -5.955  0.00  0.00    +0.028 A 
ATOM     10  C   UNL     1      -5.532 -10.955  -4.971  0.00  0.00    +0.107 A 
ATOM     11  C   UNL     1      -4.756  -9.814  -4.900  0.00  0.00    +0.051 A 
BRANCH  10  12
ATOM     12  S   UNL     1      -6.825 -11.214  -3.803  0.00  0.00    +0.056 S 
ATOM     13  O   UNL     1      -7.201  -9.931  -3.321  0.00  0.00    -0.153 OA
ATOM     14  O   UNL     1      -7.753 -12.100  -4.414  0.00  0.00    -0.153 OA
BRANCH  12  15
ATOM     15  N   UNL     1      -6.169 -12.029  -2.519  0.00  0.00    -0.204 NA
ATOM     16  H   UNL     1      -5.228 -12.266  -2.525  0.00  0.00    +0.144 HD
ATOM     17  H   UNL     1      -6.725 -12.269  -1.761  0.00  0.00    +0.144 HD
ENDBRANCH  12  15
ENDBRANCH  10  12
ENDBRANCH   4   6
ENDBRANCH   1   2
BRANCH   1  18
ATOM     18  O   UNL     1      -1.541  -6.350  -3.120  0.00  0.00    -0.455 OA
BRANCH  18  19
ATOM     19  C   UNL     1      -0.737  -5.303  -2.877  0.00  0.00    +0.308 C 
ATOM     20  O   UNL     1      -0.200  -4.729  -3.795  0.00  0.00    -0.251 OA
BRANCH  19  21
ATOM     21  C   UNL     1      -0.503  -4.844  -1.461  0.00  0.00    +0.121 C 
BRANCH  21  22
ATOM     22  C   UNL     1       0.445  -3.643  -1.464  0.00  0.00    +0.015 C 
BRANCH  22  23
ATOM     23  C   UNL     1       0.682  -3.178  -0.025  0.00  0.00    +0.034 C 
BRANCH  23  30
ATOM     24  C   UNL     1      -0.052   1.352   0.021  0.00  0.00    +0.001 A 
ATOM     25  C   UNL     1       1.126   2.112   0.011  0.00  0.00    +0.002 A 
ATOM     26  C   UNL     1       2.354   1.553  -0.009  0.00  0.00    +0.026 A 
ATOM     27  C   UNL     1       2.500   0.139  -0.023  0.00  0.00    +0.043 A 
ATOM     28  N   UNL     1       3.563  -0.629  -0.044  0.00  0.00    -0.380 N 
ATOM     29  C   UNL     1       3.127  -2.030  -0.049  0.00  0.00    +0.144 C 
ATOM     30  C   UNL     1       1.616  -1.995  -0.028  0.00  0.00    -0.042 C 
ATOM     31  C   UNL     1       1.272  -0.687  -0.012  0.00  0.00    -0.001 A 
ATOM     32  C   UNL     1      -0.025  -0.000   0.011  0.00  0.00    +0.010 A 
ATOM     33  H   UNL     1       4.483  -0.322  -0.054  0.00  0.00    +0.160 HD
ENDBRANCH  23  30
ENDBRANCH  22  23
ENDBRANCH  21  22
ENDBRANCH  19  21
ENDBRANCH  18  19
ENDBRANCH   1  18
TORSDOF 10
