REMARK  Name = ZINC00259062
REMARK  4 active torsions:
REMARK  status: ('A' for Active; 'I' for Inactive)
REMARK    1  A    between atoms: C_3  and  S_16
REMARK    2  A    between atoms: C_6  and  N_7
REMARK    3  A    between atoms: C_8  and  C_10
REMARK    4  A    between atoms: S_16  and  N_19
REMARK                            x       y       z     vdW  Elec       q    Type
REMARK                         _______ _______ _______ _____ _____    ______ ____
ROOT
ATOM      1  C   UNL     1      -5.053   0.464   0.204  0.00  0.00    +0.025 A 
ATOM      2  C   UNL     1      -6.345  -0.014   0.303  0.00  0.00    +0.030 A 
ATOM      3  C   UNL     1      -7.411   0.867   0.305  0.00  0.00    +0.105 A 
ATOM      4  C   UNL     1      -7.186   2.229   0.216  0.00  0.00    +0.030 A 
ATOM      5  C   UNL     1      -5.896   2.713   0.125  0.00  0.00    +0.025 A 
ATOM      6  C   UNL     1      -4.824   1.831   0.121  0.00  0.00    +0.034 A 
ENDROOT
BRANCH   6   7
ATOM      7  N   UNL     1      -3.516   2.318   0.029  0.00  0.00    -0.279 N 
ATOM      8  C   UNL     1      -3.188   3.485   0.619  0.00  0.00    +0.284 C 
ATOM      9  O   UNL     1      -4.047   4.155   1.161  0.00  0.00    -0.266 OA
ATOM     10  H   UNL     1      -2.845   1.817  -0.461  0.00  0.00    +0.155 HD
BRANCH   8  11
ATOM     11  C   UNL     1      -1.797   3.945   0.609  0.00  0.00    +0.191 A 
ATOM     12  C   UNL     1      -1.331   5.101   1.167  0.00  0.00    +0.056 A 
ATOM     13  C   UNL     1       0.051   5.136   0.928  0.00  0.00    +0.058 A 
ATOM     14  C   UNL     1       0.364   4.016   0.237  0.00  0.00    +0.171 A 
ATOM     15  O   UNL     1      -0.753   3.303   0.044  0.00  0.00    -0.444 OA
ATOM     16 BR   UNL     1       2.094   3.536  -0.359  0.00  0.00    -0.008 Br
ENDBRANCH   8  11
ENDBRANCH   6   7
BRANCH   3  17
ATOM     17  S   UNL     1      -9.058   0.253   0.423  0.00  0.00    +0.056 S 
ATOM     18  O   UNL     1      -8.973  -1.022   1.044  0.00  0.00    -0.153 OA
ATOM     19  O   UNL     1      -9.848   1.308   0.954  0.00  0.00    -0.153 OA
BRANCH  17  20
ATOM     20  N   UNL     1      -9.595  -0.007  -1.122  0.00  0.00    -0.204 NA
ATOM     21  H   UNL     1     -10.243  -0.706  -1.299  0.00  0.00    +0.144 HD
ATOM     22  H   UNL     1      -9.260   0.539  -1.851  0.00  0.00    +0.144 HD
ENDBRANCH  17  20
ENDBRANCH   3  17
TORSDOF 4
