REMARK  Name = ZINC02339748
REMARK  8 active torsions:
REMARK  status: ('A' for Active; 'I' for Inactive)
REMARK    1  A    between atoms: C_1  and  C_2
REMARK    2  A    between atoms: C_3  and  C_14
REMARK    3  A    between atoms: N_5  and  C_7
REMARK    4  A    between atoms: N_15  and  N_16
REMARK    5  A    between atoms: C_17  and  C_19
REMARK    6  A    between atoms: C_22  and  C_24
REMARK    7  A    between atoms: C_24  and  N_25
REMARK    8  A    between atoms: N_25  and  C_26
REMARK                            x       y       z     vdW  Elec       q    Type
REMARK                         _______ _______ _______ _____ _____    ______ ____
ROOT
ATOM      1  N   UNL     1      -0.010  -0.805  -4.846  0.00  0.00    -0.200 N 
ATOM      2  C   UNL     1      -0.002  -1.706  -5.848  0.00  0.00    +0.299 C 
ATOM      3  O   UNL     1       0.016  -2.897  -5.595  0.00  0.00    -0.265 OA
ATOM      4  H   UNL     1      -0.024   0.144  -5.047  0.00  0.00    +0.178 HD
ENDROOT
BRANCH   2   5
ATOM      5  C   UNL     1      -0.015  -1.253  -7.242  0.00  0.00    +0.191 A 
ATOM      6  C   UNL     1      -0.015  -2.055  -8.347  0.00  0.00    +0.055 A 
ATOM      7  C   UNL     1      -0.029  -1.204  -9.464  0.00  0.00    +0.047 A 
ATOM      8  C   UNL     1      -0.038   0.064  -8.997  0.00  0.00    +0.123 A 
ATOM      9  O   UNL     1      -0.035   0.031  -7.658  0.00  0.00    -0.453 OA
BRANCH   8  10
ATOM     10  C   UNL     1      -0.055   1.310  -9.844  0.00  0.00    +0.176 C 
BRANCH  10  11
ATOM     11  N   UNL     1      -1.441   1.701 -10.110  0.00  0.00    -0.337 N 
ATOM     12  H   UNL     1      -2.171   1.173  -9.751  0.00  0.00    +0.147 HD
BRANCH  11  13
ATOM     13  C   UNL     1      -1.712   2.835 -10.880  0.00  0.00    +0.027 A 
ATOM     14  C   UNL     1      -0.667   3.589 -11.400  0.00  0.00    +0.023 A 
ATOM     15  C   UNL     1      -0.938   4.708 -12.162  0.00  0.00    +0.002 A 
ATOM     16  C   UNL     1      -2.248   5.080 -12.407  0.00  0.00    +0.000 A 
ATOM     17  C   UNL     1      -3.290   4.331 -11.891  0.00  0.00    +0.002 A 
ATOM     18  C   UNL     1      -3.026   3.207 -11.133  0.00  0.00    +0.023 A 
ENDBRANCH  11  13
ENDBRANCH  10  11
ENDBRANCH   8  10
ENDBRANCH   2   5
BRANCH   1  20
ATOM     19  C   UNL     1      -0.005  -0.370  -2.549  0.00  0.00    +0.143 C 
ATOM     20  N   UNL     1       0.003  -1.238  -3.514  0.00  0.00    -0.187 NA
BRANCH  19  23
ATOM     21  C   UNL     1      -0.018   1.503   0.010  0.00  0.00    +0.068 C 
ATOM     22  C   UNL     1       0.002  -0.004   0.002  0.00  0.00    +0.070 A 
ATOM     23  C   UNL     1       0.008  -0.826  -1.146  0.00  0.00    +0.054 A 
ATOM     24  C   UNL     1       0.028  -2.136  -0.712  0.00  0.00    +0.142 A 
ATOM     25  N   UNL     1       0.034  -2.112   0.639  0.00  0.00    -0.221 N 
ATOM     26  N   UNL     1       0.023  -0.776   1.055  0.00  0.00    -0.170 NA
ATOM     27 CL   UNL     1       0.042  -3.553  -1.715  0.00  0.00    -0.061 Cl
BRANCH  25  28
ATOM     28  C   UNL     1       0.052  -3.233   1.480  0.00  0.00    +0.067 A 
ATOM     29  C   UNL     1      -0.619  -4.391   1.110  0.00  0.00    +0.028 A 
ATOM     30  C   UNL     1      -0.599  -5.494   1.940  0.00  0.00    +0.002 A 
ATOM     31  C   UNL     1       0.089  -5.447   3.139  0.00  0.00    +0.000 A 
ATOM     32  C   UNL     1       0.758  -4.295   3.510  0.00  0.00    +0.002 A 
ATOM     33  C   UNL     1       0.746  -3.190   2.681  0.00  0.00    +0.028 A 
ENDBRANCH  25  28
ENDBRANCH  19  23
ENDBRANCH   1  20
TORSDOF 7
