REMARK  Name = ZINC56727739
REMARK  12 active torsions:
REMARK  status: ('A' for Active; 'I' for Inactive)
REMARK    1  A    between atoms: C_1  and  C_2
REMARK    2  A    between atoms: C_2  and  O_3
REMARK    3  A    between atoms: O_3  and  C_4
REMARK    4  A    between atoms: N_6  and  C_7
REMARK    5  A    between atoms: C_11  and  N_14
REMARK    6  A    between atoms: C_12  and  C_13
REMARK    7  A    between atoms: N_17  and  C_18
REMARK    8  A    between atoms: C_18  and  C_20
REMARK    9  A    between atoms: C_18  and  C_21
REMARK   10  A    between atoms: C_21  and  N_22
REMARK   11  A    between atoms: C_24  and  C_31
REMARK   12  A    between atoms: C_27  and  C_30
REMARK                            x       y       z     vdW  Elec       q    Type
REMARK                         _______ _______ _______ _____ _____    ______ ____
ROOT
ATOM      1  N   UNL     1       2.336  -6.299   4.829  0.00  0.00    -0.269 N 
ATOM      2  C   UNL     1       2.535  -7.612   5.057  0.00  0.00    +0.304 C 
ATOM      3  O   UNL     1       2.110  -8.437   4.271  0.00  0.00    -0.253 OA
ATOM      4  N   UNL     1       3.206  -8.011   6.156  0.00  0.00    -0.298 N 
ATOM      5  H   UNL     1       2.617  -5.644   5.488  0.00  0.00    +0.156 HD
ATOM      6  H   UNL     1       3.545  -7.354   6.783  0.00  0.00    +0.150 HD
ENDROOT
BRANCH   1  11
ATOM      7  C   UNL     1       1.502  -4.276   1.869  0.00  0.00    +0.041 A 
ATOM      8  C   UNL     1       0.507  -5.056   1.293  0.00  0.00    +0.024 A 
ATOM      9  C   UNL     1       0.123  -6.241   1.891  0.00  0.00    +0.004 A 
ATOM     10  C   UNL     1       0.728  -6.654   3.062  0.00  0.00    +0.024 A 
ATOM     11  C   UNL     1       1.724  -5.879   3.643  0.00  0.00    +0.039 A 
ATOM     12  C   UNL     1       2.115  -4.691   3.042  0.00  0.00    -0.008 A 
ATOM     13  C   UNL     1       3.200  -3.851   3.665  0.00  0.00    +0.047 C 
BRANCH   7  16
ATOM     14  C   UNL     1       1.701  -2.896  -0.059  0.00  0.00    +0.405 C 
ATOM     15  O   UNL     1       1.285  -3.811  -0.743  0.00  0.00    -0.226 OA
ATOM     16  N   UNL     1       1.890  -3.075   1.263  0.00  0.00    -0.251 N 
ATOM     17  H   UNL     1       2.295  -2.372   1.795  0.00  0.00    +0.158 HD
BRANCH  14  18
ATOM     18  O   UNL     1       1.973  -1.704  -0.623  0.00  0.00    -0.450 OA
BRANCH  18  20
ATOM     19  C   UNL     1       2.112  -0.171  -2.486  0.00  0.00    +0.048 C 
ATOM     20  C   UNL     1       1.749  -1.585  -2.029  0.00  0.00    +0.230 C 
ENDBRANCH  18  20
ENDBRANCH  14  18
ENDBRANCH   7  16
ENDBRANCH   1  11
BRANCH   4  21
ATOM     21  C   UNL     1       3.422  -9.439   6.404  0.00  0.00    +0.055 C 
ATOM     22  C   UNL     1       4.732  -9.878   5.746  0.00  0.00    +0.026 C 
BRANCH  21  23
ATOM     23  C   UNL     1       3.500  -9.689   7.911  0.00  0.00    -0.057 C 
BRANCH  23  24
ATOM     24  N   UNL     1       2.257  -9.232   8.547  0.00  0.00    +0.381 N 
ATOM     25  C   UNL     1       2.389  -9.337  10.006  0.00  0.00    -0.076 C 
ATOM     26  C   UNL     1       1.129  -8.787  10.677  0.00  0.00    -0.031 C 
ATOM     27  C   UNL     1      -0.085  -9.597  10.212  0.00  0.00    +0.003 C 
ATOM     28  C   UNL     1      -0.170  -9.541   8.684  0.00  0.00    -0.031 C 
ATOM     29  C   UNL     1       1.139 -10.064   8.087  0.00  0.00    -0.076 C 
ATOM     30  C   UNL     1      -1.334 -10.411   8.205  0.00  0.00    +0.005 C 
ATOM     31  C   UNL     1       0.943  -7.319  10.288  0.00  0.00    +0.005 C 
ATOM     32  H   UNL     1       2.086  -8.270   8.296  0.00  0.00    -0.082 HD
ENDBRANCH  23  24
ENDBRANCH  21  23
ENDBRANCH   4  21
TORSDOF 7
