REMARK  Name = ZINC39631111
REMARK  11 active torsions:
REMARK  status: ('A' for Active; 'I' for Inactive)
REMARK    1  A    between atoms: C_1  and  C_2
REMARK    2  A    between atoms: C_2  and  C_4
REMARK    3  A    between atoms: C_2  and  N_11
REMARK    4  A    between atoms: C_4  and  C_5
REMARK    5  A    between atoms: C_5  and  C_6
REMARK    6  A    between atoms: C_6  and  C_7
REMARK    7  A    between atoms: C_7  and  C_8
REMARK    8  A    between atoms: C_7  and  C_9
REMARK    9  A    between atoms: C_7  and  O_10
REMARK   10  A    between atoms: C_12  and  C_14
REMARK   11  A    between atoms: C_25  and  C_27
REMARK                            x       y       z     vdW  Elec       q    Type
REMARK                         _______ _______ _______ _____ _____    ______ ____
ROOT
ATOM      1  C   UNL     1      -3.442  -1.176   1.183  0.00  0.00    +0.100 C 
ATOM      2  C   UNL     1      -4.400  -0.143   0.549  0.00  0.00    +0.121 C 
ATOM      3  N   UNL     1      -5.639  -0.238   1.355  0.00  0.00    -0.296 N 
ATOM      4  C   UNL     1      -5.161  -0.409   2.748  0.00  0.00    +0.115 C 
ATOM      5  C   UNL     1      -3.944  -1.347   2.626  0.00  0.00    -0.004 C 
ATOM      6  C   UNL     1      -2.859  -0.933   3.616  0.00  0.00    -0.010 C 
ATOM      7  C   UNL     1      -3.361  -1.167   5.044  0.00  0.00    -0.082 C 
ATOM      8  N   UNL     1      -3.697  -2.585   5.220  0.00  0.00    +0.379 N 
ATOM      9  C   UNL     1      -4.805  -2.951   4.329  0.00  0.00    -0.082 C 
ATOM     10  C   UNL     1      -4.365  -2.792   2.871  0.00  0.00    -0.010 C 
ATOM     11  C   UNL     1      -6.914  -0.183   0.920  0.00  0.00    +0.248 C 
ATOM     12  O   UNL     1      -7.148  -0.139  -0.272  0.00  0.00    -0.270 OA
ATOM     13  H   UNL     1      -2.891  -3.151   5.001  0.00  0.00    -0.086 HD
ATOM     14  H   UNL     1      -3.970  -2.748   6.178  0.00  0.00    -0.086 HD
ENDROOT
BRANCH  11  15
ATOM     15  C   UNL     1      -8.027  -0.175   1.893  0.00  0.00    +0.055 A 
ATOM     16  C   UNL     1      -7.883   0.478   3.118  0.00  0.00    +0.014 A 
ATOM     17  C   UNL     1      -8.925   0.482   4.021  0.00  0.00    +0.001 A 
ATOM     18  C   UNL     1     -10.113  -0.161   3.715  0.00  0.00    +0.001 A 
ATOM     19  C   UNL     1     -10.263  -0.811   2.504  0.00  0.00    +0.021 A 
ATOM     20  C   UNL     1      -9.229  -0.817   1.588  0.00  0.00    +0.053 A 
ATOM     21 CL   UNL     1      -9.422  -1.627   0.064  0.00  0.00    -0.083 Cl
ENDBRANCH  11  15
BRANCH   1  23
ATOM     22  N   UNL     1      -0.992  -1.508   1.282  0.00  0.00    -0.312 N 
ATOM     23  C   UNL     1      -2.028  -0.652   1.178  0.00  0.00    +0.218 C 
ATOM     24  O   UNL     1      -1.823   0.539   1.080  0.00  0.00    -0.275 OA
ATOM     25  H   UNL     1      -1.157  -2.461   1.361  0.00  0.00    +0.149 HD
BRANCH  22  27
ATOM     26  C   UNL     1       0.857  -0.830  -0.167  0.00  0.00    +0.028 C 
ATOM     27  C   UNL     1       0.382  -1.000   1.277  0.00  0.00    +0.070 C 
BRANCH  27  28
ATOM     28  C   UNL     1       1.295  -1.990   2.002  0.00  0.00    +0.022 C 
BRANCH  28  29
ATOM     29  C   UNL     1       0.896  -2.066   3.477  0.00  0.00    +0.005 C 
BRANCH  29  30
ATOM     30  C   UNL     1       1.810  -3.057   4.202  0.00  0.00    +0.034 C 
BRANCH  30  31
ATOM     31  C   UNL     1       1.411  -3.132   5.677  0.00  0.00    +0.061 C 
ATOM     32  C   UNL     1      -0.041  -3.601   5.790  0.00  0.00    +0.041 C 
ATOM     33  C   UNL     1       2.325  -4.123   6.402  0.00  0.00    +0.041 C 
BRANCH  31  34
ATOM     34  O   UNL     1       1.543  -1.840   6.273  0.00  0.00    -0.389 OA
ATOM     35  H   UNL     1       2.439  -1.480   6.238  0.00  0.00    +0.210 HD
ENDBRANCH  31  34
ENDBRANCH  30  31
ENDBRANCH  29  30
ENDBRANCH  28  29
ENDBRANCH  27  28
ENDBRANCH  22  27
ENDBRANCH   1  23
TORSDOF 8
