REMARK  Name = ZINC43051341
REMARK  8 active torsions:
REMARK  status: ('A' for Active; 'I' for Inactive)
REMARK    1  A    between atoms: C_1  and  C_2
REMARK    2  A    between atoms: C_2  and  C_3
REMARK    3  A    between atoms: C_3  and  C_5
REMARK    4  A    between atoms: C_3  and  N_22
REMARK    5  A    between atoms: C_5  and  C_7
REMARK    6  A    between atoms: C_5  and  N_14
REMARK    7  A    between atoms: C_17  and  O_20
REMARK    8  A    between atoms: O_20  and  C_21
REMARK                            x       y       z     vdW  Elec       q    Type
REMARK                         _______ _______ _______ _____ _____    ______ ____
ROOT
ATOM      1  C   UNL     1       0.819  -2.192  -1.260  0.00  0.00    +0.074 C 
ENDROOT
BRANCH   1   2
ATOM      2  C   UNL     1      -0.515  -2.856  -1.038  0.00  0.00    -0.014 A 
ATOM      3  C   UNL     1      -1.211  -3.386  -2.109  0.00  0.00    +0.006 A 
ATOM      4  C   UNL     1      -2.435  -3.994  -1.905  0.00  0.00    +0.000 A 
ATOM      5  C   UNL     1      -2.965  -4.074  -0.630  0.00  0.00    +0.001 A 
ATOM      6  C   UNL     1      -2.270  -3.545   0.441  0.00  0.00    +0.020 A 
ATOM      7  C   UNL     1      -1.042  -2.941   0.239  0.00  0.00    +0.046 A 
ATOM      8 CL   UNL     1      -0.165  -2.282   1.585  0.00  0.00    -0.083 Cl
ENDBRANCH   1   2
BRANCH   1   9
ATOM      9  N   UNL     1       1.490  -2.814  -2.410  0.00  0.00    -0.297 NA
ATOM     10  C   UNL     1       2.732  -2.105  -2.742  0.00  0.00    +0.087 C 
ATOM     11  C   UNL     1       3.325  -2.686  -4.027  0.00  0.00    +0.047 C 
ATOM     12  C   UNL     1       3.606  -4.178  -3.825  0.00  0.00    +0.120 C 
ATOM     13  C   UNL     1       2.305  -4.885  -3.433  0.00  0.00    +0.047 C 
ATOM     14  C   UNL     1       1.741  -4.240  -2.165  0.00  0.00    +0.087 C 
BRANCH  12  15
ATOM     15  O   UNL     1       4.107  -4.739  -5.039  0.00  0.00    -0.380 OA
ATOM     16  C   UNL     1       5.000  -5.838  -4.847  0.00  0.00    +0.194 C 
ENDBRANCH  12  15
ENDBRANCH   1   9
BRANCH   1  17
ATOM     17  C   UNL     1       0.608  -0.703  -1.538  0.00  0.00    -0.053 C 
BRANCH  17  18
ATOM     18  N   UNL     1      -0.118  -0.094  -0.415  0.00  0.00    +0.381 N 
ATOM     19  H   UNL     1      -1.016  -0.542  -0.312  0.00  0.00    -0.090 HD
ATOM     20  H   UNL     1       0.416  -0.211   0.433  0.00  0.00    -0.090 HD
ATOM     21  H   UNL     1      -0.252   0.890  -0.595  0.00  0.00    -0.090 HD
ENDBRANCH  17  18
BRANCH  17  23
ATOM     22  C   UNL     1      -0.310   0.954  -3.167  0.00  0.00    +0.002 C 
ATOM     23  C   UNL     1      -0.205  -0.533  -2.823  0.00  0.00    -0.018 C 
ENDBRANCH  17  23
ENDBRANCH   1  17
TORSDOF 6
