REMARK  Name = ZINC08456361
REMARK  5 active torsions:
REMARK  status: ('A' for Active; 'I' for Inactive)
REMARK    1  A    between atoms: C_1  and  C_2
REMARK    2  A    between atoms: C_4  and  C_31
REMARK    3  A    between atoms: N_13  and  N_14
REMARK    4  A    between atoms: C_15  and  C_16
REMARK    5  A    between atoms: N_23  and  C_24
REMARK                            x       y       z     vdW  Elec       q    Type
REMARK                         _______ _______ _______ _____ _____    ______ ____
ROOT
ATOM      1  C   UNL     1       1.980   4.469  -1.742  0.00  0.00    +0.067 C 
ATOM      2  C   UNL     1       1.044   3.290  -1.663  0.00  0.00    +0.061 A 
ATOM      3  C   UNL     1      -0.281   3.265  -2.114  0.00  0.00    +0.048 A 
ATOM      4  C   UNL     1      -0.780   2.032  -1.873  0.00  0.00    +0.045 A 
ATOM      5  N   UNL     1       0.200   1.301  -1.277  0.00  0.00    -0.202 N 
ATOM      6  N   UNL     1       1.333   2.117  -1.163  0.00  0.00    -0.169 NA
ATOM      7  C   UNL     1       0.097  -0.024  -0.861  0.00  0.00    +0.257 A 
ATOM      8  N   UNL     1       1.138  -0.624  -0.296  0.00  0.00    -0.177 NA
ATOM      9  C   UNL     1       1.041  -1.889   0.102  0.00  0.00    +0.226 A 
ATOM     10  N   UNL     1      -0.098  -2.553  -0.066  0.00  0.00    -0.179 NA
ATOM     11  C   UNL     1      -1.139  -1.952  -0.632  0.00  0.00    +0.241 A 
ATOM     12  N   UNL     1      -1.042  -0.685  -1.025  0.00  0.00    -0.176 NA
ATOM     13  N   UNL     1      -2.323  -2.641  -0.808  0.00  0.00    -0.205 N 
ATOM     14  N   UNL     1       2.124  -2.513   0.691  0.00  0.00    -0.283 N 
ATOM     15  C   UNL     1      -2.172   1.555  -2.201  0.00  0.00    +0.066 C 
ATOM     16  H   UNL     1      -3.108  -2.179  -1.141  0.00  0.00    +0.177 HD
ATOM     17  H   UNL     1       2.978  -2.055   0.744  0.00  0.00    +0.155 HD
ENDROOT
BRANCH  14  18
ATOM     18  C   UNL     1       1.989  -3.804   1.212  0.00  0.00    +0.034 A 
ATOM     19  C   UNL     1       0.783  -4.207   1.770  0.00  0.00    +0.024 A 
ATOM     20  C   UNL     1       0.651  -5.485   2.277  0.00  0.00    +0.017 A 
ATOM     21  C   UNL     1       1.723  -6.359   2.241  0.00  0.00    +0.018 A 
ATOM     22  C   UNL     1       2.928  -5.959   1.691  0.00  0.00    +0.017 A 
ATOM     23  C   UNL     1       3.063  -4.684   1.176  0.00  0.00    +0.024 A 
ATOM     24 BR   UNL     1       1.541  -8.105   2.943  0.00  0.00    -0.050 Br
ENDBRANCH  14  18
BRANCH  13  25
ATOM     25  N   UNL     1      -2.391  -4.007  -0.504  0.00  0.00    -0.188 NA
ATOM     26  C   UNL     1      -3.519  -4.639  -0.606  0.00  0.00    +0.138 C 
BRANCH  26  27
ATOM     27  C   UNL     1      -3.569  -6.098  -0.397  0.00  0.00    -0.005 A 
ATOM     28  C   UNL     1      -2.411  -6.795  -0.042  0.00  0.00    +0.011 A 
ATOM     29  C   UNL     1      -2.465  -8.159   0.157  0.00  0.00    +0.020 A 
ATOM     30  C   UNL     1      -3.661  -8.839  -0.004  0.00  0.00    +0.041 A 
ATOM     31  C   UNL     1      -4.811  -8.154  -0.361  0.00  0.00    +0.020 A 
ATOM     32  C   UNL     1      -4.772  -6.790  -0.558  0.00  0.00    +0.011 A 
ATOM     33 CL   UNL     1      -3.719 -10.556   0.242  0.00  0.00    -0.084 Cl
ENDBRANCH  26  27
ENDBRANCH  13  25
TORSDOF 3
