REMARK  Name = ZINC38551039
REMARK  6 active torsions:
REMARK  status: ('A' for Active; 'I' for Inactive)
REMARK    1  A    between atoms: C_1  and  C_2
REMARK    2  A    between atoms: N_8  and  C_9
REMARK    3  A    between atoms: C_9  and  C_11
REMARK    4  A    between atoms: C_9  and  C_17
REMARK    5  A    between atoms: C_21  and  N_22
REMARK    6  A    between atoms: C_23  and  C_25
REMARK                            x       y       z     vdW  Elec       q    Type
REMARK                         _______ _______ _______ _____ _____    ______ ____
ROOT
ATOM      1  C   UNL     1       0.723  -2.529   4.682  0.00  0.00    +0.009 A 
ATOM      2  C   UNL     1       1.884  -1.918   5.156  0.00  0.00    -0.030 A 
ATOM      3  C   UNL     1       2.722  -2.693   5.895  0.00  0.00    -0.005 A 
ATOM      4  S   UNL     1       1.914  -4.271   5.941  0.00  0.00    -0.078 S 
ATOM      5  C   UNL     1       0.478  -3.834   4.971  0.00  0.00    +0.078 A 
ATOM      6  C   UNL     1       4.021  -2.295   6.517  0.00  0.00    +0.043 C 
ATOM      7  C   UNL     1       4.466  -0.963   5.894  0.00  0.00    +0.005 C 
ATOM      8  C   UNL     1       3.276   0.002   5.897  0.00  0.00    +0.005 C 
ATOM      9  C   UNL     1       2.229  -0.457   4.882  0.00  0.00    +0.036 C 
ENDROOT
BRANCH   5  10
ATOM     10  N   UNL     1      -0.611  -4.628   4.605  0.00  0.00    -0.273 N 
ATOM     11  C   UNL     1      -0.730  -5.877   5.098  0.00  0.00    +0.284 C 
ATOM     12  O   UNL     1       0.111  -6.313   5.861  0.00  0.00    -0.266 OA
ATOM     13  H   UNL     1      -1.281  -4.281   3.997  0.00  0.00    +0.156 HD
BRANCH  11  14
ATOM     14  C   UNL     1      -1.874  -6.710   4.713  0.00  0.00    +0.189 A 
ATOM     15  C   UNL     1      -2.118  -7.984   5.140  0.00  0.00    +0.054 A 
ATOM     16  C   UNL     1      -3.312  -8.394   4.526  0.00  0.00    +0.042 A 
ATOM     17  C   UNL     1      -3.738  -7.366   3.760  0.00  0.00    +0.196 A 
ATOM     18  O   UNL     1      -2.872  -6.351   3.880  0.00  0.00    -0.458 OA
ENDBRANCH  11  14
ENDBRANCH   5  10
BRANCH   1  19
ATOM     19  C   UNL     1      -0.261  -1.742   3.854  0.00  0.00    +0.135 C 
BRANCH  19  27
ATOM     20  C   UNL     1      -2.901   1.423   0.810  0.00  0.00    +0.044 C 
ATOM     21  C   UNL     1      -2.492  -0.026   0.743  0.00  0.00    -0.046 A 
ATOM     22  C   UNL     1      -2.846  -0.814  -0.344  0.00  0.00    +0.021 A 
ATOM     23  C   UNL     1      -2.455  -2.138  -0.374  0.00  0.00    +0.084 A 
ATOM     24  N   UNL     1      -1.753  -2.659   0.614  0.00  0.00    -0.350 N 
ATOM     25  C   UNL     1      -1.397  -1.941   1.667  0.00  0.00    +0.097 A 
ATOM     26  C   UNL     1      -1.752  -0.599   1.761  0.00  0.00    +0.045 A 
ATOM     27  N   UNL     1      -0.658  -2.531   2.686  0.00  0.00    -0.320 N 
ATOM     28  H   UNL     1      -0.405  -3.465   2.623  0.00  0.00    +0.148 HD
ATOM     29  H   UNL     1      -1.491  -3.592   0.567  0.00  0.00    +0.166 HD
ENDBRANCH  19  27
BRANCH  19  30
ATOM     30  C   UNL     1      -1.478  -1.427   4.686  0.00  0.00    -0.023 A 
ATOM     31  C   UNL     1      -2.549  -2.301   4.701  0.00  0.00    +0.006 A 
ATOM     32  C   UNL     1      -3.665  -2.013   5.463  0.00  0.00    +0.000 A 
ATOM     33  C   UNL     1      -3.711  -0.851   6.211  0.00  0.00    +0.000 A 
ATOM     34  C   UNL     1      -2.639   0.022   6.196  0.00  0.00    +0.000 A 
ATOM     35  C   UNL     1      -1.521  -0.268   5.437  0.00  0.00    +0.006 A 
ENDBRANCH  19  30
ENDBRANCH   1  19
TORSDOF 5
