REMARK  Name = ZINC08815938
REMARK  14 active torsions:
REMARK  status: ('A' for Active; 'I' for Inactive)
REMARK    1  A    between atoms: C_1  and  C_2
REMARK    2  A    between atoms: C_2  and  O_3
REMARK    3  A    between atoms: O_3  and  C_4
REMARK    4  A    between atoms: C_4  and  C_6
REMARK    5  A    between atoms: C_7  and  C_22
REMARK    6  A    between atoms: C_12  and  C_14
REMARK    7  A    between atoms: C_16  and  C_21
REMARK    8  A    between atoms: C_19  and  C_20
REMARK    9  A    between atoms: C_22  and  N_63
REMARK   10  A    between atoms: C_23  and  C_24
REMARK   11  A    between atoms: C_23  and  N_63
REMARK   12  A    between atoms: C_24  and  C_25
REMARK   13  A    between atoms: C_28  and  S_31
REMARK   14  A    between atoms: S_31  and  N_34
REMARK                            x       y       z     vdW  Elec       q    Type
REMARK                         _______ _______ _______ _____ _____    ______ ____
ROOT
ATOM      1  C   UNL     1      -0.100   1.420  -0.160  0.00  0.00    +0.076 C 
ATOM      2  C   UNL     1       1.091   2.050  -0.071  0.00  0.00    +0.007 C 
ATOM      3  N   UNL     1       1.163   3.394   0.158  0.00  0.00    -0.274 N 
ATOM      4  C   UNL     1       0.089   4.180   0.309  0.00  0.00    +0.304 C 
ATOM      5  O   UNL     1       0.253   5.367   0.510  0.00  0.00    -0.252 OA
ATOM      6  N   UNL     1      -1.167   3.696   0.247  0.00  0.00    -0.288 N 
ATOM      7  C   UNL     1      -1.353   2.257  -0.002  0.00  0.00    +0.144 C 
ATOM      8  H   UNL     1       2.041   3.803   0.213  0.00  0.00    +0.156 HD
ATOM      9  H   UNL     1      -1.931   4.284   0.360  0.00  0.00    +0.151 HD
ENDROOT
BRANCH   7  10
ATOM     10  C   UNL     1      -2.177   2.101  -1.254  0.00  0.00    -0.019 A 
ATOM     11  C   UNL     1      -1.993   2.968  -2.315  0.00  0.00    +0.009 A 
ATOM     12  C   UNL     1      -2.745   2.822  -3.465  0.00  0.00    -0.050 A 
ATOM     13  C   UNL     1      -3.688   1.815  -3.551  0.00  0.00    +0.003 A 
ATOM     14  C   UNL     1      -3.876   0.951  -2.489  0.00  0.00    +0.004 A 
ATOM     15  C   UNL     1      -3.120   1.094  -1.340  0.00  0.00    -0.045 A 
ATOM     16  C   UNL     1      -3.324   0.152  -0.181  0.00  0.00    +0.044 C 
ATOM     17  C   UNL     1      -2.541   3.764  -4.624  0.00  0.00    +0.044 C 
ENDBRANCH   7  10
BRANCH   1  18
ATOM     18  C   UNL     1      -0.175   0.028  -0.398  0.00  0.00    +0.339 C 
ATOM     19  O   UNL     1      -0.434  -0.386  -1.512  0.00  0.00    -0.245 OA
BRANCH  18  20
ATOM     20  O   UNL     1       0.039  -0.842   0.612  0.00  0.00    -0.462 OA
BRANCH  20  22
ATOM     21  C   UNL     1       0.196  -3.061   1.556  0.00  0.00    +0.048 C 
ATOM     22  C   UNL     1       0.059  -2.231   0.278  0.00  0.00    +0.229 C 
ENDBRANCH  20  22
ENDBRANCH  18  20
ENDBRANCH   1  18
BRANCH   2  23
ATOM     23  C   UNL     1       2.363   1.256  -0.228  0.00  0.00    -0.030 C 
BRANCH  23  24
ATOM     24  N   UNL     1       3.056   1.690  -1.455  0.00  0.00    +0.383 N 
ATOM     25  H   UNL     1       3.276   2.691  -1.384  0.00  0.00    -0.085 HD
ATOM     26  H   UNL     1       2.444   1.532  -2.264  0.00  0.00    -0.085 HD
BRANCH  24  27
ATOM     27  C   UNL     1       4.306   0.929  -1.634  0.00  0.00    -0.077 C 
BRANCH  27  28
ATOM     28  C   UNL     1       5.002   1.400  -2.913  0.00  0.00    +0.016 C 
BRANCH  28  29
ATOM     29  C   UNL     1       6.281   0.627  -3.103  0.00  0.00    -0.049 A 
ATOM     30  C   UNL     1       7.463   1.102  -2.567  0.00  0.00    +0.005 A 
ATOM     31  C   UNL     1       8.636   0.390  -2.738  0.00  0.00    +0.029 A 
ATOM     32  C   UNL     1       8.628  -0.793  -3.453  0.00  0.00    +0.105 A 
ATOM     33  C   UNL     1       7.447  -1.266  -3.994  0.00  0.00    +0.029 A 
ATOM     34  C   UNL     1       6.274  -0.556  -3.819  0.00  0.00    +0.005 A 
BRANCH  32  35
ATOM     35  S   UNL     1      10.123  -1.698  -3.675  0.00  0.00    +0.056 S 
ATOM     36  O   UNL     1      10.986  -1.325  -2.609  0.00  0.00    -0.153 OA
ATOM     37  O   UNL     1       9.749  -3.047  -3.915  0.00  0.00    -0.153 OA
BRANCH  35  38
ATOM     38  N   UNL     1      10.827  -1.147  -5.069  0.00  0.00    -0.204 NA
ATOM     39  H   UNL     1      10.398  -0.447  -5.585  0.00  0.00    +0.144 HD
ATOM     40  H   UNL     1      11.669  -1.523  -5.369  0.00  0.00    +0.144 HD
ENDBRANCH  35  38
ENDBRANCH  32  35
ENDBRANCH  28  29
ENDBRANCH  27  28
ENDBRANCH  24  27
ENDBRANCH  23  24
ENDBRANCH   2  23
TORSDOF 11
