REMARK  Name = ZINC05918148
REMARK  9 active torsions:
REMARK  status: ('A' for Active; 'I' for Inactive)
REMARK    1  A    between atoms: C_1  and  O_2
REMARK    2  A    between atoms: O_2  and  C_3
REMARK    3  A    between atoms: C_8  and  N_9
REMARK    4  A    between atoms: C_10  and  C_12
REMARK    5  A    between atoms: N_14  and  N_15
REMARK    6  A    between atoms: C_16  and  C_17
REMARK    7  A    between atoms: C_20  and  O_23
REMARK    8  A    between atoms: O_23  and  C_24
REMARK    9  A    between atoms: C_24  and  C_25
REMARK                            x       y       z     vdW  Elec       q    Type
REMARK                         _______ _______ _______ _____ _____    ______ ____
ROOT
ATOM      1  C   UNL     1      -0.287  -4.926  -1.047  0.00  0.00    +0.318 C 
ATOM      2  O   UNL     1      -0.845  -4.376  -1.976  0.00  0.00    -0.263 OA
ATOM      3  N   UNL     1      -0.145  -6.266  -1.044  0.00  0.00    -0.199 N 
ATOM      4  H   UNL     1       0.301  -6.705  -0.303  0.00  0.00    +0.178 HD
ENDROOT
BRANCH   1   6
ATOM      5  N   UNL     1       0.098  -2.778   0.086  0.00  0.00    -0.275 N 
ATOM      6  C   UNL     1       0.240  -4.118   0.089  0.00  0.00    +0.305 C 
ATOM      7  O   UNL     1       0.798  -4.667   1.017  0.00  0.00    -0.265 OA
ATOM      8  H   UNL     1      -0.417  -2.346  -0.614  0.00  0.00    +0.155 HD
BRANCH   5  14
ATOM      9  C   UNL     1       0.172  -0.757   1.415  0.00  0.00    +0.141 A 
ATOM     10  C   UNL     1       0.761  -0.003   2.417  0.00  0.00    +0.049 A 
ATOM     11  C   UNL     1       1.866  -0.489   3.090  0.00  0.00    +0.024 A 
ATOM     12  C   UNL     1       2.387  -1.730   2.767  0.00  0.00    +0.043 A 
ATOM     13  C   UNL     1       1.806  -2.489   1.769  0.00  0.00    +0.047 A 
ATOM     14  C   UNL     1       0.692  -2.009   1.093  0.00  0.00    +0.077 A 
ATOM     15 CL   UNL     1       3.775  -2.334   3.618  0.00  0.00    -0.083 Cl
BRANCH   9  17
ATOM     16  C   UNL     1      -1.393   1.011   1.135  0.00  0.00    +0.277 C 
ATOM     17  O   UNL     1      -0.915  -0.280   0.752  0.00  0.00    -0.493 OA
ENDBRANCH   9  17
ENDBRANCH   5  14
ENDBRANCH   1   6
BRANCH   3  18
ATOM     18  N   UNL     1      -0.640  -7.025  -2.112  0.00  0.00    -0.187 NA
ATOM     19  C   UNL     1      -0.503  -8.317  -2.110  0.00  0.00    +0.138 C 
BRANCH  19  20
ATOM     20  C   UNL     1      -1.024  -9.116  -3.233  0.00  0.00    -0.005 A 
ATOM     21  C   UNL     1      -1.661  -8.485  -4.305  0.00  0.00    +0.013 A 
ATOM     22  C   UNL     1      -2.147  -9.236  -5.354  0.00  0.00    +0.046 A 
ATOM     23  C   UNL     1      -2.004 -10.618  -5.346  0.00  0.00    +0.121 A 
ATOM     24  C   UNL     1      -1.371 -11.249  -4.282  0.00  0.00    +0.046 A 
ATOM     25  C   UNL     1      -0.878 -10.506  -3.232  0.00  0.00    +0.013 A 
BRANCH  23  26
ATOM     26  O   UNL     1      -2.484 -11.354  -6.382  0.00  0.00    -0.483 OA
BRANCH  26  27
ATOM     27  C   UNL     1      -2.303 -12.770  -6.310  0.00  0.00    +0.324 C 
BRANCH  27  28
ATOM     28  C   UNL     1      -2.894 -13.414  -7.537  0.00  0.00    +0.248 C 
ATOM     29  O   UNL     1      -3.419 -12.729  -8.389  0.00  0.00    -0.272 OA
ATOM     30  N   UNL     1      -2.840 -14.753  -7.688  0.00  0.00    -0.327 N 
ATOM     31  H   UNL     1      -2.421 -15.301  -7.006  0.00  0.00    +0.145 HD
ATOM     32  H   UNL     1      -3.221 -15.168  -8.477  0.00  0.00    +0.145 HD
ENDBRANCH  27  28
ENDBRANCH  26  27
ENDBRANCH  23  26
ENDBRANCH  19  20
ENDBRANCH   3  18
TORSDOF 8
