REMARK  Name = ZINC23125511
REMARK  10 active torsions:
REMARK  status: ('A' for Active; 'I' for Inactive)
REMARK    1  A    between atoms: C_1  and  C_2
REMARK    2  A    between atoms: C_2  and  O_3
REMARK    3  A    between atoms: O_3  and  C_4
REMARK    4  A    between atoms: C_9  and  N_10
REMARK    5  A    between atoms: C_11  and  C_13
REMARK    6  A    between atoms: C_13  and  N_14
REMARK    7  A    between atoms: C_15  and  N_33
REMARK    8  A    between atoms: C_16  and  C_21
REMARK    9  A    between atoms: N_19  and  C_20
REMARK   10  A    between atoms: C_23  and  C_26
REMARK                            x       y       z     vdW  Elec       q    Type
REMARK                         _______ _______ _______ _____ _____    ______ ____
ROOT
ATOM      1  N   UNL     1       8.175   0.181  -0.074  0.00  0.00    -0.262 N 
ATOM      2  C   UNL     1       6.930  -0.339  -0.069  0.00  0.00    +0.127 A 
ATOM      3  C   UNL     1       6.038   0.728  -0.057  0.00  0.00    +0.117 A 
ATOM      4  C   UNL     1       6.812   1.916  -0.046  0.00  0.00    +0.127 A 
ATOM      5  N   UNL     1       8.076   1.576  -0.057  0.00  0.00    -0.282 N 
ATOM      6  N   UNL     1       6.314   3.220  -0.027  0.00  0.00    -0.332 N 
ATOM      7  C   UNL     1       7.237   4.357  -0.018  0.00  0.00    +0.127 C 
ATOM      8  H   UNL     1       5.228   3.393  -0.019  0.00  0.00    +0.147 HD
ATOM      9  H   UNL     1       8.987   2.192  -0.054  0.00  0.00    +0.188 HD
ENDROOT
BRANCH   3  10
ATOM     10  C   UNL     1       4.571   0.640  -0.051  0.00  0.00    +0.265 A 
ATOM     11  N   UNL     1       3.719   1.654  -0.040  0.00  0.00    -0.187 NA
ATOM     12  C   UNL     1       2.492   1.093  -0.035  0.00  0.00    +0.202 A 
ATOM     13  N   UNL     1       2.655  -0.205  -0.052  0.00  0.00    -0.056 NA
ATOM     14  O   UNL     1       3.835  -0.484  -0.061  0.00  0.00    -0.332 OA
BRANCH  12  15
ATOM     15  C   UNL     1       1.196   1.816  -0.020  0.00  0.00    +0.023 A 
ATOM     16  C   UNL     1      -0.001   1.104  -0.023  0.00  0.00    +0.013 A 
ATOM     17  C   UNL     1      -1.204   1.780  -0.014  0.00  0.00    +0.021 A 
ATOM     18  C   UNL     1      -1.222   3.165   0.008  0.00  0.00    +0.041 A 
ATOM     19  C   UNL     1      -0.035   3.877   0.011  0.00  0.00    +0.021 A 
ATOM     20  C   UNL     1       1.173   3.209  -0.003  0.00  0.00    +0.013 A 
ATOM     21 CL   UNL     1      -2.738   4.010   0.026  0.00  0.00    -0.084 Cl
ENDBRANCH  12  15
ENDBRANCH   3  10
BRANCH   2  22
ATOM     22  N   UNL     1       6.603  -1.683  -0.076  0.00  0.00    -0.343 N 
ATOM     23  H   UNL     1       5.547  -1.991  -0.070  0.00  0.00    +0.144 HD
ATOM     24  H   UNL     1       7.398  -2.442  -0.088  0.00  0.00    +0.144 HD
ENDBRANCH   2  22
BRANCH   1  25
ATOM     25  C   UNL     1       9.422  -0.588  -0.091  0.00  0.00    +0.239 C 
BRANCH  25  27
ATOM     26  N   UNL     1      10.987  -1.567   1.556  0.00  0.00    -0.281 N 
ATOM     27  C   UNL     1       9.858  -0.869   1.324  0.00  0.00    +0.239 C 
ATOM     28  O   UNL     1       9.192  -0.467   2.255  0.00  0.00    -0.273 OA
ATOM     29  H   UNL     1      11.543  -2.009   0.715  0.00  0.00    +0.155 HD
BRANCH  26  35
ATOM     30  C   UNL     1      12.269  -2.813   3.189  0.00  0.00    +0.142 A 
ATOM     31  C   UNL     1      12.727  -2.969   4.487  0.00  0.00    +0.047 A 
ATOM     32  C   UNL     1      12.377  -2.050   5.459  0.00  0.00    +0.004 A 
ATOM     33  C   UNL     1      11.569  -0.975   5.140  0.00  0.00    +0.002 A 
ATOM     34  C   UNL     1      11.112  -0.809   3.846  0.00  0.00    +0.027 A 
ATOM     35  C   UNL     1      11.454  -1.730   2.867  0.00  0.00    +0.076 A 
BRANCH  30  36
ATOM     36  O   UNL     1      12.613  -3.715   2.231  0.00  0.00    -0.490 OA
BRANCH  36  38
ATOM     37  C   UNL     1      13.728  -5.704   1.431  0.00  0.00    +0.048 C 
ATOM     38  C   UNL     1      13.450  -4.801   2.634  0.00  0.00    +0.226 C 
ENDBRANCH  36  38
ENDBRANCH  30  36
ENDBRANCH  26  35
ENDBRANCH  25  27
ENDBRANCH   1  25
TORSDOF 8
