REMARK  Name = ZINC60582425
REMARK  7 active torsions:
REMARK  status: ('A' for Active; 'I' for Inactive)
REMARK    1  A    between atoms: C_1  and  C_2
REMARK    2  A    between atoms: N_6  and  C_8
REMARK    3  A    between atoms: C_8  and  C_9
REMARK    4  A    between atoms: C_8  and  C_10
REMARK    5  A    between atoms: C_10  and  N_11
REMARK    6  A    between atoms: N_14  and  C_15
REMARK    7  A    between atoms: C_17  and  C_23
REMARK                            x       y       z     vdW  Elec       q    Type
REMARK                         _______ _______ _______ _____ _____    ______ ____
ROOT
ATOM      1  N   UNL     1       3.055  -0.574   2.005  0.00  0.00    -0.301 N 
ATOM      2  C   UNL     1       4.228   0.047   1.769  0.00  0.00    +0.304 C 
ATOM      3  O   UNL     1       5.208  -0.603   1.456  0.00  0.00    -0.253 OA
ATOM      4  N   UNL     1       4.316   1.387   1.880  0.00  0.00    -0.265 N 
ATOM      5  H   UNL     1       2.274  -0.056   2.254  0.00  0.00    +0.150 HD
ATOM      6  H   UNL     1       3.519   1.912   2.058  0.00  0.00    +0.157 HD
ENDROOT
BRANCH   4   7
ATOM      7  C   UNL     1       5.557   2.023   1.739  0.00  0.00    +0.100 A 
ATOM      8  C   UNL     1       5.740   2.979   0.779  0.00  0.00    +0.042 A 
ATOM      9  C   UNL     1       6.992   3.600   0.659  0.00  0.00    +0.073 A 
ATOM     10  C   UNL     1       8.002   3.251   1.489  0.00  0.00    +0.098 A 
ATOM     11  N   UNL     1       7.822   2.301   2.444  0.00  0.00    -0.327 N 
ATOM     12  H   UNL     1       8.559   2.064   3.029  0.00  0.00    +0.168 HD
ATOM     13  C   UNL     1       6.632   1.688   2.591  0.00  0.00    +0.270 A 
ATOM     14  O   UNL     1       6.484   0.840   3.457  0.00  0.00    -0.266 OA
BRANCH   9  15
ATOM     15  C   UNL     1       7.212   4.655  -0.394  0.00  0.00    +0.419 C 
ATOM     16  F   UNL     1       8.528   5.123  -0.317  0.00  0.00    -0.166 F 
ATOM     17  F   UNL     1       6.985   4.105  -1.660  0.00  0.00    -0.166 F 
ATOM     18  F   UNL     1       6.327   5.717  -0.181  0.00  0.00    -0.166 F 
ENDBRANCH   9  15
ENDBRANCH   4   7
BRANCH   1  19
ATOM     19  C   UNL     1       2.961  -2.031   1.883  0.00  0.00    +0.090 C 
BRANCH  19  20
ATOM     20  C   UNL     1       1.505  -2.464   2.067  0.00  0.00    -0.054 C 
ATOM     21  C   UNL     1       1.390  -3.974   1.843  0.00  0.00    -0.012 C 
BRANCH  20  27
ATOM     22  C   UNL     1      -3.111  -1.594   0.686  0.00  0.00    +0.005 C 
ATOM     23  C   UNL     1      -1.642  -1.271   0.406  0.00  0.00    -0.031 C 
ATOM     24  C   UNL     1      -1.301  -1.655  -1.037  0.00  0.00    -0.001 C 
ATOM     25  C   UNL     1       0.189  -1.400  -1.283  0.00  0.00    -0.018 C 
ATOM     26  C   UNL     1       1.011  -2.191  -0.263  0.00  0.00    -0.078 C 
ATOM     27  N   UNL     1       0.658  -1.759   1.095  0.00  0.00    +0.383 N 
ATOM     28  C   UNL     1      -0.752  -2.066   1.363  0.00  0.00    -0.075 C 
ATOM     29  H   UNL     1       0.807  -0.765   1.181  0.00  0.00    -0.081 HD
ENDBRANCH  20  27
ENDBRANCH  19  20
ENDBRANCH   1  19
TORSDOF 5
