REMARK  Name = ZINC45727643
REMARK  7 active torsions:
REMARK  status: ('A' for Active; 'I' for Inactive)
REMARK    1  A    between atoms: C_4  and  N_10
REMARK    2  A    between atoms: C_5  and  C_7
REMARK    3  A    between atoms: C_11  and  C_13
REMARK    4  A    between atoms: C_13  and  N_14
REMARK    5  A    between atoms: N_17  and  C_20
REMARK    6  A    between atoms: C_20  and  C_21
REMARK    7  A    between atoms: C_20  and  C_28
REMARK                            x       y       z     vdW  Elec       q    Type
REMARK                         _______ _______ _______ _____ _____    ______ ____
ROOT
ATOM      1  N   UNL     1       6.763   0.365  -0.464  0.00  0.00    +0.387 N 
ATOM      2  C   UNL     1       6.838   1.181   0.754  0.00  0.00    -0.063 C 
ATOM      3  C   UNL     1       7.939   2.233   0.596  0.00  0.00    +0.067 C 
ATOM      4  N   UNL     1       9.224   1.561   0.355  0.00  0.00    -0.295 NA
ATOM      5  C   UNL     1       9.155   0.720  -0.848  0.00  0.00    +0.067 C 
ATOM      6  C   UNL     1       8.045  -0.319  -0.678  0.00  0.00    -0.063 C 
ATOM      7  H   UNL     1       6.563   0.959  -1.255  0.00  0.00    -0.081 HD
ENDROOT
BRANCH   1   8
ATOM      8  C   UNL     1       5.694  -0.633  -0.319  0.00  0.00    +0.019 C 
BRANCH   8  10
ATOM      9  N   UNL     1       3.232  -0.653  -0.084  0.00  0.00    -0.286 N 
ATOM     10  C   UNL     1       4.363   0.067  -0.223  0.00  0.00    +0.201 C 
ATOM     11  O   UNL     1       4.310   1.277  -0.271  0.00  0.00    -0.278 OA
ATOM     12  H   UNL     1       3.281  -1.614   0.036  0.00  0.00    +0.155 HD
BRANCH   9  16
ATOM     13  C   UNL     1      -0.475   1.254  -0.174  0.00  0.00    +0.001 A 
ATOM     14  C   UNL     1       0.619   1.823  -0.806  0.00  0.00    +0.002 A 
ATOM     15  C   UNL     1       1.847   1.194  -0.778  0.00  0.00    +0.024 A 
ATOM     16  C   UNL     1       1.994  -0.016  -0.113  0.00  0.00    +0.045 A 
ATOM     17  C   UNL     1       0.888  -0.595   0.528  0.00  0.00    +0.058 A 
ATOM     18  C   UNL     1      -0.348   0.053   0.490  0.00  0.00    +0.015 A 
BRANCH  17  19
ATOM     19  C   UNL     1       1.031  -1.881   1.236  0.00  0.00    +0.243 C 
ATOM     20  O   UNL     1       2.127  -2.394   1.349  0.00  0.00    -0.270 OA
ATOM     21  N   UNL     1      -0.054  -2.486   1.759  0.00  0.00    -0.325 N 
ATOM     22  H   UNL     1      -0.928  -2.076   1.669  0.00  0.00    +0.145 HD
ATOM     23  H   UNL     1       0.040  -3.332   2.225  0.00  0.00    +0.145 HD
ENDBRANCH  17  19
ENDBRANCH   9  16
ENDBRANCH   8  10
ENDBRANCH   1   8
BRANCH   4  24
ATOM     24  C   UNL     1      10.317   2.537   0.255  0.00  0.00    +0.117 C 
BRANCH  24  25
ATOM     25  C   UNL     1      10.336   3.400   1.490  0.00  0.00    -0.026 A 
ATOM     26  C   UNL     1      10.212   2.820   2.739  0.00  0.00    +0.008 A 
ATOM     27  C   UNL     1      10.230   3.611   3.873  0.00  0.00    +0.038 A 
ATOM     28  C   UNL     1      10.372   4.983   3.757  0.00  0.00    +0.123 A 
ATOM     29  C   UNL     1      10.496   5.562   2.506  0.00  0.00    +0.038 A 
ATOM     30  C   UNL     1      10.483   4.769   1.374  0.00  0.00    +0.008 A 
ATOM     31  F   UNL     1      10.389   5.756   4.865  0.00  0.00    -0.205 F 
ENDBRANCH  24  25
BRANCH  24  32
ATOM     32  C   UNL     1      11.630   1.809   0.130  0.00  0.00    -0.026 A 
ATOM     33  C   UNL     1      11.825   0.615   0.800  0.00  0.00    +0.008 A 
ATOM     34  C   UNL     1      13.028  -0.054   0.687  0.00  0.00    +0.038 A 
ATOM     35  C   UNL     1      14.040   0.472  -0.098  0.00  0.00    +0.123 A 
ATOM     36  C   UNL     1      13.845   1.667  -0.769  0.00  0.00    +0.038 A 
ATOM     37  C   UNL     1      12.639   2.332  -0.658  0.00  0.00    +0.008 A 
ATOM     38  F   UNL     1      15.218  -0.181  -0.210  0.00  0.00    -0.205 F 
ENDBRANCH  24  32
ENDBRANCH   4  24
TORSDOF 7
