REMARK  Name = ZINC32929287
REMARK  11 active torsions:
REMARK  status: ('A' for Active; 'I' for Inactive)
REMARK    1  A    between atoms: C_1  and  C_2
REMARK    2  A    between atoms: C_5  and  C_24
REMARK    3  A    between atoms: C_6  and  O_8
REMARK    4  A    between atoms: O_8  and  C_9
REMARK    5  A    between atoms: C_9  and  C_10
REMARK    6  A    between atoms: N_12  and  N_13
REMARK    7  A    between atoms: C_14  and  C_15
REMARK    8  A    between atoms: C_18  and  O_22
REMARK    9  A    between atoms: O_22  and  C_23
REMARK   10  A    between atoms: C_24  and  C_25
REMARK   11  A    between atoms: C_24  and  C_26
REMARK                            x       y       z     vdW  Elec       q    Type
REMARK                         _______ _______ _______ _____ _____    ______ ____
ROOT
ATOM      1  C   UNL     1      -4.784   2.144  -0.240  0.00  0.00    +0.270 C 
ATOM      2  O   UNL     1      -5.824   2.744  -0.409  0.00  0.00    -0.270 OA
ATOM      3  N   UNL     1      -3.637   2.825  -0.045  0.00  0.00    -0.204 N 
ATOM      4  H   UNL     1      -2.693   2.282   0.108  0.00  0.00    +0.177 HD
ENDROOT
BRANCH   3   5
ATOM      5  N   UNL     1      -3.648   4.226  -0.038  0.00  0.00    -0.188 NA
ATOM      6  C   UNL     1      -2.530   4.883   0.022  0.00  0.00    +0.138 C 
BRANCH   6   7
ATOM      7  C   UNL     1      -1.285   4.267  -0.472  0.00  0.00    -0.004 A 
ATOM      8  C   UNL     1      -1.340   3.127  -1.278  0.00  0.00    +0.013 A 
ATOM      9  C   UNL     1      -0.174   2.554  -1.738  0.00  0.00    +0.047 A 
ATOM     10  C   UNL     1       1.054   3.109  -1.402  0.00  0.00    +0.133 A 
ATOM     11  C   UNL     1       1.114   4.243  -0.601  0.00  0.00    +0.056 A 
ATOM     12  C   UNL     1      -0.047   4.819  -0.132  0.00  0.00    +0.027 A 
ATOM     13  I   UNL     1       2.971   5.073  -0.099  0.00  0.00    -0.040 I 
BRANCH  10  14
ATOM     14  O   UNL     1       2.201   2.541  -1.858  0.00  0.00    -0.494 OA
ATOM     15  C   UNL     1       2.068   1.377  -2.676  0.00  0.00    +0.277 C 
ENDBRANCH  10  14
ENDBRANCH   6   7
ENDBRANCH   3   5
BRANCH   1  16
ATOM     16  C   UNL     1      -4.772   0.637  -0.248  0.00  0.00    +0.326 C 
BRANCH  16  17
ATOM     17  O   UNL     1      -6.098   0.152  -0.472  0.00  0.00    -0.482 OA
BRANCH  17  23
ATOM     18  C   UNL     1      -4.159  -4.318  -0.179  0.00  0.00    +0.044 C 
ATOM     19  C   UNL     1      -5.343  -3.406  -0.370  0.00  0.00    -0.047 A 
ATOM     20  C   UNL     1      -6.601  -3.941  -0.582  0.00  0.00    +0.004 A 
ATOM     21  C   UNL     1      -7.689  -3.107  -0.757  0.00  0.00    +0.008 A 
ATOM     22  C   UNL     1      -7.523  -1.736  -0.721  0.00  0.00    -0.003 A 
ATOM     23  C   UNL     1      -6.263  -1.196  -0.508  0.00  0.00    +0.125 A 
ATOM     24  C   UNL     1      -5.171  -2.035  -0.338  0.00  0.00    +0.049 A 
BRANCH  22  25
ATOM     25  C   UNL     1      -8.710  -0.828  -0.912  0.00  0.00    +0.016 C 
ATOM     26  C   UNL     1      -9.336  -1.087  -2.284  0.00  0.00    +0.012 C 
ATOM     27  C   UNL     1      -9.745  -1.104   0.181  0.00  0.00    +0.012 C 
ENDBRANCH  22  25
ENDBRANCH  17  23
ENDBRANCH  16  17
ENDBRANCH   1  16
TORSDOF 7
