REMARK  Name = ZINC08964212
REMARK  9 active torsions:
REMARK  status: ('A' for Active; 'I' for Inactive)
REMARK    1  A    between atoms: C_1  and  C_2
REMARK    2  A    between atoms: N_4  and  C_5
REMARK    3  A    between atoms: C_8  and  N_11
REMARK    4  A    between atoms: C_12  and  C_14
REMARK    5  A    between atoms: N_16  and  C_17
REMARK    6  A    between atoms: C_17  and  C_18
REMARK    7  A    between atoms: C_18  and  C_20
REMARK    8  A    between atoms: C_18  and  N_64
REMARK    9  A    between atoms: N_28  and  C_29
REMARK                            x       y       z     vdW  Elec       q    Type
REMARK                         _______ _______ _______ _____ _____    ______ ____
ROOT
ATOM      1  C   UNL     1      -0.744  11.440   1.956  0.00  0.00    +0.299 C 
ATOM      2  O   UNL     1      -1.338  10.861   1.070  0.00  0.00    -0.265 OA
ATOM      3  N   UNL     1       0.591  11.608   1.874  0.00  0.00    -0.309 N 
ATOM      4  H   UNL     1       1.066  12.071   2.581  0.00  0.00    +0.149 HD
ENDROOT
BRANCH   1   6
ATOM      5  N   UNL     1      -2.827  11.801   3.217  0.00  0.00    -0.278 N 
ATOM      6  C   UNL     1      -1.492  11.968   3.136  0.00  0.00    +0.303 C 
ATOM      7  O   UNL     1      -0.897  12.548   4.021  0.00  0.00    -0.265 OA
ATOM      8  H   UNL     1      -3.311  11.398   2.480  0.00  0.00    +0.155 HD
BRANCH   5  12
ATOM      9  C   UNL     1      -4.874  13.016   6.638  0.00  0.00    +0.033 A 
ATOM     10  C   UNL     1      -5.273  11.872   5.960  0.00  0.00    +0.025 A 
ATOM     11  C   UNL     1      -4.599  11.472   4.824  0.00  0.00    +0.025 A 
ATOM     12  C   UNL     1      -3.513  12.209   4.365  0.00  0.00    +0.034 A 
ATOM     13  C   UNL     1      -3.110  13.350   5.048  0.00  0.00    +0.025 A 
ATOM     14  C   UNL     1      -3.788  13.752   6.180  0.00  0.00    +0.025 A 
BRANCH   9  18
ATOM     15  C   UNL     1      -7.604  13.534   9.178  0.00  0.00    +0.109 C 
ATOM     16  C   UNL     1      -6.885  13.195   7.898  0.00  0.00    +0.214 C 
ATOM     17  O   UNL     1      -7.498  12.720   6.966  0.00  0.00    -0.276 OA
ATOM     18  N   UNL     1      -5.562  13.425   7.787  0.00  0.00    -0.286 N 
ATOM     19  H   UNL     1      -5.086  13.873   8.504  0.00  0.00    +0.155 HD
ENDBRANCH   9  18
ENDBRANCH   5  12
ENDBRANCH   1   6
BRANCH   3  20
ATOM     20  C   UNL     1       1.324  11.090   0.716  0.00  0.00    +0.094 C 
BRANCH  20  21
ATOM     21  C   UNL     1       2.825  11.306   0.925  0.00  0.00    -0.020 C 
BRANCH  21  22
ATOM     22  C   UNL     1       3.124  12.783   0.922  0.00  0.00    -0.059 A 
ATOM     23  C   UNL     1       3.234  13.465  -0.277  0.00  0.00    +0.004 A 
ATOM     24  C   UNL     1       3.506  14.817  -0.284  0.00  0.00    +0.023 A 
ATOM     25  C   UNL     1       3.683  15.504   0.916  0.00  0.00    +0.033 A 
ATOM     26  C   UNL     1       3.572  14.809   2.114  0.00  0.00    -0.025 A 
ATOM     27  C   UNL     1       3.296  13.457   2.117  0.00  0.00    +0.007 A 
ATOM     28  C   UNL     1       3.797  15.791   3.247  0.00  0.00    +0.056 C 
ATOM     29  C   UNL     1       3.632  17.162   2.550  0.00  0.00    +0.109 C 
ATOM     30  N   UNL     1       3.976  16.854   1.145  0.00  0.00    -0.332 N 
ATOM     31  C   UNL     1       3.233  17.718   0.219  0.00  0.00    +0.129 C 
ENDBRANCH  21  22
BRANCH  21  36
ATOM     32  C   UNL     1       5.033  10.835   0.014  0.00  0.00    -0.078 C 
ATOM     33  C   UNL     1       5.636   9.697  -0.848  0.00  0.00    -0.020 C 
ATOM     34  C   UNL     1       4.652   8.528  -0.615  0.00  0.00    -0.020 C 
ATOM     35  C   UNL     1       3.340   9.192  -0.155  0.00  0.00    -0.078 C 
ATOM     36  N   UNL     1       3.587  10.634  -0.171  0.00  0.00    +0.385 N 
ATOM     37  H   UNL     1       3.295  11.027  -1.073  0.00  0.00    -0.081 HD
ENDBRANCH  21  36
ENDBRANCH  20  21
ENDBRANCH   3  20
TORSDOF 7
