REMARK  Name = ZINC39266769
REMARK  14 active torsions:
REMARK  status: ('A' for Active; 'I' for Inactive)
REMARK    1  A    between atoms: C_1  and  C_2
REMARK    2  A    between atoms: C_5  and  S_8
REMARK    3  A    between atoms: S_8  and  N_11
REMARK    4  A    between atoms: N_11  and  C_12
REMARK    5  A    between atoms: N_11  and  C_19
REMARK    6  A    between atoms: C_12  and  C_13
REMARK    7  A    between atoms: C_13  and  C_14
REMARK    8  A    between atoms: C_19  and  C_20
REMARK    9  A    between atoms: N_22  and  C_23
REMARK   10  A    between atoms: C_25  and  C_32
REMARK   11  A    between atoms: C_25  and  C_33
REMARK   12  A    between atoms: N_26  and  C_31
REMARK   13  A    between atoms: C_27  and  C_29
REMARK   14  A    between atoms: C_27  and  C_30
REMARK                            x       y       z     vdW  Elec       q    Type
REMARK                         _______ _______ _______ _____ _____    ______ ____
ROOT
ATOM      1  N   UNL     1       0.903  -4.491  -0.147  0.00  0.00    -0.167 NA
ENDROOT
BRANCH   1   2
ATOM      2  S   UNL     1      -0.614  -3.838  -0.262  0.00  0.00    +0.061 S 
ATOM      3  O   UNL     1      -1.283  -4.149   0.953  0.00  0.00    -0.153 OA
ATOM      4  O   UNL     1      -1.125  -4.219  -1.532  0.00  0.00    -0.153 OA
BRANCH   2   9
ATOM      5  C   UNL     1       0.026   2.160  -0.389  0.00  0.00    +0.044 C 
ATOM      6  C   UNL     1      -0.134   0.662  -0.357  0.00  0.00    -0.050 A 
ATOM      7  C   UNL     1      -0.130  -0.059  -1.537  0.00  0.00    +0.005 A 
ATOM      8  C   UNL     1      -0.277  -1.433  -1.508  0.00  0.00    +0.029 A 
ATOM      9  C   UNL     1      -0.426  -2.087  -0.299  0.00  0.00    +0.106 A 
ATOM     10  C   UNL     1      -0.429  -1.366   0.881  0.00  0.00    +0.029 A 
ATOM     11  C   UNL     1      -0.278   0.007   0.852  0.00  0.00    +0.005 A 
ENDBRANCH   2   9
ENDBRANCH   1   2
BRANCH   1  12
ATOM     12  C   UNL     1       1.494  -4.745   1.169  0.00  0.00    +0.115 C 
BRANCH  12  13
ATOM     13  C   UNL     1       1.236  -6.198   1.573  0.00  0.00    +0.059 C 
BRANCH  13  14
ATOM     14  C   UNL     1       1.844  -6.458   2.927  0.00  0.00    -0.009 A 
ATOM     15  C   UNL     1       1.284  -6.323   4.154  0.00  0.00    +0.011 A 
ATOM     16  C   UNL     1       2.039  -6.624   5.272  0.00  0.00    +0.008 A 
ATOM     17  C   UNL     1       3.317  -7.046   5.108  0.00  0.00    +0.045 A 
ATOM     18  S   UNL     1       3.485  -7.034   3.331  0.00  0.00    -0.102 S 
ENDBRANCH  13  14
ENDBRANCH  12  13
ENDBRANCH   1  12
BRANCH   1  19
ATOM     19  C   UNL     1       1.655  -4.816  -1.362  0.00  0.00    +0.205 C 
BRANCH  19  20
ATOM     20  C   UNL     1       2.566  -3.667  -1.711  0.00  0.00    +0.229 C 
ATOM     21  O   UNL     1       2.586  -2.675  -1.013  0.00  0.00    -0.274 OA
ATOM     22  N   UNL     1       3.359  -3.742  -2.798  0.00  0.00    -0.311 N 
ATOM     23  H   UNL     1       3.344  -4.535  -3.356  0.00  0.00    +0.149 HD
BRANCH  22  24
ATOM     24  C   UNL     1       4.248  -2.623  -3.137  0.00  0.00    +0.070 C 
ATOM     25  C   UNL     1       3.479  -1.613  -3.991  0.00  0.00    +0.010 C 
ATOM     26  C   UNL     1       4.394  -0.448  -4.366  0.00  0.00    -0.069 C 
ATOM     27  N   UNL     1       5.622  -0.898  -5.008  0.00  0.00    +0.385 N 
ATOM     28  C   UNL     1       6.338  -2.002  -4.386  0.00  0.00    -0.069 C 
ATOM     29  C   UNL     1       5.426  -3.146  -3.958  0.00  0.00    +0.010 C 
ATOM     30  C   UNL     1       7.181  -1.532  -3.197  0.00  0.00    -0.010 C 
ATOM     31  C   UNL     1       7.321  -2.568  -5.439  0.00  0.00    -0.010 C 
ATOM     32  C   UNL     1       6.540   0.253  -5.138  0.00  0.00    -0.095 C 
ATOM     33  C   UNL     1       4.671   0.423  -3.142  0.00  0.00    -0.010 C 
ATOM     34  C   UNL     1       3.629   0.425  -5.387  0.00  0.00    -0.010 C 
ATOM     35  H   UNL     1       5.383  -1.185  -5.965  0.00  0.00    -0.081 HD
ENDBRANCH  22  24
ENDBRANCH  19  20
ENDBRANCH   1  19
TORSDOF 8
