REMARK  Name = ZINC42036208
REMARK  5 active torsions:
REMARK  status: ('A' for Active; 'I' for Inactive)
REMARK    1  A    between atoms: C_1  and  C_2
REMARK    2  A    between atoms: C_2  and  C_3
REMARK    3  A    between atoms: C_2  and  N_4
REMARK    4  A    between atoms: C_5  and  C_8
REMARK    5  A    between atoms: N_6  and  N_7
REMARK                            x       y       z     vdW  Elec       q    Type
REMARK                         _______ _______ _______ _____ _____    ______ ____
ROOT
ATOM      1  N   UNL     1      -1.317  -0.484  -0.474  0.00  0.00    -0.324 N 
ATOM      2  C   UNL     1      -1.655  -1.805  -0.775  0.00  0.00    +0.152 C 
ATOM      3  N   UNL     1      -0.724  -2.716  -0.850  0.00  0.00    -0.298 N 
ATOM      4  H   UNL     1      -2.009   0.193  -0.419  0.00  0.00    +0.148 HD
ATOM      5  H   UNL     1       0.210  -2.461  -0.784  0.00  0.00    +0.185 HD
ENDROOT
BRANCH   2   6
ATOM      6  C   UNL     1      -3.060  -2.170  -1.008  0.00  0.00    +0.168 A 
ATOM      7  C   UNL     1      -4.141  -1.635  -0.374  0.00  0.00    +0.054 A 
ATOM      8  C   UNL     1      -5.279  -2.273  -0.905  0.00  0.00    +0.057 A 
ATOM      9  C   UNL     1      -4.844  -3.157  -1.826  0.00  0.00    +0.171 A 
ATOM     10  O   UNL     1      -3.504  -3.088  -1.890  0.00  0.00    -0.445 OA
ATOM     11 BR   UNL     1      -5.939  -4.299  -2.862  0.00  0.00    -0.008 Br
ENDBRANCH   2   6
BRANCH   1  13
ATOM     12  C   UNL     1       0.282   1.365  -0.549  0.00  0.00    +0.027 C 
ATOM     13  C   UNL     1       0.083  -0.121  -0.242  0.00  0.00    +0.066 C 
ATOM     14  C   UNL     1       0.445  -0.392   1.220  0.00  0.00    +0.027 C 
ENDBRANCH   1  13
BRANCH   3  15
ATOM     15  N   UNL     1      -1.072  -4.061  -1.024  0.00  0.00    -0.304 N 
ATOM     16  H   UNL     1      -2.002  -4.332  -0.976  0.00  0.00    +0.162 HD
ATOM     17  H   UNL     1      -0.383  -4.723  -1.192  0.00  0.00    +0.162 HD
ENDBRANCH   3  15
TORSDOF 3
