REMARK  Name = ZINC16195361
REMARK  12 active torsions:
REMARK  status: ('A' for Active; 'I' for Inactive)
REMARK    1  A    between atoms: C_1  and  O_2
REMARK    2  A    between atoms: O_2  and  C_3
REMARK    3  A    between atoms: C_5  and  C_15
REMARK    4  A    between atoms: C_8  and  O_9
REMARK    5  A    between atoms: O_9  and  C_10
REMARK    6  A    between atoms: C_10  and  C_11
REMARK    7  A    between atoms: C_15  and  N_48
REMARK    8  A    between atoms: C_16  and  C_17
REMARK    9  A    between atoms: C_16  and  N_48
REMARK   10  A    between atoms: C_17  and  N_18
REMARK   11  A    between atoms: N_18  and  C_19
REMARK   12  A    between atoms: C_22  and  N_26
REMARK                            x       y       z     vdW  Elec       q    Type
REMARK                         _______ _______ _______ _____ _____    ______ ____
ROOT
ATOM      1  C   UNL     1      -0.013   1.086   0.008  0.00  0.00    -0.047 C 
ENDROOT
BRANCH   1   4
ATOM      2  C   UNL     1      -1.010   3.231   2.954  0.00  0.00    +0.163 A 
ATOM      3  C   UNL     1      -0.359   2.779   1.817  0.00  0.00    +0.051 A 
ATOM      4  C   UNL     1      -0.718   1.572   1.248  0.00  0.00    -0.060 A 
ATOM      5  C   UNL     1      -1.719   0.807   1.817  0.00  0.00    +0.021 A 
ATOM      6  C   UNL     1      -2.370   1.249   2.954  0.00  0.00    +0.063 A 
ATOM      7  C   UNL     1      -2.018   2.461   3.527  0.00  0.00    +0.176 A 
ATOM      8 BR   UNL     1      -3.739   0.199   3.729  0.00  0.00    -0.046 Br
BRANCH   2  10
ATOM      9  C   UNL     1       0.382   5.157   2.870  0.00  0.00    +0.277 C 
ATOM     10  O   UNL     1      -0.661   4.421   3.512  0.00  0.00    -0.491 OA
ENDBRANCH   2  10
BRANCH   7  11
ATOM     11  O   UNL     1      -2.657   2.898   4.645  0.00  0.00    -0.478 OA
BRANCH  11  12
ATOM     12  C   UNL     1      -2.098   2.514   5.903  0.00  0.00    +0.324 C 
BRANCH  12  13
ATOM     13  C   UNL     1      -2.934   3.085   7.019  0.00  0.00    +0.248 C 
ATOM     14  O   UNL     1      -3.911   3.756   6.763  0.00  0.00    -0.272 OA
ATOM     15  N   UNL     1      -2.595   2.851   8.303  0.00  0.00    -0.327 N 
ATOM     16  H   UNL     1      -1.813   2.315   8.508  0.00  0.00    +0.145 HD
ATOM     17  H   UNL     1      -3.133   3.219   9.021  0.00  0.00    +0.145 HD
ENDBRANCH  12  13
ENDBRANCH  11  12
ENDBRANCH   7  11
ENDBRANCH   1   4
BRANCH   1  18
ATOM     18  N   UNL     1      -0.732   1.579  -1.182  0.00  0.00    +0.383 N 
ATOM     19  H   UNL     1      -0.746   2.605  -1.168  0.00  0.00    -0.085 HD
ATOM     20  H   UNL     1      -1.695   1.223  -1.167  0.00  0.00    -0.085 HD
BRANCH  18  21
ATOM     21  C   UNL     1      -0.062   1.117  -2.413  0.00  0.00    -0.063 C 
BRANCH  21  22
ATOM     22  C   UNL     1      -0.829   1.643  -3.628  0.00  0.00    +0.082 C 
BRANCH  22  23
ATOM     23  N   UNL     1      -0.171   1.188  -4.855  0.00  0.00    -0.345 N 
ATOM     24  H   UNL     1       0.628   0.640  -4.802  0.00  0.00    +0.146 HD
BRANCH  23  25
ATOM     25  C   UNL     1      -0.692   1.545  -6.101  0.00  0.00    +0.046 A 
ATOM     26  C   UNL     1      -1.835   2.330  -6.178  0.00  0.00    +0.026 A 
ATOM     27  C   UNL     1      -2.348   2.681  -7.412  0.00  0.00    +0.034 A 
ATOM     28  C   UNL     1      -1.726   2.252  -8.570  0.00  0.00    +0.128 A 
ATOM     29  C   UNL     1      -0.587   1.470  -8.497  0.00  0.00    +0.054 A 
ATOM     30  C   UNL     1      -0.065   1.120  -7.266  0.00  0.00    +0.064 A 
ATOM     31 CL   UNL     1       1.368   0.145  -7.176  0.00  0.00    -0.082 Cl
BRANCH  28  32
ATOM     32  N   UNL     1      -2.278   2.631  -9.889  0.00  0.00    +0.056 N 
ATOM     33  O   UNL     1      -3.281   3.320  -9.955  0.00  0.00    -0.126 OA
ATOM     34  O   UNL     1      -1.731   2.254 -10.910  0.00  0.00    -0.126 OA
ENDBRANCH  28  32
ENDBRANCH  23  25
ENDBRANCH  22  23
ENDBRANCH  21  22
ENDBRANCH  18  21
ENDBRANCH   1  18
TORSDOF 11
