REMARK  Name = ZINC38563829
REMARK  4 active torsions:
REMARK  status: ('A' for Active; 'I' for Inactive)
REMARK    1  A    between atoms: C_12  and  C_22
REMARK    2  A    between atoms: C_14  and  C_15
REMARK    3  A    between atoms: N_24  and  C_25
REMARK    4  A    between atoms: C_25  and  C_26
REMARK                            x       y       z     vdW  Elec       q    Type
REMARK                         _______ _______ _______ _____ _____    ______ ____
ROOT
ATOM      1  C   UNL     1       0.255   1.386  -0.762  0.00  0.00    +0.001 A 
ATOM      2  C   UNL     1       1.477   2.058  -0.871  0.00  0.00    +0.002 A 
ATOM      3  C   UNL     1       2.660   1.405  -0.779  0.00  0.00    +0.026 A 
ATOM      4  C   UNL     1       2.680   0.002  -0.565  0.00  0.00    +0.044 A 
ATOM      5  N   UNL     1       3.683  -0.844  -0.399  0.00  0.00    -0.372 N 
ATOM      6  C   UNL     1       3.145  -2.185  -0.381  0.00  0.00    +0.160 C 
ATOM      7  C   UNL     1       1.648  -2.040  -0.209  0.00  0.00    -0.008 C 
ATOM      8  C   UNL     1       1.384  -0.702  -0.435  0.00  0.00    +0.004 A 
ATOM      9  C   UNL     1       0.195   0.048  -0.551  0.00  0.00    +0.010 A 
ATOM     10  C   UNL     1       0.856  -3.077   0.270  0.00  0.00    +0.039 C 
ATOM     11  C   UNL     1       1.542  -4.133   0.875  0.00  0.00    +0.126 C 
ATOM     12  N   UNL     1       2.856  -4.051   1.135  0.00  0.00    -0.244 NA
ATOM     13  C   UNL     1       3.641  -3.125   0.664  0.00  0.00    +0.076 C 
ATOM     14  H   UNL     1       4.619  -0.606  -0.304  0.00  0.00    +0.161 HD
ENDROOT
BRANCH  13  15
ATOM     15  C   UNL     1       5.022  -3.026   1.154  0.00  0.00    -0.000 A 
ATOM     16  C   UNL     1       5.357  -3.518   2.422  0.00  0.00    +0.010 A 
ATOM     17  C   UNL     1       6.655  -3.422   2.875  0.00  0.00    +0.002 A 
ATOM     18  C   UNL     1       7.628  -2.840   2.080  0.00  0.00    +0.015 A 
ATOM     19  C   UNL     1       7.307  -2.351   0.825  0.00  0.00    +0.018 A 
ATOM     20  C   UNL     1       6.013  -2.445   0.354  0.00  0.00    +0.025 A 
ATOM     21 BR   UNL     1       8.646  -1.559  -0.250  0.00  0.00    -0.050 Br
ENDBRANCH  13  15
BRANCH  11  22
ATOM     22  C   UNL     1       0.807  -5.365   1.235  0.00  0.00    +0.262 C 
ATOM     23  O   UNL     1      -0.384  -5.452   1.004  0.00  0.00    -0.269 OA
ATOM     24  N   UNL     1       1.456  -6.392   1.819  0.00  0.00    -0.308 N 
ATOM     25  H   UNL     1       2.406  -6.323   2.003  0.00  0.00    +0.149 HD
BRANCH  24  26
ATOM     26  C   UNL     1       0.728  -7.612   2.175  0.00  0.00    +0.136 C 
BRANCH  26  27
ATOM     27  C   UNL     1       1.691  -8.611   2.818  0.00  0.00    +0.135 C 
ATOM     28  C   UNL     1       0.948  -9.924   3.171  0.00  0.00    +0.035 C 
ATOM     29  C   UNL     1       2.123 -10.939   3.168  0.00  0.00    +0.031 C 
ATOM     30  C   UNL     1       3.034 -10.381   2.054  0.00  0.00    +0.160 C 
ATOM     31  O   UNL     1       2.710  -8.996   1.881  0.00  0.00    -0.375 OA
ENDBRANCH  26  27
ENDBRANCH  24  26
ENDBRANCH  11  22
TORSDOF 4
