REMARK  Name = ZINC08777887
REMARK  11 active torsions:
REMARK  status: ('A' for Active; 'I' for Inactive)
REMARK    1  A    between atoms: C_1  and  C_2
REMARK    2  A    between atoms: C_5  and  N_8
REMARK    3  A    between atoms: C_9  and  C_10
REMARK    4  A    between atoms: N_16  and  C_19
REMARK    5  A    between atoms: C_22  and  C_26
REMARK    6  A    between atoms: C_24  and  C_25
REMARK    7  A    between atoms: N_27  and  C_28
REMARK    8  A    between atoms: C_30  and  C_36
REMARK    9  A    between atoms: C_30  and  C_37
REMARK   10  A    between atoms: C_32  and  C_34
REMARK   11  A    between atoms: C_32  and  C_35
REMARK                            x       y       z     vdW  Elec       q    Type
REMARK                         _______ _______ _______ _____ _____    ______ ____
ROOT
ATOM      1  N   UNL     1       0.113  -4.137  -0.078  0.00  0.00    -0.232 NA
ATOM      2  C   UNL     1       0.945  -4.791   0.704  0.00  0.00    +0.137 C 
ATOM      3  N   UNL     1       0.975  -6.168   0.679  0.00  0.00    -0.325 N 
ATOM      4  H   UNL     1       1.535  -6.653   1.306  0.00  0.00    +0.148 HD
ENDROOT
BRANCH   3   5
ATOM      5  C   UNL     1       0.161  -6.903  -0.297  0.00  0.00    +0.075 C 
ATOM      6  C   UNL     1      -1.240  -7.118   0.280  0.00  0.00    +0.044 C 
ATOM      7  C   UNL     1      -2.101  -7.882  -0.728  0.00  0.00    +0.016 C 
ATOM      8  N   UNL     1      -1.459  -9.111  -1.158  0.00  0.00    -0.306 NA
ATOM      9  C   UNL     1      -0.055  -9.087  -1.524  0.00  0.00    +0.016 C 
ATOM     10  C   UNL     1       0.795  -8.269  -0.555  0.00  0.00    +0.044 C 
ATOM     11  C   UNL     1       0.147  -8.571  -2.952  0.00  0.00    +0.027 C 
ATOM     12  C   UNL     1       0.470 -10.540  -1.487  0.00  0.00    +0.027 C 
ATOM     13  C   UNL     1      -2.456  -6.977  -1.908  0.00  0.00    +0.027 C 
ATOM     14  C   UNL     1      -3.421  -8.255  -0.018  0.00  0.00    +0.027 C 
ATOM     15  H   UNL     1      -1.685  -9.890  -0.558  0.00  0.00    +0.123 HD
ENDBRANCH   3   5
BRANCH   2  16
ATOM     16  C   UNL     1       1.841  -4.053   1.604  0.00  0.00    +0.144 A 
ATOM     17  C   UNL     1       1.700  -4.153   3.059  0.00  0.00    +0.268 A 
ATOM     18  O   UNL     1       0.833  -4.852   3.552  0.00  0.00    -0.267 OA
ATOM     19  N   UNL     1       2.548  -3.454   3.842  0.00  0.00    -0.274 N 
ATOM     20  C   UNL     1       3.505  -2.682   3.300  0.00  0.00    +0.337 A 
ATOM     21  O   UNL     1       4.251  -2.068   4.037  0.00  0.00    -0.246 OA
ATOM     22  N   UNL     1       3.664  -2.567   1.972  0.00  0.00    -0.228 N 
ATOM     23  C   UNL     1       2.856  -3.241   1.099  0.00  0.00    +0.275 A 
ATOM     24  O   UNL     1       3.035  -3.118  -0.231  0.00  0.00    -0.266 OA
ATOM     25  H   UNL     1       2.467  -3.510   4.807  0.00  0.00    +0.173 HD
BRANCH  22  26
ATOM     26  C   UNL     1       4.682  -1.744   1.471  0.00  0.00    +0.057 A 
ATOM     27  C   UNL     1       5.944  -2.269   1.228  0.00  0.00    +0.027 A 
ATOM     28  C   UNL     1       6.945  -1.456   0.734  0.00  0.00    +0.005 A 
ATOM     29  C   UNL     1       6.692  -0.120   0.482  0.00  0.00    -0.050 A 
ATOM     30  C   UNL     1       5.436   0.406   0.724  0.00  0.00    +0.008 A 
ATOM     31  C   UNL     1       4.429  -0.404   1.213  0.00  0.00    -0.026 A 
ATOM     32  C   UNL     1       3.059   0.169   1.471  0.00  0.00    +0.046 C 
ATOM     33  C   UNL     1       7.787   0.764  -0.057  0.00  0.00    +0.044 C 
ENDBRANCH  22  26
ENDBRANCH   2  16
BRANCH   1  38
ATOM     34  C   UNL     1      -0.426   1.459   0.425  0.00  0.00    +0.044 C 
ATOM     35  C   UNL     1      -0.282  -0.035   0.290  0.00  0.00    -0.050 A 
ATOM     36  C   UNL     1       0.093  -0.584  -0.923  0.00  0.00    +0.005 A 
ATOM     37  C   UNL     1       0.227  -1.951  -1.053  0.00  0.00    +0.028 A 
ATOM     38  C   UNL     1      -0.018  -2.781   0.044  0.00  0.00    +0.066 A 
ATOM     39  C   UNL     1      -0.396  -2.219   1.266  0.00  0.00    +0.028 A 
ATOM     40  C   UNL     1      -0.520  -0.851   1.383  0.00  0.00    +0.005 A 
ENDBRANCH   1  38
TORSDOF 4
