REMARK  Name = ZINC32732707
REMARK  17 active torsions:
REMARK  status: ('A' for Active; 'I' for Inactive)
REMARK    1  A    between atoms: C_1  and  C_2
REMARK    2  A    between atoms: C_2  and  C_3
REMARK    3  A    between atoms: C_6  and  C_9
REMARK    4  A    between atoms: C_9  and  C_11
REMARK    5  A    between atoms: C_9  and  N_32
REMARK    6  A    between atoms: C_11  and  N_12
REMARK    7  A    between atoms: C_13  and  C_15
REMARK    8  A    between atoms: C_15  and  C_17
REMARK    9  A    between atoms: C_15  and  N_21
REMARK   10  A    between atoms: C_17  and  C_18
REMARK   11  A    between atoms: C_18  and  S_19
REMARK   12  A    between atoms: S_19  and  C_20
REMARK   13  A    between atoms: N_21  and  S_22
REMARK   14  A    between atoms: S_22  and  C_25
REMARK   15  A    between atoms: C_28  and  C_31
REMARK   16  A    between atoms: N_32  and  C_33
REMARK   17  A    between atoms: N_32  and  C_34
REMARK                            x       y       z     vdW  Elec       q    Type
REMARK                         _______ _______ _______ _____ _____    ______ ____
ROOT
ATOM      1  N   UNL     1       0.730  -2.228   2.299  0.00  0.00    -0.315 N 
ATOM      2  C   UNL     1       0.123  -1.448   1.383  0.00  0.00    +0.232 C 
ATOM      3  O   UNL     1      -0.782  -1.895   0.710  0.00  0.00    -0.274 OA
ATOM      4  H   UNL     1       1.550  -1.822   2.910  0.00  0.00    +0.149 HD
ENDROOT
BRANCH   1   5
ATOM      5  C   UNL     1       0.297  -3.615   2.482  0.00  0.00    +0.093 C 
BRANCH   5   6
ATOM      6  C   UNL     1       1.065  -4.239   3.649  0.00  0.00    -0.021 C 
BRANCH   6  10
ATOM      7  C   UNL     1       5.227  -4.386   2.699  0.00  0.00    -0.048 A 
ATOM      8  C   UNL     1       4.739  -3.380   3.512  0.00  0.00    +0.004 A 
ATOM      9  C   UNL     1       3.392  -3.333   3.820  0.00  0.00    +0.002 A 
ATOM     10  C   UNL     1       2.533  -4.291   3.313  0.00  0.00    -0.059 A 
ATOM     11  C   UNL     1       3.023  -5.299   2.504  0.00  0.00    +0.002 A 
ATOM     12  C   UNL     1       4.369  -5.343   2.192  0.00  0.00    +0.004 A 
BRANCH   7  14
ATOM     13  C   UNL     1       7.428  -5.280   3.411  0.00  0.00    +0.009 C 
ATOM     14  C   UNL     1       6.696  -4.437   2.364  0.00  0.00    +0.032 C 
ENDBRANCH   7  14
ENDBRANCH   6  10
BRANCH   6  15
ATOM     15  N   UNL     1       0.570  -5.601   3.889  0.00  0.00    +0.382 N 
ATOM     16  C   UNL     1       1.234  -6.207   5.050  0.00  0.00    -0.096 C 
ATOM     17  C   UNL     1      -0.890  -5.609   4.054  0.00  0.00    -0.096 C 
ATOM     18  H   UNL     1       0.813  -6.210   3.005  0.00  0.00    -0.082 HD
ENDBRANCH   6  15
ENDBRANCH   5   6
ENDBRANCH   1   5
BRANCH   2  19
ATOM     19  C   UNL     1       0.568  -0.020   1.195  0.00  0.00    +0.163 C 
BRANCH  19  20
ATOM     20  N   UNL     1      -0.241   0.610   0.149  0.00  0.00    -0.178 NA
ATOM     21  H   UNL     1       0.125   0.638  -0.888  0.00  0.00    +0.149 HD
BRANCH  20  22
ATOM     22  S   UNL     1      -1.581   1.493   0.558  0.00  0.00    +0.059 S 
ATOM     23  O   UNL     1      -2.129   1.986  -0.657  0.00  0.00    -0.153 OA
ATOM     24  O   UNL     1      -2.332   0.696   1.464  0.00  0.00    -0.153 OA
BRANCH  22  25
ATOM     25  C   UNL     1      -1.023   2.897   1.465  0.00  0.00    +0.105 A 
ATOM     26  C   UNL     1      -0.828   2.805   2.830  0.00  0.00    +0.029 A 
ATOM     27  C   UNL     1      -0.386   3.905   3.541  0.00  0.00    +0.005 A 
ATOM     28  C   UNL     1      -0.147   5.100   2.888  0.00  0.00    -0.050 A 
ATOM     29  C   UNL     1      -0.346   5.193   1.523  0.00  0.00    +0.005 A 
ATOM     30  C   UNL     1      -0.784   4.091   0.811  0.00  0.00    +0.029 A 
ATOM     31  C   UNL     1       0.331   6.300   3.663  0.00  0.00    +0.044 C 
ENDBRANCH  22  25
ENDBRANCH  20  22
ENDBRANCH  19  20
BRANCH  19  32
ATOM     32  C   UNL     1       2.042   0.004   0.783  0.00  0.00    +0.040 C 
BRANCH  32  33
ATOM     33  C   UNL     1       2.534   1.452   0.737  0.00  0.00    +0.071 C 
BRANCH  33  34
ATOM     34  S   UNL     1       4.239   1.492   0.118  0.00  0.00    -0.164 S 
ATOM     35  C   UNL     1       4.719   3.235   0.266  0.00  0.00    +0.084 C 
ENDBRANCH  33  34
ENDBRANCH  32  33
ENDBRANCH  19  32
ENDBRANCH   2  19
TORSDOF 12
