REMARK  Name = ZINC37261812
REMARK  8 active torsions:
REMARK  status: ('A' for Active; 'I' for Inactive)
REMARK    1  A    between atoms: C_1  and  C_2
REMARK    2  A    between atoms: C_2  and  C_3
REMARK    3  A    between atoms: C_3  and  C_5
REMARK    4  A    between atoms: C_3  and  N_13
REMARK    5  A    between atoms: N_13  and  C_14
REMARK    6  A    between atoms: C_14  and  C_15
REMARK    7  A    between atoms: C_15  and  S_16
REMARK    8  A    between atoms: S_16  and  N_19
REMARK                            x       y       z     vdW  Elec       q    Type
REMARK                         _______ _______ _______ _____ _____    ______ ____
ROOT
ATOM      1  C   UNL     1       0.804  -0.301   1.294  0.00  0.00    -0.041 C 
ENDROOT
BRANCH   1   2
ATOM      2  C   UNL     1       0.603  -1.795   1.306  0.00  0.00    -0.060 A 
ATOM      3  C   UNL     1       1.271  -2.590   0.394  0.00  0.00    +0.003 A 
ATOM      4  C   UNL     1       1.087  -3.959   0.403  0.00  0.00    +0.021 A 
ATOM      5  C   UNL     1       0.234  -4.536   1.327  0.00  0.00    +0.059 A 
ATOM      6  C   UNL     1      -0.435  -3.740   2.241  0.00  0.00    +0.059 A 
ATOM      7  C   UNL     1      -0.246  -2.370   2.233  0.00  0.00    +0.023 A 
ATOM      8 CL   UNL     1      -1.507  -4.462   3.400  0.00  0.00    -0.082 Cl
ATOM      9 CL   UNL     1       0.002  -6.256   1.339  0.00  0.00    -0.082 Cl
ENDBRANCH   1   2
BRANCH   1  10
ATOM     10  N   UNL     1       2.219  -0.000   1.042  0.00  0.00    +0.385 N 
ATOM     11  H   UNL     1       2.514  -0.457   0.192  0.00  0.00    -0.085 HD
ATOM     12  H   UNL     1       2.339   0.997   0.946  0.00  0.00    -0.085 HD
BRANCH  10  13
ATOM     13  C   UNL     1       3.031  -0.485   2.166  0.00  0.00    -0.057 C 
BRANCH  13  14
ATOM     14  C   UNL     1       4.487  -0.059   1.965  0.00  0.00    +0.166 C 
BRANCH  14  15
ATOM     15  S   UNL     1       5.489  -0.658   3.353  0.00  0.00    +0.025 S 
ATOM     16  O   UNL     1       5.126   0.021   4.548  0.00  0.00    -0.158 OA
ATOM     17  O   UNL     1       5.570  -2.076   3.322  0.00  0.00    -0.158 OA
BRANCH  15  18
ATOM     18  N   UNL     1       7.027  -0.140   3.023  0.00  0.00    -0.208 NA
ATOM     19  H   UNL     1       7.204   0.369   2.216  0.00  0.00    +0.144 HD
ATOM     20  H   UNL     1       7.750  -0.344   3.636  0.00  0.00    +0.144 HD
ENDBRANCH  15  18
ENDBRANCH  14  15
ENDBRANCH  13  14
ENDBRANCH  10  13
ENDBRANCH   1  10
BRANCH   1  22
ATOM     21  C   UNL     1       0.049   1.845   0.262  0.00  0.00    +0.002 C 
ATOM     22  C   UNL     1      -0.054   0.320   0.190  0.00  0.00    -0.015 C 
ENDBRANCH   1  22
TORSDOF 7
