REMARK  Name = ZINC11948866
REMARK  13 active torsions:
REMARK  status: ('A' for Active; 'I' for Inactive)
REMARK    1  A    between atoms: C_1  and  C_2
REMARK    2  A    between atoms: C_2  and  C_3
REMARK    3  A    between atoms: C_2  and  C_4
REMARK    4  A    between atoms: C_2  and  C_10
REMARK    5  A    between atoms: C_13  and  O_16
REMARK    6  A    between atoms: O_16  and  C_17
REMARK    7  A    between atoms: C_17  and  C_18
REMARK    8  A    between atoms: C_18  and  O_19
REMARK    9  A    between atoms: O_19  and  C_20
REMARK   10  A    between atoms: C_21  and  C_28
REMARK   11  A    between atoms: C_25  and  O_26
REMARK   12  A    between atoms: O_26  and  C_27
REMARK   13  A    between atoms: C_28  and  N_58
REMARK                            x       y       z     vdW  Elec       q    Type
REMARK                         _______ _______ _______ _____ _____    ______ ____
ROOT
ATOM      1  O   UNL     1       6.442   5.053  -0.269  0.00  0.00    -0.489 OA
ENDROOT
BRANCH   1   5
ATOM      2  C   UNL     1       3.547   2.119  -0.084  0.00  0.00    -0.037 A 
ATOM      3  C   UNL     1       3.183   3.452  -0.037  0.00  0.00    +0.008 A 
ATOM      4  C   UNL     1       4.151   4.436  -0.093  0.00  0.00    +0.046 A 
ATOM      5  C   UNL     1       5.489   4.086  -0.208  0.00  0.00    +0.121 A 
ATOM      6  C   UNL     1       5.851   2.748  -0.261  0.00  0.00    +0.046 A 
ATOM      7  C   UNL     1       4.880   1.768  -0.199  0.00  0.00    +0.008 A 
BRANCH   2   9
ATOM      8  C   UNL     1       3.133  -0.319  -0.260  0.00  0.00    +0.021 C 
ATOM      9  C   UNL     1       2.490   1.048  -0.016  0.00  0.00    +0.015 C 
ATOM     10  C   UNL     1       1.428   1.310  -1.086  0.00  0.00    +0.021 C 
BRANCH   9  11
ATOM     11  C   UNL     1       1.845   1.063   1.346  0.00  0.00    -0.037 A 
ATOM     12  C   UNL     1       0.758   0.250   1.606  0.00  0.00    +0.004 A 
ATOM     13  C   UNL     1       0.164   0.269   2.853  0.00  0.00    +0.000 A 
ATOM     14  C   UNL     1       0.662   1.093   3.845  0.00  0.00    +0.000 A 
ATOM     15  C   UNL     1       1.749   1.907   3.585  0.00  0.00    +0.000 A 
ATOM     16  C   UNL     1       2.341   1.892   2.336  0.00  0.00    +0.004 A 
ENDBRANCH   9  11
ENDBRANCH   2   9
ENDBRANCH   1   5
BRANCH   1  17
ATOM     17  C   UNL     1       5.996   6.409  -0.209  0.00  0.00    +0.270 C 
BRANCH  17  18
ATOM     18  C   UNL     1       7.202   7.347  -0.291  0.00  0.00    +0.270 C 
BRANCH  18  19
ATOM     19  O   UNL     1       7.825   7.210  -1.570  0.00  0.00    -0.485 OA
BRANCH  19  20
ATOM     20  C   UNL     1       8.921   7.980  -1.808  0.00  0.00    +0.163 A 
ATOM     21  C   UNL     1      10.184   7.505  -1.494  0.00  0.00    -0.020 A 
ATOM     22  C   UNL     1      11.297   8.289  -1.737  0.00  0.00    +0.005 A 
ATOM     23  C   UNL     1      11.153   9.546  -2.293  0.00  0.00    +0.004 A 
ATOM     24  C   UNL     1       9.895  10.026  -2.609  0.00  0.00    +0.049 A 
ATOM     25  C   UNL     1       8.776   9.243  -2.373  0.00  0.00    +0.162 A 
BRANCH  25  26
ATOM     26  O   UNL     1       7.539   9.711  -2.689  0.00  0.00    -0.491 OA
ATOM     27  C   UNL     1       7.466  11.016  -3.266  0.00  0.00    +0.277 C 
ENDBRANCH  25  26
BRANCH  21  28
ATOM     28  C   UNL     1      10.346   6.135  -0.887  0.00  0.00    -0.047 C 
BRANCH  28  31
ATOM     29  H   UNL     1      10.372   4.191  -1.563  0.00  0.00    -0.090 HD
ATOM     30  H   UNL     1       9.405   5.201  -2.462  0.00  0.00    -0.090 HD
ATOM     31  N   UNL     1      10.287   5.126  -1.959  0.00  0.00    +0.381 N 
ATOM     32  H   UNL     1      11.062   5.284  -2.614  0.00  0.00    -0.090 HD
ENDBRANCH  28  31
ENDBRANCH  21  28
ENDBRANCH  19  20
ENDBRANCH  18  19
ENDBRANCH  17  18
ENDBRANCH   1  17
TORSDOF 10
