REMARK  Name = ZINC03002823
REMARK  9 active torsions:
REMARK  status: ('A' for Active; 'I' for Inactive)
REMARK    1  A    between atoms: C_1  and  C_2
REMARK    2  A    between atoms: C_5  and  C_8
REMARK    3  A    between atoms: C_8  and  C_10
REMARK    4  A    between atoms: C_10  and  C_12
REMARK    5  A    between atoms: C_10  and  O_13
REMARK    6  A    between atoms: O_13  and  C_14
REMARK    7  A    between atoms: C_14  and  C_16
REMARK    8  A    between atoms: C_20  and  N_22
REMARK    9  A    between atoms: C_23  and  C_25
REMARK                            x       y       z     vdW  Elec       q    Type
REMARK                         _______ _______ _______ _____ _____    ______ ____
ROOT
ATOM      1  C   UNL     1       5.075  -2.908   0.110  0.00  0.00    +0.061 A 
ATOM      2  C   UNL     1       6.233  -2.132   0.198  0.00  0.00    +0.015 A 
ATOM      3  C   UNL     1       6.142  -0.756   0.212  0.00  0.00    +0.003 A 
ATOM      4  C   UNL     1       4.907  -0.139   0.133  0.00  0.00    +0.023 A 
ATOM      5  C   UNL     1       3.748  -0.901   0.050  0.00  0.00    +0.034 A 
ATOM      6  C   UNL     1       3.828  -2.285   0.035  0.00  0.00    +0.038 A 
ENDROOT
BRANCH   5   7
ATOM      7  N   UNL     1       2.501  -0.272  -0.024  0.00  0.00    -0.281 N 
ATOM      8  C   UNL     1       1.428  -0.831   0.569  0.00  0.00    +0.250 C 
ATOM      9  O   UNL     1       1.524  -1.923   1.096  0.00  0.00    -0.270 OA
ATOM     10  H   UNL     1       2.409   0.567  -0.503  0.00  0.00    +0.155 HD
BRANCH   8  11
ATOM     11  C   UNL     1       0.134  -0.118   0.578  0.00  0.00    +0.055 A 
ATOM     12  C   UNL     1       0.020   1.135  -0.027  0.00  0.00    +0.016 A 
ATOM     13  C   UNL     1      -1.188   1.799  -0.009  0.00  0.00    +0.021 A 
ATOM     14  C   UNL     1      -2.292   1.220   0.597  0.00  0.00    +0.042 A 
ATOM     15  C   UNL     1      -2.187  -0.023   1.197  0.00  0.00    +0.040 A 
ATOM     16  C   UNL     1      -0.981  -0.695   1.192  0.00  0.00    +0.054 A 
ATOM     17 CL   UNL     1      -0.849  -2.253   1.947  0.00  0.00    -0.083 Cl
ATOM     18 CL   UNL     1      -3.811   2.059   0.608  0.00  0.00    -0.083 Cl
ENDBRANCH   8  11
ENDBRANCH   5   7
BRANCH   1  19
ATOM     19  C   UNL     1       5.169  -4.382   0.094  0.00  0.00    +0.340 C 
ATOM     20  O   UNL     1       4.160  -5.054   0.017  0.00  0.00    -0.245 OA
BRANCH  19  21
ATOM     21  O   UNL     1       6.373  -4.981   0.166  0.00  0.00    -0.450 OA
BRANCH  21  22
ATOM     22  C   UNL     1       6.390  -6.432   0.145  0.00  0.00    +0.244 C 
ATOM     23  C   UNL     1       6.300  -6.964   1.577  0.00  0.00    +0.061 C 
BRANCH  22  24
ATOM     24  C   UNL     1       7.671  -6.911  -0.488  0.00  0.00    +0.203 C 
ATOM     25  O   UNL     1       8.629  -6.171  -0.553  0.00  0.00    -0.288 OA
BRANCH  24  30
ATOM     26  C   UNL     1       8.015 -12.248  -2.598  0.00  0.00    +0.044 C 
ATOM     27  C   UNL     1       7.925 -10.849  -2.045  0.00  0.00    -0.050 A 
ATOM     28  C   UNL     1       9.021 -10.006  -2.121  0.00  0.00    +0.004 A 
ATOM     29  C   UNL     1       8.946  -8.725  -1.617  0.00  0.00    +0.012 A 
ATOM     30  C   UNL     1       7.759  -8.277  -1.029  0.00  0.00    +0.021 A 
ATOM     31  C   UNL     1       6.658  -9.136  -0.951  0.00  0.00    +0.012 A 
ATOM     32  C   UNL     1       6.747 -10.413  -1.463  0.00  0.00    +0.004 A 
ENDBRANCH  24  30
ENDBRANCH  22  24
ENDBRANCH  21  22
ENDBRANCH  19  21
ENDBRANCH   1  19
TORSDOF 7
