REMARK  Name = ZINC61959040
REMARK  10 active torsions:
REMARK  status: ('A' for Active; 'I' for Inactive)
REMARK    1  A    between atoms: C_1  and  N_2
REMARK    2  A    between atoms: N_2  and  C_3
REMARK    3  A    between atoms: N_2  and  C_21
REMARK    4  A    between atoms: C_3  and  C_4
REMARK    5  A    between atoms: C_4  and  C_5
REMARK    6  A    between atoms: C_5  and  N_6
REMARK    7  A    between atoms: N_9  and  C_10
REMARK    8  A    between atoms: C_10  and  C_11
REMARK    9  A    between atoms: C_15  and  S_17
REMARK   10  A    between atoms: S_17  and  N_20
REMARK                            x       y       z     vdW  Elec       q    Type
REMARK                         _______ _______ _______ _____ _____    ______ ____
ROOT
ATOM      1  N   UNL     1      -0.082  -0.239   4.890  0.00  0.00    -0.299 N 
ATOM      2  C   UNL     1       0.384  -0.583   6.107  0.00  0.00    +0.300 C 
ATOM      3  O   UNL     1       1.426  -1.202   6.207  0.00  0.00    -0.253 OA
ATOM      4  N   UNL     1      -0.307  -0.242   7.213  0.00  0.00    -0.295 N 
ATOM      5  H   UNL     1      -0.913   0.254   4.810  0.00  0.00    +0.150 HD
ATOM      6  H   UNL     1      -1.138   0.251   7.133  0.00  0.00    +0.151 HD
ENDROOT
BRANCH   1   7
ATOM      7  C   UNL     1       0.669  -0.610   3.687  0.00  0.00    +0.104 C 
BRANCH   7   8
ATOM      8  C   UNL     1      -0.071  -0.103   2.448  0.00  0.00    +0.000 C 
BRANCH   8   9
ATOM      9  C   UNL     1       0.713  -0.491   1.192  0.00  0.00    -0.077 C 
BRANCH   9  11
ATOM     10  C   UNL     1      -0.018   1.465   0.010  0.00  0.00    -0.096 C 
ATOM     11  N   UNL     1       0.002  -0.004   0.002  0.00  0.00    +0.380 N 
ATOM     12  H   UNL     1      -0.945  -0.353   0.009  0.00  0.00    -0.082 HD
BRANCH  11  13
ATOM     13  C   UNL     1       0.690  -0.478  -1.207  0.00  0.00    -0.069 C 
ATOM     14  C   UNL     1       0.710  -2.008  -1.215  0.00  0.00    -0.015 C 
ATOM     15  C   UNL     1       1.427  -2.501  -2.474  0.00  0.00    -0.002 C 
ATOM     16  C   UNL     1       0.687  -1.994  -3.713  0.00  0.00    -0.000 C 
ATOM     17  C   UNL     1       0.666  -0.464  -3.705  0.00  0.00    -0.002 C 
ATOM     18  C   UNL     1      -0.050   0.029  -2.446  0.00  0.00    -0.015 C 
ENDBRANCH  11  13
ENDBRANCH   9  11
ENDBRANCH   8   9
ENDBRANCH   7   8
ENDBRANCH   1   7
BRANCH   4  19
ATOM     19  C   UNL     1       0.199  -0.616   8.537  0.00  0.00    +0.141 C 
BRANCH  19  20
ATOM     20  C   UNL     1      -0.751  -0.120   9.596  0.00  0.00    -0.028 A 
ATOM     21  C   UNL     1      -0.585   1.141  10.138  0.00  0.00    +0.005 A 
ATOM     22  C   UNL     1      -1.456   1.597  11.109  0.00  0.00    +0.002 A 
ATOM     23  C   UNL     1      -2.495   0.791  11.539  0.00  0.00    +0.028 A 
ATOM     24  C   UNL     1      -2.662  -0.469  10.996  0.00  0.00    +0.105 A 
ATOM     25  C   UNL     1      -1.793  -0.923  10.021  0.00  0.00    +0.033 A 
BRANCH  24  26
ATOM     26  S   UNL     1      -3.985  -1.496  11.544  0.00  0.00    +0.056 S 
ATOM     27  O   UNL     1      -3.598  -2.836  11.274  0.00  0.00    -0.153 OA
ATOM     28  O   UNL     1      -4.330  -1.052  12.849  0.00  0.00    -0.153 OA
BRANCH  26  29
ATOM     29  N   UNL     1      -5.288  -1.174  10.575  0.00  0.00    -0.204 NA
ATOM     30  H   UNL     1      -5.941  -1.868  10.393  0.00  0.00    +0.144 HD
ATOM     31  H   UNL     1      -5.398  -0.292  10.188  0.00  0.00    +0.144 HD
ENDBRANCH  26  29
ENDBRANCH  24  26
ENDBRANCH  19  20
ENDBRANCH   4  19
TORSDOF 9
