REMARK  Name = ZINC51096796
REMARK  8 active torsions:
REMARK  status: ('A' for Active; 'I' for Inactive)
REMARK    1  A    between atoms: C_1  and  C_2
REMARK    2  A    between atoms: C_5  and  C_7
REMARK    3  A    between atoms: N_9  and  C_10
REMARK    4  A    between atoms: N_13  and  C_16
REMARK    5  A    between atoms: C_16  and  C_18
REMARK    6  A    between atoms: C_16  and  C_19
REMARK    7  A    between atoms: N_24  and  C_25
REMARK    8  A    between atoms: C_25  and  C_26
REMARK                            x       y       z     vdW  Elec       q    Type
REMARK                         _______ _______ _______ _____ _____    ______ ____
ROOT
ATOM      1  C   UNL     1       3.325  -6.160  -0.305  0.00  0.00    +0.070 C 
ATOM      2  C   UNL     1       3.675  -6.588   1.123  0.00  0.00    +0.004 C 
ATOM      3  C   UNL     1       5.130  -7.059   1.167  0.00  0.00    -0.076 C 
ATOM      4  N   UNL     1       6.015  -5.963   0.753  0.00  0.00    +0.387 N 
ATOM      5  C   UNL     1       5.734  -5.596  -0.640  0.00  0.00    -0.076 C 
ATOM      6  C   UNL     1       4.302  -5.069  -0.754  0.00  0.00    +0.004 C 
ATOM      7  H   UNL     1       5.860  -5.164   1.348  0.00  0.00    -0.081 HD
ENDROOT
BRANCH   1  10
ATOM      8  C   UNL     1       0.916  -6.480  -0.484  0.00  0.00    +0.280 C 
ATOM      9  O   UNL     1       1.113  -7.677  -0.587  0.00  0.00    -0.267 OA
ATOM     10  N   UNL     1       1.957  -5.636  -0.339  0.00  0.00    -0.306 N 
ATOM     11  H   UNL     1       1.800  -4.683  -0.257  0.00  0.00    +0.149 HD
BRANCH   8  16
ATOM     12  C   UNL     1      -2.929  -3.273  -0.410  0.00  0.00    +0.086 C 
ATOM     13  C   UNL     1      -2.142  -4.557  -0.485  0.00  0.00    +0.103 A 
ATOM     14  C   UNL     1      -2.666  -5.793  -0.637  0.00  0.00    +0.045 A 
ATOM     15  C   UNL     1      -1.592  -6.697  -0.659  0.00  0.00    +0.055 A 
ATOM     16  C   UNL     1      -0.453  -5.957  -0.518  0.00  0.00    +0.189 A 
ATOM     17  O   UNL     1      -0.808  -4.659  -0.419  0.00  0.00    -0.455 OA
ENDBRANCH   8  16
ENDBRANCH   1  10
BRANCH   4  18
ATOM     18  C   UNL     1       7.414  -6.395   0.871  0.00  0.00    +0.017 C 
ATOM     19  C   UNL     1       8.336  -5.274   0.386  0.00  0.00    -0.004 C 
BRANCH  18  20
ATOM     20  C   UNL     1       7.722  -6.711   2.312  0.00  0.00    +0.207 C 
ATOM     21  O   UNL     1       7.103  -6.163   3.198  0.00  0.00    -0.277 OA
ATOM     22  N   UNL     1       8.686  -7.603   2.615  0.00  0.00    -0.242 N 
ATOM     23  C   UNL     1       8.961  -7.886   3.903  0.00  0.00    +0.306 C 
ATOM     24  O   UNL     1       8.341  -7.337   4.792  0.00  0.00    -0.252 OA
ATOM     25  N   UNL     1       9.925  -8.778   4.206  0.00  0.00    -0.296 N 
ATOM     26  H   UNL     1       9.181  -8.042   1.905  0.00  0.00    +0.159 HD
ATOM     27  H   UNL     1      10.421  -9.217   3.497  0.00  0.00    +0.151 HD
BRANCH  25  28
ATOM     28  C   UNL     1      10.225  -9.086   5.607  0.00  0.00    +0.132 C 
BRANCH  28  29
ATOM     29  C   UNL     1      11.333 -10.105   5.672  0.00  0.00    -0.016 C 
ATOM     30  C   UNL     1      12.415  -9.853   6.366  0.00  0.00    +0.005 C 
ENDBRANCH  28  29
ENDBRANCH  25  28
ENDBRANCH  18  20
ENDBRANCH   4  18
TORSDOF 6
