REMARK  Name = ZINC47598355
REMARK  8 active torsions:
REMARK  status: ('A' for Active; 'I' for Inactive)
REMARK    1  A    between atoms: C_4  and  C_8
REMARK    2  A    between atoms: C_8  and  C_10
REMARK    3  A    between atoms: C_8  and  N_19
REMARK    4  A    between atoms: C_10  and  N_11
REMARK    5  A    between atoms: N_14  and  C_15
REMARK    6  A    between atoms: C_15  and  C_16
REMARK    7  A    between atoms: C_16  and  C_17
REMARK    8  A    between atoms: C_17  and  O_18
REMARK                            x       y       z     vdW  Elec       q    Type
REMARK                         _______ _______ _______ _____ _____    ______ ____
ROOT
ATOM      1  C   UNL     1       3.711  -0.721  -0.047  0.00  0.00    -0.016 C 
ENDROOT
BRANCH   1   5
ATOM      2  C   UNL     1       0.165   1.651  -0.308  0.00  0.00    +0.004 A 
ATOM      3  C   UNL     1       1.405   2.260  -0.334  0.00  0.00    +0.038 A 
ATOM      4  C   UNL     1       2.555   1.492  -0.250  0.00  0.00    +0.126 A 
ATOM      5  C   UNL     1       2.461   0.116  -0.139  0.00  0.00    -0.006 A 
ATOM      6  C   UNL     1       1.218  -0.492  -0.113  0.00  0.00    +0.045 A 
ATOM      7  C   UNL     1       0.070   0.276  -0.198  0.00  0.00    +0.020 A 
ATOM      8 CL   UNL     1       1.099  -2.218   0.026  0.00  0.00    -0.083 Cl
ATOM      9  F   UNL     1       3.768   2.087  -0.276  0.00  0.00    -0.205 F 
ENDBRANCH   1   5
BRANCH   1  10
ATOM     10  N   UNL     1       3.606  -1.634   1.098  0.00  0.00    +0.385 N 
ATOM     11  C   UNL     1       4.911  -2.299   1.345  0.00  0.00    -0.078 C 
ATOM     12  C   UNL     1       4.810  -2.741   2.826  0.00  0.00    -0.020 C 
ATOM     13  C   UNL     1       4.047  -1.569   3.485  0.00  0.00    -0.020 C 
ATOM     14  C   UNL     1       3.302  -0.875   2.330  0.00  0.00    -0.078 C 
ATOM     15  H   UNL     1       2.890  -2.324   0.929  0.00  0.00    -0.081 HD
ENDBRANCH   1  10
BRANCH   1  16
ATOM     16  C   UNL     1       3.877  -1.532  -1.333  0.00  0.00    +0.095 C 
BRANCH  16  17
ATOM     17  N   UNL     1       4.121  -0.624  -2.456  0.00  0.00    -0.301 N 
ATOM     18  C   UNL     1       4.397  -1.121  -3.678  0.00  0.00    +0.300 C 
ATOM     19  O   UNL     1       4.445  -2.324  -3.848  0.00  0.00    -0.253 OA
ATOM     20  N   UNL     1       4.622  -0.285  -4.711  0.00  0.00    -0.299 N 
ATOM     21  H   UNL     1       4.083   0.336  -2.321  0.00  0.00    +0.150 HD
ATOM     22  H   UNL     1       4.584   0.674  -4.575  0.00  0.00    +0.150 HD
BRANCH  20  23
ATOM     23  C   UNL     1       4.923  -0.826  -6.039  0.00  0.00    +0.108 C 
BRANCH  23  24
ATOM     24  C   UNL     1       5.133   0.326  -7.023  0.00  0.00    +0.046 C 
BRANCH  24  25
ATOM     25  C   UNL     1       5.448  -0.239  -8.410  0.00  0.00    +0.157 C 
BRANCH  25  26
ATOM     26  O   UNL     1       5.645   0.838  -9.329  0.00  0.00    -0.395 OA
ATOM     27  H   UNL     1       5.848   0.553 -10.231  0.00  0.00    +0.209 HD
ENDBRANCH  25  26
ENDBRANCH  24  25
ENDBRANCH  23  24
ENDBRANCH  20  23
ENDBRANCH  16  17
ENDBRANCH   1  16
TORSDOF 8
