REMARK  Name = ZINC12303459
REMARK  10 active torsions:
REMARK  status: ('A' for Active; 'I' for Inactive)
REMARK    1  A    between atoms: C_1  and  O_2
REMARK    2  A    between atoms: O_2  and  C_3
REMARK    3  A    between atoms: C_3  and  C_4
REMARK    4  A    between atoms: C_7  and  C_9
REMARK    5  A    between atoms: C_9  and  N_60
REMARK    6  A    between atoms: C_22  and  C_24
REMARK    7  A    between atoms: C_28  and  O_32
REMARK    8  A    between atoms: C_29  and  O_30
REMARK    9  A    between atoms: O_30  and  C_31
REMARK   10  A    between atoms: O_32  and  C_33
REMARK                            x       y       z     vdW  Elec       q    Type
REMARK                         _______ _______ _______ _____ _____    ______ ____
ROOT
ATOM      1  C   UNL     1      -0.454  -1.533  -2.204  0.00  0.00    -0.072 C 
ATOM      2  C   UNL     1      -0.840  -1.440  -3.686  0.00  0.00    +0.019 C 
ATOM      3  C   UNL     1      -2.131  -2.196  -3.879  0.00  0.00    -0.022 A 
ATOM      4  C   UNL     1      -2.743  -2.668  -5.101  0.00  0.00    +0.003 A 
ATOM      5  C   UNL     1      -2.369  -2.585  -6.446  0.00  0.00    +0.010 A 
ATOM      6  C   UNL     1      -3.212  -3.163  -7.363  0.00  0.00    +0.001 A 
ATOM      7  C   UNL     1      -4.382  -3.801  -6.986  0.00  0.00    +0.002 A 
ATOM      8  C   UNL     1      -4.778  -3.898  -5.663  0.00  0.00    +0.026 A 
ATOM      9  C   UNL     1      -3.941  -3.321  -4.710  0.00  0.00    +0.047 A 
ATOM     10  N   UNL     1      -4.027  -3.235  -3.350  0.00  0.00    -0.359 N 
ATOM     11  H   UNL     1      -4.748  -3.597  -2.812  0.00  0.00    +0.166 HD
ATOM     12  C   UNL     1      -2.941  -2.561  -2.860  0.00  0.00    +0.011 A 
ATOM     13  C   UNL     1      -2.640  -2.243  -1.414  0.00  0.00    +0.015 C 
ATOM     14  N   UNL     1      -1.628  -1.159  -1.383  0.00  0.00    +0.393 N 
ATOM     15  H   UNL     1      -2.045  -0.304  -1.769  0.00  0.00    -0.080 HD
ENDROOT
BRANCH  13  16
ATOM     16  C   UNL     1      -3.893  -1.760  -0.730  0.00  0.00    -0.010 A 
ATOM     17  C   UNL     1      -4.155  -0.405  -0.643  0.00  0.00    +0.006 A 
ATOM     18  C   UNL     1      -5.306   0.041  -0.021  0.00  0.00    +0.004 A 
ATOM     19  C   UNL     1      -6.194  -0.866   0.527  0.00  0.00    +0.049 A 
ATOM     20  C   UNL     1      -5.935  -2.224   0.448  0.00  0.00    +0.162 A 
ATOM     21  C   UNL     1      -4.779  -2.674  -0.183  0.00  0.00    +0.163 A 
BRANCH  21  22
ATOM     22  O   UNL     1      -4.519  -4.006  -0.263  0.00  0.00    -0.491 OA
ATOM     23  C   UNL     1      -3.770  -4.586   0.806  0.00  0.00    +0.277 C 
ENDBRANCH  21  22
BRANCH  20  24
ATOM     24  O   UNL     1      -6.808  -3.117   0.987  0.00  0.00    -0.491 OA
ATOM     25  C   UNL     1      -7.974  -2.585   1.619  0.00  0.00    +0.277 C 
ENDBRANCH  20  24
ENDBRANCH  13  16
BRANCH  14  26
ATOM     26  C   UNL     1      -1.208  -0.902   0.009  0.00  0.00    -0.002 C 
BRANCH  26  30
ATOM     27  C   UNL     1       2.092   0.660  -0.014  0.00  0.00    +0.131 A 
ATOM     28  C   UNL     1       1.331   1.769  -0.001  0.00  0.00    +0.047 A 
ATOM     29  C   UNL     1      -0.016   1.341   0.009  0.00  0.00    +0.043 A 
ATOM     30  C   UNL     1       0.002  -0.004   0.002  0.00  0.00    +0.089 A 
ATOM     31  O   UNL     1       1.282  -0.411  -0.012  0.00  0.00    -0.464 OA
BRANCH  27  32
ATOM     32  C   UNL     1       3.599   0.625  -0.030  0.00  0.00    +0.233 C 
BRANCH  32  34
ATOM     33  C   UNL     1       5.514   0.573   1.411  0.00  0.00    +0.194 C 
ATOM     34  O   UNL     1       4.089   0.607   1.313  0.00  0.00    -0.375 OA
ENDBRANCH  32  34
ENDBRANCH  27  32
ENDBRANCH  26  30
ENDBRANCH  14  26
TORSDOF 7
