REMARK  Name = ZINC40348181
REMARK  9 active torsions:
REMARK  status: ('A' for Active; 'I' for Inactive)
REMARK    1  A    between atoms: C_1  and  C_2
REMARK    2  A    between atoms: C_2  and  C_4
REMARK    3  A    between atoms: C_2  and  N_18
REMARK    4  A    between atoms: C_4  and  N_5
REMARK    5  A    between atoms: N_5  and  S_6
REMARK    6  A    between atoms: S_6  and  C_9
REMARK    7  A    between atoms: C_12  and  N_16
REMARK    8  A    between atoms: N_18  and  C_19
REMARK    9  A    between atoms: N_18  and  C_20
REMARK                            x       y       z     vdW  Elec       q    Type
REMARK                         _______ _______ _______ _____ _____    ______ ____
ROOT
ATOM      1  S   UNL     1       1.798  -2.484   2.877  0.00  0.00    +0.060 S 
ATOM      2  O   UNL     1       1.553  -3.879   2.994  0.00  0.00    -0.153 OA
ATOM      3  O   UNL     1       3.081  -1.960   2.566  0.00  0.00    -0.153 OA
ENDROOT
BRANCH   1   4
ATOM      4  C   UNL     1       1.315  -1.758   4.408  0.00  0.00    +0.133 A 
ATOM      5  C   UNL     1       1.857  -0.547   4.800  0.00  0.00    +0.047 A 
ATOM      6  C   UNL     1       1.481   0.025   6.000  0.00  0.00    +0.040 A 
ATOM      7  C   UNL     1       0.557  -0.617   6.814  0.00  0.00    +0.027 A 
ATOM      8  C   UNL     1       0.014  -1.833   6.419  0.00  0.00    +0.040 A 
ATOM      9  C   UNL     1       0.390  -2.397   5.215  0.00  0.00    +0.047 A 
ATOM     10 BR   UNL     1      -0.354  -4.049   4.672  0.00  0.00    -0.048 Br
ATOM     11 BR   UNL     1       3.115   0.327   3.690  0.00  0.00    -0.048 Br
BRANCH   7  12
ATOM     12  N   UNL     1       0.175  -0.042   8.028  0.00  0.00    -0.358 N 
ATOM     13  H   UNL     1       0.555   0.807   8.304  0.00  0.00    +0.142 HD
ATOM     14  H   UNL     1      -0.471  -0.492   8.596  0.00  0.00    +0.142 HD
ENDBRANCH   7  12
ENDBRANCH   1   4
BRANCH   1  15
ATOM     15  N   UNL     1       0.760  -1.917   1.718  0.00  0.00    -0.191 NA
ATOM     16  H   UNL     1       0.160  -2.528   1.263  0.00  0.00    +0.148 HD
BRANCH  15  17
ATOM     17  C   UNL     1       0.749  -0.492   1.379  0.00  0.00    +0.090 C 
BRANCH  17  19
ATOM     18  C   UNL     1      -0.072   1.208  -0.258  0.00  0.00    -0.012 C 
ATOM     19  C   UNL     1      -0.002  -0.287   0.062  0.00  0.00    -0.057 C 
BRANCH  19  20
ATOM     20  N   UNL     1      -1.364  -0.825   0.186  0.00  0.00    +0.379 N 
ATOM     21  C   UNL     1      -2.108  -0.046   1.185  0.00  0.00    -0.096 C 
ATOM     22  C   UNL     1      -2.046  -0.736  -1.112  0.00  0.00    -0.096 C 
ATOM     23  H   UNL     1      -1.319  -1.790   0.478  0.00  0.00    -0.082 HD
ENDBRANCH  19  20
ENDBRANCH  17  19
ENDBRANCH  15  17
ENDBRANCH   1  15
TORSDOF 6
