REMARK  Name = ZINC32577039
REMARK  9 active torsions:
REMARK  status: ('A' for Active; 'I' for Inactive)
REMARK    1  A    between atoms: C_1  and  C_2
REMARK    2  A    between atoms: C_5  and  N_8
REMARK    3  A    between atoms: C_17  and  S_18
REMARK    4  A    between atoms: S_18  and  C_19
REMARK    5  A    between atoms: C_19  and  C_20
REMARK    6  A    between atoms: N_22  and  N_23
REMARK    7  A    between atoms: C_24  and  C_25
REMARK    8  A    between atoms: C_28  and  O_32
REMARK    9  A    between atoms: C_29  and  O_31
REMARK                            x       y       z     vdW  Elec       q    Type
REMARK                         _______ _______ _______ _____ _____    ______ ____
ROOT
ATOM      1  N   UNL     1       1.073  -4.987   3.886  0.00  0.00    -0.255 N 
ATOM      2  C   UNL     1       1.515  -3.907   4.572  0.00  0.00    +0.268 A 
ATOM      3  O   UNL     1       2.702  -3.655   4.687  0.00  0.00    -0.267 OA
ATOM      4  C   UNL     1       0.502  -3.078   5.155  0.00  0.00    +0.076 A 
ATOM      5  C   UNL     1       0.712  -1.869   5.934  0.00  0.00    -0.023 A 
ATOM      6  C   UNL     1      -0.396  -1.242   6.391  0.00  0.00    -0.004 A 
ATOM      7  S   UNL     1      -1.758  -2.220   5.810  0.00  0.00    -0.073 S 
ATOM      8  C   UNL     1      -0.843  -3.466   4.959  0.00  0.00    +0.117 A 
ATOM      9  N   UNL     1      -1.212  -4.541   4.273  0.00  0.00    -0.215 NA
ATOM     10  C   UNL     1      -0.250  -5.287   3.746  0.00  0.00    +0.178 A 
ATOM     11  C   UNL     1      -0.457   0.011   7.210  0.00  0.00    +0.043 C 
ATOM     12  C   UNL     1       0.942   0.289   7.777  0.00  0.00    +0.005 C 
ATOM     13  C   UNL     1       1.965   0.157   6.645  0.00  0.00    +0.005 C 
ATOM     14  C   UNL     1       2.100  -1.311   6.237  0.00  0.00    +0.037 C 
ENDROOT
BRANCH   1  19
ATOM     15  C   UNL     1       4.899  -8.423   1.485  0.00  0.00    +0.044 C 
ATOM     16  C   UNL     1       3.882  -7.511   2.122  0.00  0.00    -0.050 A 
ATOM     17  C   UNL     1       3.736  -6.214   1.665  0.00  0.00    +0.005 A 
ATOM     18  C   UNL     1       2.806  -5.375   2.247  0.00  0.00    +0.026 A 
ATOM     19  C   UNL     1       2.017  -5.835   3.293  0.00  0.00    +0.052 A 
ATOM     20  C   UNL     1       2.170  -7.136   3.754  0.00  0.00    +0.026 A 
ATOM     21  C   UNL     1       3.098  -7.972   3.164  0.00  0.00    +0.005 A 
ENDBRANCH   1  19
BRANCH  10  22
ATOM     22  S   UNL     1      -0.699  -6.722   2.828  0.00  0.00    -0.078 S 
BRANCH  22  23
ATOM     23  C   UNL     1      -2.502  -6.630   2.964  0.00  0.00    +0.174 C 
BRANCH  23  24
ATOM     24  C   UNL     1      -3.120  -7.793   2.232  0.00  0.00    +0.242 C 
ATOM     25  O   UNL     1      -2.412  -8.604   1.673  0.00  0.00    -0.273 OA
ATOM     26  N   UNL     1      -4.461  -7.932   2.198  0.00  0.00    -0.206 N 
ATOM     27  H   UNL     1      -5.103  -7.197   2.704  0.00  0.00    +0.177 HD
BRANCH  26  28
ATOM     28  N   UNL     1      -5.036  -9.013   1.517  0.00  0.00    -0.188 NA
ATOM     29  C   UNL     1      -6.324  -9.079   1.376  0.00  0.00    +0.138 C 
BRANCH  29  30
ATOM     30  C   UNL     1      -7.132  -7.847   1.393  0.00  0.00    -0.002 A 
ATOM     31  C   UNL     1      -8.519  -7.920   1.547  0.00  0.00    +0.013 A 
ATOM     32  C   UNL     1      -9.273  -6.766   1.569  0.00  0.00    +0.050 A 
ATOM     33  C   UNL     1      -8.658  -5.530   1.426  0.00  0.00    +0.158 A 
ATOM     34  C   UNL     1      -7.277  -5.449   1.265  0.00  0.00    +0.159 A 
ATOM     35  C   UNL     1      -6.514  -6.602   1.249  0.00  0.00    +0.058 A 
BRANCH  34  36
ATOM     36  O   UNL     1      -6.678  -4.236   1.125  0.00  0.00    -0.503 OA
ATOM     37  H   UNL     1      -5.588  -4.172   0.998  0.00  0.00    +0.292 HD
ENDBRANCH  34  36
BRANCH  33  38
ATOM     38  O   UNL     1      -9.406  -4.395   1.443  0.00  0.00    -0.503 OA
ATOM     39  H   UNL     1      -8.921  -3.414   1.330  0.00  0.00    +0.292 HD
ENDBRANCH  33  38
ENDBRANCH  29  30
ENDBRANCH  26  28
ENDBRANCH  23  24
ENDBRANCH  22  23
ENDBRANCH  10  22
TORSDOF 8
