REMARK  Name = ZINC16312436
REMARK  8 active torsions:
REMARK  status: ('A' for Active; 'I' for Inactive)
REMARK    1  A    between atoms: C_1  and  C_2
REMARK    2  A    between atoms: C_5  and  N_9
REMARK    3  A    between atoms: C_7  and  C_8
REMARK    4  A    between atoms: C_10  and  C_12
REMARK    5  A    between atoms: C_12  and  N_13
REMARK    6  A    between atoms: C_17  and  C_18
REMARK    7  A    between atoms: N_22  and  C_23
REMARK    8  A    between atoms: C_26  and  C_29
REMARK                            x       y       z     vdW  Elec       q    Type
REMARK                         _______ _______ _______ _____ _____    ______ ____
ROOT
ATOM      1  N   UNL     1      -0.231  -6.300  -2.797  0.00  0.00    -0.219 N 
ATOM      2  C   UNL     1      -1.422  -6.506  -3.333  0.00  0.00    +0.261 C 
ATOM      3  O   UNL     1      -2.439  -6.191  -2.741  0.00  0.00    -0.269 OA
ATOM      4  C   UNL     1      -1.480  -7.110  -4.626  0.00  0.00    +0.081 C 
ATOM      5  C   UNL     1      -2.566  -7.426  -5.387  0.00  0.00    +0.046 C 
ATOM      6  S   UNL     1       0.259  -7.337  -4.974  0.00  0.00    -0.026 S 
ATOM      7  C   UNL     1       0.897  -6.644  -3.457  0.00  0.00    +0.286 C 
ATOM      8  O   UNL     1       2.055  -6.516  -3.105  0.00  0.00    -0.262 OA
ENDROOT
BRANCH   5   9
ATOM      9  C   UNL     1      -2.397  -8.131  -6.601  0.00  0.00    +0.048 A 
ATOM     10  C   UNL     1      -1.191  -8.463  -7.194  0.00  0.00    +0.027 A 
ATOM     11  C   UNL     1      -1.488  -9.154  -8.374  0.00  0.00    +0.020 A 
ATOM     12  C   UNL     1      -2.836  -9.232  -8.485  0.00  0.00    +0.092 A 
ATOM     13  N   UNL     1      -3.403  -8.618  -7.410  0.00  0.00    -0.316 N 
BRANCH  13  14
ATOM     14  C   UNL     1      -4.773  -8.498  -7.168  0.00  0.00    +0.047 A 
ATOM     15  C   UNL     1      -5.294  -8.871  -5.933  0.00  0.00    +0.027 A 
ATOM     16  C   UNL     1      -6.644  -8.754  -5.691  0.00  0.00    +0.017 A 
ATOM     17  C   UNL     1      -7.492  -8.260  -6.688  0.00  0.00    +0.063 A 
ATOM     18  C   UNL     1      -6.963  -7.887  -7.928  0.00  0.00    +0.017 A 
ATOM     19  C   UNL     1      -5.612  -8.002  -8.161  0.00  0.00    +0.027 A 
BRANCH  17  20
ATOM     20  C   UNL     1      -8.937  -8.135  -6.433  0.00  0.00    +0.387 C 
ATOM     21  O   UNL     1      -9.398  -8.462  -5.348  0.00  0.00    -0.241 OA
ATOM     22  O   UNL     1      -9.677  -7.703  -7.306  0.00  0.00    -0.241 OA
ENDBRANCH  17  20
ENDBRANCH  13  14
ENDBRANCH   5   9
BRANCH   1  23
ATOM     23  C   UNL     1      -0.133  -5.683  -1.472  0.00  0.00    +0.213 C 
BRANCH  23  25
ATOM     24  N   UNL     1       0.038  -3.404  -0.525  0.00  0.00    -0.284 N 
ATOM     25  C   UNL     1      -0.058  -4.185  -1.620  0.00  0.00    +0.235 C 
ATOM     26  O   UNL     1      -0.084  -3.682  -2.723  0.00  0.00    -0.274 OA
ATOM     27  H   UNL     1       0.126  -3.807   0.352  0.00  0.00    +0.155 HD
BRANCH  24  32
ATOM     28  C   UNL     1      -0.074   2.244  -1.052  0.00  0.00    +0.044 C 
ATOM     29  C   UNL     1      -0.044   0.744  -0.912  0.00  0.00    -0.047 A 
ATOM     30  C   UNL     1      -0.776  -0.045  -1.781  0.00  0.00    +0.005 A 
ATOM     31  C   UNL     1      -0.751  -1.420  -1.656  0.00  0.00    +0.023 A 
ATOM     32  C   UNL     1       0.011  -2.011  -0.655  0.00  0.00    +0.034 A 
ATOM     33  C   UNL     1       0.744  -1.216   0.215  0.00  0.00    +0.027 A 
ATOM     34  C   UNL     1       0.718   0.158   0.082  0.00  0.00    -0.046 A 
ATOM     35  C   UNL     1       1.519   1.021   1.023  0.00  0.00    +0.044 C 
ENDBRANCH  24  32
ENDBRANCH  23  25
ENDBRANCH   1  23
TORSDOF 6
