REMARK  Name = ZINC61370278
REMARK  6 active torsions:
REMARK  status: ('A' for Active; 'I' for Inactive)
REMARK    1  A    between atoms: C_1  and  C_2
REMARK    2  A    between atoms: C_2  and  C_4
REMARK    3  A    between atoms: C_2  and  N_9
REMARK    4  A    between atoms: N_12  and  CA_13
REMARK    5  A    between atoms: CA_13  and  C_15
REMARK    6  A    between atoms: CA_13  and  C_18
REMARK                            x       y       z     vdW  Elec       q    Type
REMARK                         _______ _______ _______ _____ _____    ______ ____
ROOT
ATOM      1  N   UNL     1       0.711  -0.489   1.189  0.00  0.00    -0.293 N 
ATOM      2  C   UNL     1       2.054  -0.600   1.174  0.00  0.00    +0.301 C 
ATOM      3  O   UNL     1       2.677  -0.297   0.175  0.00  0.00    -0.253 OA
ATOM      4  N   UNL     1       2.706  -1.046   2.266  0.00  0.00    -0.286 N 
ATOM      5  H   UNL     1       0.213  -0.731   1.986  0.00  0.00    +0.151 HD
ATOM      6  H   UNL     1       2.208  -1.288   3.062  0.00  0.00    +0.151 HD
ENDROOT
BRANCH   1   8
ATOM      7  C   UNL     1      -0.019   1.526   0.010  0.00  0.00    +0.033 C 
ATOM      8  C   UNL     1       0.002  -0.004   0.002  0.00  0.00    +0.102 C 
BRANCH   8   9
ATOM      9  C   UNL     1      -1.412  -0.526   0.013  0.00  0.00    -0.020 A 
ATOM     10  C   UNL     1      -2.008  -0.961  -1.156  0.00  0.00    +0.013 A 
ATOM     11  C   UNL     1      -3.281  -1.424  -1.112  0.00  0.00    +0.045 A 
ATOM     12  S   UNL     1      -3.676  -1.252   0.621  0.00  0.00    -0.105 S 
ATOM     13  C   UNL     1      -2.116  -0.580   1.169  0.00  0.00    +0.050 A 
ENDBRANCH   8   9
ENDBRANCH   1   8
BRANCH   4  14
ATOM     14  CA  UNL     1       4.166  -1.166   2.249  0.00  0.00    +0.191 C 
BRANCH  14  15
ATOM     15  C   UNL     1       4.701  -1.074   3.679  0.00  0.00    +0.020 C 
ATOM     16  C   UNL     1       5.512   0.169   4.051  0.00  0.00    +0.006 C 
ATOM     17  C   UNL     1       6.215  -1.178   3.875  0.00  0.00    +0.006 C 
ENDBRANCH  14  15
BRANCH  14  18
ATOM     18  C   UNL     1       4.554  -2.494   1.652  0.00  0.00    +0.376 C 
ATOM     19  O   UNL     1       5.607  -2.607   1.048  0.00  0.00    -0.244 OA
ATOM     20  OXT UNL     1       3.815  -3.457   1.773  0.00  0.00    -0.244 OA
ENDBRANCH  14  18
ENDBRANCH   4  14
TORSDOF 5
