REMARK  Name = ZINC55155067
REMARK  14 active torsions:
REMARK  status: ('A' for Active; 'I' for Inactive)
REMARK    1  A    between atoms: C_1  and  C_2
REMARK    2  A    between atoms: C_2  and  N_3
REMARK    3  A    between atoms: C_7  and  C_8
REMARK    4  A    between atoms: C_8  and  N_9
REMARK    5  A    between atoms: N_9  and  C_10
REMARK    6  A    between atoms: C_10  and  C_11
REMARK    7  A    between atoms: C_14  and  O_19
REMARK    8  A    between atoms: C_15  and  O_17
REMARK    9  A    between atoms: O_17  and  C_18
REMARK   10  A    between atoms: O_19  and  C_20
REMARK   11  A    between atoms: C_20  and  C_21
REMARK   12  A    between atoms: C_21  and  C_23
REMARK   13  A    between atoms: C_21  and  O_30
REMARK   14  A    between atoms: C_23  and  N_24
REMARK                            x       y       z     vdW  Elec       q    Type
REMARK                         _______ _______ _______ _____ _____    ______ ____
ROOT
ATOM      1  C   UNL     1      -3.809   2.633   4.144  0.00  0.00    -0.030 A 
ATOM      2  C   UNL     1      -3.460   3.069   5.409  0.00  0.00    +0.009 A 
ATOM      3  C   UNL     1      -3.446   4.421   5.698  0.00  0.00    +0.050 A 
ATOM      4  C   UNL     1      -3.781   5.342   4.719  0.00  0.00    +0.162 A 
ATOM      5  C   UNL     1      -4.131   4.904   3.446  0.00  0.00    +0.162 A 
ATOM      6  C   UNL     1      -4.139   3.547   3.161  0.00  0.00    +0.054 A 
ENDROOT
BRANCH   5   7
ATOM      7  O   UNL     1      -4.461   5.804   2.481  0.00  0.00    -0.491 OA
ATOM      8  C   UNL     1      -4.810   5.281   1.198  0.00  0.00    +0.277 C 
ENDBRANCH   5   7
BRANCH   1   9
ATOM      9  C   UNL     1      -3.823   1.158   3.835  0.00  0.00    +0.116 C 
BRANCH   9  10
ATOM     10  N   UNL     1      -2.499   0.747   3.351  0.00  0.00    -0.305 NA
ATOM     11  H   UNL     1      -1.780   0.984   4.018  0.00  0.00    +0.123 HD
BRANCH  10  12
ATOM     12  C   UNL     1      -2.475  -0.688   3.038  0.00  0.00    +0.154 C 
BRANCH  12  17
ATOM     13  N   UNL     1      -0.665  -0.964   1.273  0.00  0.00    -0.335 N 
ATOM     14  C   UNL     1       0.628  -1.413   1.251  0.00  0.00    +0.104 A 
ATOM     15  C   UNL     1       0.933  -1.784   2.509  0.00  0.00    +0.101 A 
ATOM     16  N   UNL     1      -0.144  -1.568   3.278  0.00  0.00    -0.349 N 
ATOM     17  C   UNL     1      -1.103  -1.073   2.546  0.00  0.00    +0.101 A 
ATOM     18  H   UNL     1      -0.199  -1.748   4.230  0.00  0.00    +0.166 HD
BRANCH  13  20
ATOM     19  C   UNL     1      -1.322   1.069   0.084  0.00  0.00    +0.027 C 
ATOM     20  C   UNL     1      -1.429  -0.456   0.131  0.00  0.00    +0.119 C 
ENDBRANCH  13  20
ENDBRANCH  12  17
ENDBRANCH  10  12
ENDBRANCH   9  10
ENDBRANCH   1   9
BRANCH   4  21
ATOM     21  O   UNL     1      -3.768   6.673   5.002  0.00  0.00    -0.486 OA
BRANCH  21  22
ATOM     22  C   UNL     1      -3.398   7.050   6.329  0.00  0.00    +0.258 C 
BRANCH  22  23
ATOM     23  C   UNL     1      -3.440   8.574   6.457  0.00  0.00    +0.135 C 
BRANCH  23  24
ATOM     24  O   UNL     1      -4.785   9.028   6.295  0.00  0.00    -0.390 OA
ATOM     25  H   UNL     1      -5.403   8.670   6.947  0.00  0.00    +0.210 HD
ENDBRANCH  23  24
BRANCH  23  26
ATOM     26  C   UNL     1      -2.926   8.985   7.838  0.00  0.00    -0.044 C 
BRANCH  26  27
ATOM     27  N   UNL     1      -2.986  10.447   7.968  0.00  0.00    +0.382 N 
ATOM     28  C   UNL     1      -2.066  11.053   7.004  0.00  0.00    -0.068 C 
ATOM     29  C   UNL     1      -2.376  12.547   6.856  0.00  0.00    +0.050 C 
ATOM     30  S   UNL     1      -2.112  13.347   8.470  0.00  0.00    -0.164 S 
ATOM     31  C   UNL     1      -3.049  12.275   9.604  0.00  0.00    +0.050 C 
ATOM     32  C   UNL     1      -2.638  10.821   9.340  0.00  0.00    -0.068 C 
ATOM     33  H   UNL     1      -3.925  10.758   7.769  0.00  0.00    -0.082 HD
ENDBRANCH  26  27
ENDBRANCH  23  26
ENDBRANCH  22  23
ENDBRANCH  21  22
ENDBRANCH   4  21
TORSDOF 12
