REMARK  Name = ZINC39232112
REMARK  5 active torsions:
REMARK  status: ('A' for Active; 'I' for Inactive)
REMARK    1  A    between atoms: C_4  and  N_7
REMARK    2  A    between atoms: C_8  and  S_13
REMARK    3  A    between atoms: S_13  and  C_14
REMARK    4  A    between atoms: C_14  and  C_15
REMARK    5  A    between atoms: N_17  and  C_21
REMARK                            x       y       z     vdW  Elec       q    Type
REMARK                         _______ _______ _______ _____ _____    ______ ____
ROOT
ATOM      1  N   UNL     1       3.620  -0.649  -0.036  0.00  0.00    -0.254 N 
ATOM      2  C   UNL     1       3.797  -2.111  -0.052  0.00  0.00    +0.202 C 
ATOM      3  N   UNL     1       5.262  -2.338  -0.109  0.00  0.00    -0.320 NA
ATOM      4  N   UNL     1       5.766  -1.063  -0.650  0.00  0.00    +0.411 N 
ATOM      5  N   UNL     1       4.868  -0.073  -0.046  0.00  0.00    -0.265 NA
ATOM      6  H   UNL     1       5.638  -2.514   0.811  0.00  0.00    +0.106 HD
ATOM      7  H   UNL     1       6.720  -0.905  -0.362  0.00  0.00    -0.031 HD
ATOM      8  H   UNL     1       5.166   0.159   0.889  0.00  0.00    +0.125 HD
ATOM      9  H   UNL     1       5.686  -1.045  -1.656  0.00  0.00    -0.031 HD
ENDROOT
BRANCH   1  13
ATOM     10  C   UNL     1      -0.017   1.379   0.010  0.00  0.00    +0.000 A 
ATOM     11  C   UNL     1       1.169   2.089   0.002  0.00  0.00    +0.002 A 
ATOM     12  C   UNL     1       2.377   1.420  -0.013  0.00  0.00    +0.024 A 
ATOM     13  C   UNL     1       2.400   0.031  -0.021  0.00  0.00    +0.045 A 
ATOM     14  C   UNL     1       1.206  -0.680  -0.013  0.00  0.00    +0.024 A 
ATOM     15  C   UNL     1       0.002  -0.004   0.002  0.00  0.00    +0.002 A 
ENDBRANCH   1  13
BRANCH   2  16
ATOM     16  S   UNL     1       2.993  -2.824  -1.513  0.00  0.00    -0.117 S 
BRANCH  16  17
ATOM     17  C   UNL     1       3.834  -2.028  -2.909  0.00  0.00    +0.125 C 
BRANCH  17  18
ATOM     18  C   UNL     1       3.254  -2.538  -4.203  0.00  0.00    +0.056 C 
ATOM     19  N   UNL     1       2.314  -3.392  -4.326  0.00  0.00    -0.180 NA
ATOM     20  N   UNL     1       1.993  -3.665  -5.653  0.00  0.00    -0.161 N 
ATOM     21  C   UNL     1       2.766  -2.950  -6.497  0.00  0.00    +0.245 C 
ATOM     22  O   UNL     1       2.738  -2.958  -7.710  0.00  0.00    -0.273 OA
ATOM     23  C   UNL     1       3.673  -2.129  -5.599  0.00  0.00    +0.151 C 
BRANCH  20  24
ATOM     24  C   UNL     1       0.999  -4.564  -6.058  0.00  0.00    +0.060 A 
ATOM     25  C   UNL     1       0.759  -4.772  -7.410  0.00  0.00    +0.027 A 
ATOM     26  C   UNL     1      -0.222  -5.660  -7.807  0.00  0.00    +0.022 A 
ATOM     27  C   UNL     1      -0.965  -6.342  -6.859  0.00  0.00    +0.041 A 
ATOM     28  C   UNL     1      -0.727  -6.136  -5.512  0.00  0.00    +0.022 A 
ATOM     29  C   UNL     1       0.256  -5.254  -5.109  0.00  0.00    +0.027 A 
ATOM     30 CL   UNL     1      -2.197  -7.457  -7.362  0.00  0.00    -0.084 Cl
ENDBRANCH  20  24
ENDBRANCH  17  18
ENDBRANCH  16  17
ENDBRANCH   2  16
TORSDOF 5
