REMARK  Name = ZINC34757170
REMARK  4 active torsions:
REMARK  status: ('A' for Active; 'I' for Inactive)
REMARK    1  A    between atoms: C_1  and  N_2
REMARK    2  A    between atoms: C_12  and  O_14
REMARK    3  A    between atoms: O_14  and  C_15
REMARK    4  A    between atoms: N_29  and  C_30
REMARK                            x       y       z     vdW  Elec       q    Type
REMARK                         _______ _______ _______ _____ _____    ______ ____
ROOT
ATOM      1  C   UNL     1      -0.914   0.065  -2.702  0.00  0.00    -0.096 C 
ATOM      2  N   UNL     1      -0.743  -1.325  -2.257  0.00  0.00    +0.380 N 
ATOM      3  C   UNL     1       0.168  -2.022  -3.174  0.00  0.00    -0.060 C 
ATOM      4  C   UNL     1       0.258  -3.499  -2.779  0.00  0.00    +0.089 C 
ATOM      5  N   UNL     1       0.644  -3.580  -1.362  0.00  0.00    -0.303 N 
ATOM      6  C   UNL     1      -0.118  -2.781  -0.389  0.00  0.00    +0.089 C 
ATOM      7  C   UNL     1      -0.190  -1.337  -0.897  0.00  0.00    -0.060 C 
ATOM      8  C   UNL     1       1.693  -4.386  -0.955  0.00  0.00    +0.221 A 
ATOM      9  N   UNL     1       2.055  -4.380   0.318  0.00  0.00    -0.219 NA
ATOM     10  C   UNL     1       3.056  -5.141   0.753  0.00  0.00    +0.056 A 
ATOM     11  C   UNL     1       3.714  -5.948  -0.144  0.00  0.00    +0.053 A 
ATOM     12  C   UNL     1       3.316  -5.928  -1.483  0.00  0.00    +0.230 A 
ATOM     13  N   UNL     1       2.307  -5.147  -1.847  0.00  0.00    -0.179 NA
ATOM     14  C   UNL     1       4.839  -6.863   0.262  0.00  0.00    +0.151 C 
ATOM     15  N   UNL     1       5.268  -6.538   1.628  0.00  0.00    -0.280 N 
ATOM     16  C   UNL     1       4.215  -6.308   2.631  0.00  0.00    +0.116 C 
ATOM     17  C   UNL     1       3.422  -5.071   2.211  0.00  0.00    +0.075 C 
ATOM     18  C   UNL     1       6.574  -6.453   1.950  0.00  0.00    +0.307 C 
ATOM     19  O   UNL     1       6.902  -6.110   3.070  0.00  0.00    -0.252 OA
ATOM     20  N   UNL     1       7.515  -6.747   1.032  0.00  0.00    -0.269 N 
ATOM     21  H   UNL     1       7.256  -6.948   0.119  0.00  0.00    +0.156 HD
ATOM     22  H   UNL     1      -1.638  -1.790  -2.259  0.00  0.00    -0.082 HD
ENDROOT
BRANCH  20  23
ATOM     23  C   UNL     1       8.866  -6.764   1.396  0.00  0.00    +0.036 A 
ATOM     24  C   UNL     1       9.236  -7.144   2.680  0.00  0.00    +0.023 A 
ATOM     25  C   UNL     1      10.570  -7.161   3.037  0.00  0.00    +0.003 A 
ATOM     26  C   UNL     1      11.538  -6.799   2.118  0.00  0.00    +0.020 A 
ATOM     27  C   UNL     1      11.173  -6.419   0.838  0.00  0.00    +0.043 A 
ATOM     28  C   UNL     1       9.840  -6.407   0.473  0.00  0.00    +0.043 A 
ATOM     29 CL   UNL     1      12.391  -5.965  -0.312  0.00  0.00    -0.083 Cl
ENDBRANCH  20  23
BRANCH  12  30
ATOM     30  O   UNL     1       3.948  -6.703  -2.398  0.00  0.00    -0.437 OA
BRANCH  30  31
ATOM     31  C   UNL     1       3.496  -6.675  -3.679  0.00  0.00    +0.133 A 
ATOM     32  C   UNL     1       2.807  -5.566  -4.149  0.00  0.00    +0.049 A 
ATOM     33  C   UNL     1       2.348  -5.538  -5.451  0.00  0.00    +0.045 A 
ATOM     34  C   UNL     1       2.574  -6.616  -6.289  0.00  0.00    +0.159 A 
ATOM     35  C   UNL     1       3.261  -7.726  -5.823  0.00  0.00    +0.162 A 
ATOM     36  C   UNL     1       3.727  -7.753  -4.520  0.00  0.00    +0.087 A 
ATOM     37  F   UNL     1       3.481  -8.778  -6.641  0.00  0.00    -0.202 F 
ATOM     38  F   UNL     1       2.124  -6.587  -7.563  0.00  0.00    -0.202 F 
ENDBRANCH  30  31
ENDBRANCH  12  30
TORSDOF 3
