REMARK  Name = ZINC35143629
REMARK  18 active torsions:
REMARK  status: ('A' for Active; 'I' for Inactive)
REMARK    1  A    between atoms: C_1  and  C_2
REMARK    2  A    between atoms: C_2  and  C_3
REMARK    3  A    between atoms: C_3  and  C_4
REMARK    4  A    between atoms: C_4  and  N_5
REMARK    5  A    between atoms: N_8  and  C_9
REMARK    6  A    between atoms: N_8  and  C_14
REMARK    7  A    between atoms: C_9  and  C_10
REMARK    8  A    between atoms: C_10  and  N_11
REMARK    9  A    between atoms: N_11  and  C_12
REMARK   10  A    between atoms: N_11  and  C_13
REMARK   11  A    between atoms: C_14  and  C_15
REMARK   12  A    between atoms: N_17  and  C_18
REMARK   13  A    between atoms: C_20  and  C_30
REMARK   14  A    between atoms: N_22  and  C_23
REMARK   15  A    between atoms: C_28  and  C_29
REMARK   16  A    between atoms: C_30  and  C_31
REMARK   17  A    between atoms: C_30  and  C_32
REMARK   18  A    between atoms: C_30  and  C_33
REMARK                            x       y       z     vdW  Elec       q    Type
REMARK                         _______ _______ _______ _____ _____    ______ ____
ROOT
ATOM      1  C   UNL     1      -4.243  -6.409   1.492  0.00  0.00    +0.236 C 
ATOM      2  O   UNL     1      -4.178  -5.621   2.413  0.00  0.00    -0.274 OA
ATOM      3  N   UNL     1      -4.553  -7.699   1.730  0.00  0.00    -0.269 N 
ATOM      4  H   UNL     1      -4.605  -8.328   0.994  0.00  0.00    +0.156 HD
ENDROOT
BRANCH   3   5
ATOM      5  C   UNL     1      -4.798  -8.128   3.034  0.00  0.00    +0.129 A 
ATOM      6  C   UNL     1      -4.646  -7.390   4.167  0.00  0.00    +0.069 A 
ATOM      7  C   UNL     1      -4.997  -8.195   5.254  0.00  0.00    +0.071 A 
ATOM      8  N   UNL     1      -5.348  -9.372   4.802  0.00  0.00    -0.169 NA
ATOM      9  N   UNL     1      -5.240  -9.361   3.406  0.00  0.00    -0.218 N 
BRANCH   9  10
ATOM     10  C   UNL     1      -5.530 -10.428   2.546  0.00  0.00    +0.070 A 
ATOM     11  C   UNL     1      -6.317 -10.221   1.421  0.00  0.00    +0.028 A 
ATOM     12  C   UNL     1      -6.602 -11.275   0.575  0.00  0.00    +0.002 A 
ATOM     13  C   UNL     1      -6.104 -12.536   0.848  0.00  0.00    +0.000 A 
ATOM     14  C   UNL     1      -5.321 -12.746   1.968  0.00  0.00    +0.005 A 
ATOM     15  C   UNL     1      -5.028 -11.694   2.814  0.00  0.00    -0.025 A 
ATOM     16  C   UNL     1      -4.169 -11.922   4.031  0.00  0.00    +0.046 C 
ENDBRANCH   9  10
BRANCH   7  17
ATOM     17  C   UNL     1      -4.975  -7.778   6.702  0.00  0.00    +0.006 C 
ATOM     18  C   UNL     1      -6.167  -6.863   6.988  0.00  0.00    +0.017 C 
ATOM     19  C   UNL     1      -5.060  -9.020   7.592  0.00  0.00    +0.017 C 
ATOM     20  C   UNL     1      -3.674  -7.028   6.997  0.00  0.00    +0.017 C 
ENDBRANCH   7  17
ENDBRANCH   3   5
BRANCH   1  21
ATOM     21  C   UNL     1      -3.978  -5.944   0.083  0.00  0.00    +0.205 C 
BRANCH  21  25
ATOM     22  N   UNL     1      -2.103  -2.785   0.234  0.00  0.00    -0.299 N 
ATOM     23  C   UNL     1      -2.390  -4.102   0.226  0.00  0.00    +0.303 C 
ATOM     24  O   UNL     1      -1.497  -4.920   0.342  0.00  0.00    -0.253 OA
ATOM     25  N   UNL     1      -3.667  -4.513   0.091  0.00  0.00    -0.279 N 
ATOM     26  H   UNL     1      -2.815  -2.133   0.142  0.00  0.00    +0.150 HD
BRANCH  22  27
ATOM     27  C   UNL     1      -0.715  -2.339   0.381  0.00  0.00    +0.106 C 
BRANCH  27  28
ATOM     28  C   UNL     1      -0.666  -0.810   0.357  0.00  0.00    +0.018 C 
BRANCH  28  30
ATOM     29  C   UNL     1       0.832   1.185   0.487  0.00  0.00    +0.004 C 
ATOM     30  C   UNL     1       0.783  -0.344   0.511  0.00  0.00    -0.002 C 
ENDBRANCH  28  30
ENDBRANCH  27  28
ENDBRANCH  22  27
BRANCH  25  31
ATOM     31  C   UNL     1      -4.742  -3.528  -0.048  0.00  0.00    +0.091 C 
BRANCH  31  32
ATOM     32  C   UNL     1      -4.956  -3.212  -1.529  0.00  0.00    -0.060 C 
BRANCH  32  33
ATOM     33  N   UNL     1      -6.035  -2.224  -1.669  0.00  0.00    +0.377 N 
ATOM     34  C   UNL     1      -6.160  -1.832  -3.079  0.00  0.00    -0.097 C 
ATOM     35  C   UNL     1      -7.300  -2.813  -1.210  0.00  0.00    -0.097 C 
ATOM     36  H   UNL     1      -5.820  -1.411  -1.111  0.00  0.00    -0.083 HD
ENDBRANCH  32  33
ENDBRANCH  31  32
ENDBRANCH  25  31
ENDBRANCH  21  25
ENDBRANCH   1  21
TORSDOF 11
