REMARK  Name = ZINC16038027
REMARK  7 active torsions:
REMARK  status: ('A' for Active; 'I' for Inactive)
REMARK    1  A    between atoms: C_1  and  O_2
REMARK    2  A    between atoms: O_2  and  C_3
REMARK    3  A    between atoms: C_3  and  C_5
REMARK    4  A    between atoms: C_5  and  C_35
REMARK    5  A    between atoms: C_6  and  C_28
REMARK    6  A    between atoms: C_8  and  C_20
REMARK    7  A    between atoms: C_20  and  C_22
REMARK                            x       y       z     vdW  Elec       q    Type
REMARK                         _______ _______ _______ _____ _____    ______ ____
ROOT
ATOM      1  C   UNL     1       0.049   1.588  -0.152  0.00  0.00    +0.183 C 
ATOM      2  C   UNL     1       0.081   0.035  -0.078  0.00  0.00    +0.078 C 
ATOM      3  C   UNL     1       1.198  -0.211   0.968  0.00  0.00    +0.138 C 
ATOM      4  C   UNL     1       1.539   1.947  -0.026  0.00  0.00    +0.119 C 
ATOM      5  C   UNL     1       1.728   3.236   0.731  0.00  0.00    -0.019 A 
ATOM      6  C   UNL     1       0.842   4.279   0.597  0.00  0.00    +0.006 A 
ATOM      7  C   UNL     1       1.039   5.451   1.308  0.00  0.00    +0.000 A 
ATOM      8  C   UNL     1       2.126   5.577   2.156  0.00  0.00    +0.001 A 
ATOM      9  C   UNL     1       3.022   4.539   2.298  0.00  0.00    +0.008 A 
ATOM     10  C   UNL     1       2.833   3.355   1.584  0.00  0.00    -0.019 A 
ATOM     11  C   UNL     1       3.791   2.240   1.725  0.00  0.00    +0.022 C 
ATOM     12  C   UNL     1       3.428   1.002   1.331  0.00  0.00    +0.054 C 
ATOM     13  N   UNL     1       2.212   0.767   0.459  0.00  0.00    -0.383 NA
ATOM     14  H   UNL     1       2.601   0.328  -0.384  0.00  0.00    +0.127 HD
ENDROOT
BRANCH   2  15
ATOM     15  C   UNL     1      -1.238  -0.509   0.405  0.00  0.00    -0.040 A 
ATOM     16  C   UNL     1      -1.624  -0.322   1.719  0.00  0.00    +0.005 A 
ATOM     17  C   UNL     1      -2.836  -0.817   2.162  0.00  0.00    +0.015 A 
ATOM     18  C   UNL     1      -3.659  -1.508   1.291  0.00  0.00    +0.018 A 
ATOM     19  C   UNL     1      -3.271  -1.700  -0.023  0.00  0.00    +0.015 A 
ATOM     20  C   UNL     1      -2.061  -1.200  -0.465  0.00  0.00    +0.005 A 
ATOM     21 BR   UNL     1      -5.316  -2.191   1.897  0.00  0.00    -0.050 Br
ENDBRANCH   2  15
BRANCH   1  22
ATOM     22  C   UNL     1      -0.507   2.052  -1.473  0.00  0.00    +0.330 C 
ATOM     23  O   UNL     1      -0.853   1.242  -2.301  0.00  0.00    -0.249 OA
BRANCH  22  25
ATOM     24  C   UNL     1      -1.160   3.739  -3.025  0.00  0.00    +0.280 C 
ATOM     25  O   UNL     1      -0.616   3.365  -1.731  0.00  0.00    -0.467 OA
ENDBRANCH  22  25
ENDBRANCH   1  22
BRANCH   3  26
ATOM     26  C   UNL     1       1.866  -1.538   0.712  0.00  0.00    +0.182 C 
ATOM     27  O   UNL     1       1.715  -2.098  -0.353  0.00  0.00    -0.290 OA
BRANCH  26  28
ATOM     28  C   UNL     1       2.700  -2.154   1.756  0.00  0.00    +0.019 A 
ATOM     29  C   UNL     1       2.786  -1.570   3.024  0.00  0.00    +0.011 A 
ATOM     30  C   UNL     1       3.567  -2.156   3.997  0.00  0.00    +0.001 A 
ATOM     31  C   UNL     1       4.273  -3.313   3.720  0.00  0.00    +0.000 A 
ATOM     32  C   UNL     1       4.197  -3.895   2.466  0.00  0.00    +0.001 A 
ATOM     33  C   UNL     1       3.417  -3.324   1.483  0.00  0.00    +0.011 A 
ENDBRANCH  26  28
ENDBRANCH   3  26
BRANCH   1  34
ATOM     34  C   UNL     1      -0.724   2.151   0.968  0.00  0.00    +0.084 C 
ATOM     35  N   UNL     1      -1.320   2.585   1.831  0.00  0.00    -0.195 NA
ENDBRANCH   1  34
TORSDOF 6
