REMARK  Name = ZINC36786485
REMARK  11 active torsions:
REMARK  status: ('A' for Active; 'I' for Inactive)
REMARK    1  A    between atoms: C_1  and  C_2
REMARK    2  A    between atoms: C_2  and  C_4
REMARK    3  A    between atoms: C_2  and  N_7
REMARK    4  A    between atoms: C_4  and  C_5
REMARK    5  A    between atoms: C_4  and  C_6
REMARK    6  A    between atoms: N_7  and  C_8
REMARK    7  A    between atoms: N_7  and  C_9
REMARK    8  A    between atoms: C_9  and  C_11
REMARK    9  A    between atoms: C_9  and  C_12
REMARK   10  A    between atoms: N_14  and  C_15
REMARK   11  A    between atoms: C_16  and  N_23
REMARK                            x       y       z     vdW  Elec       q    Type
REMARK                         _______ _______ _______ _____ _____    ______ ____
ROOT
ATOM      1  C   UNL     1      -2.917  -0.204   0.842  0.00  0.00    +0.203 C 
ATOM      2  O   UNL     1      -3.343  -1.340   0.855  0.00  0.00    -0.277 OA
ATOM      3  N   UNL     1      -3.736   0.818   0.524  0.00  0.00    -0.284 N 
ATOM      4  H   UNL     1      -3.380   1.717   0.440  0.00  0.00    +0.155 HD
ENDROOT
BRANCH   3   5
ATOM      5  C   UNL     1      -5.103   0.584   0.315  0.00  0.00    +0.073 A 
ATOM      6  C   UNL     1      -6.054   1.385   0.946  0.00  0.00    +0.049 A 
ATOM      7  C   UNL     1      -7.405   1.148   0.735  0.00  0.00    +0.044 A 
ATOM      8  C   UNL     1      -7.805   0.120  -0.100  0.00  0.00    +0.044 A 
ATOM      9  C   UNL     1      -6.861  -0.675  -0.726  0.00  0.00    +0.042 A 
ATOM     10  C   UNL     1      -5.512  -0.442  -0.525  0.00  0.00    +0.065 A 
ATOM     11 CL   UNL     1      -4.331  -1.437  -1.319  0.00  0.00    -0.082 Cl
ATOM     12 CL   UNL     1      -9.495  -0.175  -0.362  0.00  0.00    -0.083 Cl
BRANCH   6  13
ATOM     13  N   UNL     1      -5.648   2.423   1.790  0.00  0.00    -0.356 N 
ATOM     14  H   UNL     1      -4.703   2.588   1.937  0.00  0.00    +0.142 HD
ATOM     15  H   UNL     1      -6.311   2.980   2.228  0.00  0.00    +0.142 HD
ENDBRANCH   6  13
ENDBRANCH   3   5
BRANCH   1  16
ATOM     16  C   UNL     1      -1.474   0.064   1.180  0.00  0.00    +0.016 C 
ATOM     17  C   UNL     1      -0.631   0.006  -0.096  0.00  0.00    -0.004 C 
BRANCH  16  18
ATOM     18  N   UNL     1      -0.997  -0.952   2.128  0.00  0.00    +0.387 N 
ATOM     19  C   UNL     1      -1.348  -2.289   1.631  0.00  0.00    -0.095 C 
ATOM     20  H   UNL     1       0.006  -0.881   2.221  0.00  0.00    -0.081 HD
BRANCH  18  22
ATOM     21  C   UNL     1      -3.148  -0.783   3.285  0.00  0.00    -0.013 C 
ATOM     22  C   UNL     1      -1.627  -0.735   3.437  0.00  0.00    -0.068 C 
BRANCH  22  23
ATOM     23  C   UNL     1      -1.212   0.632   3.983  0.00  0.00    -0.031 C 
ATOM     24  C   UNL     1      -1.768   0.808   5.397  0.00  0.00    +0.005 C 
ATOM     25  C   UNL     1       0.315   0.724   4.021  0.00  0.00    +0.005 C 
ENDBRANCH  22  23
ENDBRANCH  18  22
ENDBRANCH  16  18
ENDBRANCH   1  16
TORSDOF 6
