REMARK  Name = ZINC43287063
REMARK  13 active torsions:
REMARK  status: ('A' for Active; 'I' for Inactive)
REMARK    1  A    between atoms: C_1  and  C_2
REMARK    2  A    between atoms: C_2  and  C_3
REMARK    3  A    between atoms: C_3  and  C_5
REMARK    4  A    between atoms: C_3  and  N_23
REMARK    5  A    between atoms: C_5  and  C_7
REMARK    6  A    between atoms: C_5  and  N_13
REMARK    7  A    between atoms: N_13  and  C_14
REMARK    8  A    between atoms: N_13  and  C_16
REMARK    9  A    between atoms: C_14  and  C_15
REMARK   10  A    between atoms: C_16  and  C_17
REMARK   11  A    between atoms: N_19  and  C_20
REMARK   12  A    between atoms: C_20  and  C_21
REMARK   13  A    between atoms: C_20  and  C_22
REMARK                            x       y       z     vdW  Elec       q    Type
REMARK                         _______ _______ _______ _____ _____    ______ ____
ROOT
ATOM      1  C   UNL     1      -0.795  -2.037   0.022  0.00  0.00    -0.045 C 
ENDROOT
BRANCH   1   2
ATOM      2  C   UNL     1       0.334  -2.626   0.829  0.00  0.00    -0.024 A 
ATOM      3  C   UNL     1       0.999  -2.092   1.882  0.00  0.00    +0.024 A 
ATOM      4  C   UNL     1       2.013  -2.822   2.474  0.00  0.00    +0.025 A 
ATOM      5  C   UNL     1       2.312  -4.050   1.983  0.00  0.00    +0.060 A 
ATOM      6  S   UNL     1       1.137  -4.210   0.649  0.00  0.00    -0.102 S 
ATOM      7 BR   UNL     1       2.969  -2.118   3.946  0.00  0.00    -0.050 Br
ENDBRANCH   1   2
BRANCH   1   8
ATOM      8  N   UNL     1      -0.670  -2.462  -1.378  0.00  0.00    +0.389 N 
ATOM      9  H   UNL     1      -1.362  -1.986  -1.937  0.00  0.00    -0.080 HD
BRANCH   8  10
ATOM     10  C   UNL     1      -0.881  -3.913  -1.470  0.00  0.00    -0.081 C 
ATOM     11  C   UNL     1      -2.328  -4.194  -1.880  0.00  0.00    -0.017 C 
ENDBRANCH   8  10
BRANCH   8  12
ATOM     12  C   UNL     1       0.672  -2.131  -1.873  0.00  0.00    +0.019 C 
BRANCH  12  13
ATOM     13  C   UNL     1       0.745  -2.406  -3.353  0.00  0.00    +0.197 C 
ATOM     14  O   UNL     1      -0.227  -2.837  -3.938  0.00  0.00    -0.278 OA
ATOM     15  N   UNL     1       1.889  -2.175  -4.027  0.00  0.00    -0.315 N 
ATOM     16  H   UNL     1       2.666  -1.830  -3.559  0.00  0.00    +0.149 HD
BRANCH  15  17
ATOM     17  C   UNL     1       1.959  -2.442  -5.465  0.00  0.00    +0.067 C 
ATOM     18  C   UNL     1       3.045  -1.568  -6.094  0.00  0.00    +0.027 C 
ATOM     19  C   UNL     1       2.296  -3.917  -5.693  0.00  0.00    +0.027 C 
ENDBRANCH  15  17
ENDBRANCH  12  13
ENDBRANCH   8  12
ENDBRANCH   1   8
BRANCH   1  20
ATOM     20  C   UNL     1      -2.132  -2.523   0.586  0.00  0.00    -0.085 C 
BRANCH  20  21
ATOM     21  N   UNL     1      -2.203  -2.206   2.019  0.00  0.00    +0.379 N 
ATOM     22  H   UNL     1      -2.127  -1.208   2.147  0.00  0.00    -0.090 HD
ATOM     23  H   UNL     1      -3.085  -2.526   2.390  0.00  0.00    -0.090 HD
ATOM     24  H   UNL     1      -1.447  -2.666   2.503  0.00  0.00    -0.090 HD
ENDBRANCH  20  21
BRANCH  20  26
ATOM     25  C   UNL     1      -4.614  -2.404   0.325  0.00  0.00    +0.002 C 
ATOM     26  C   UNL     1      -3.279  -1.825  -0.148  0.00  0.00    -0.021 C 
ENDBRANCH  20  26
ENDBRANCH   1  20
TORSDOF 9
