REMARK  Name = ZINC22804650
REMARK  7 active torsions:
REMARK  status: ('A' for Active; 'I' for Inactive)
REMARK    1  A    between atoms: C_1  and  C_2
REMARK    2  A    between atoms: C_2  and  C_4
REMARK    3  A    between atoms: C_2  and  N_16
REMARK    4  A    between atoms: N_6  and  C_7
REMARK    5  A    between atoms: C_10  and  C_13
REMARK    6  A    between atoms: N_19  and  C_22
REMARK    7  A    between atoms: C_22  and  C_23
REMARK                            x       y       z     vdW  Elec       q    Type
REMARK                         _______ _______ _______ _____ _____    ______ ____
ROOT
ATOM      1  C   UNL     1      -2.809   3.723  -5.866  0.00  0.00    -0.004 C 
ATOM      2  C   UNL     1      -2.541   4.928  -4.962  0.00  0.00    +0.017 C 
ENDROOT
BRANCH   2   3
ATOM      3  N   UNL     1      -2.042   4.463  -3.661  0.00  0.00    +0.389 N 
ATOM      4  C   UNL     1      -3.068   3.686  -2.951  0.00  0.00    -0.062 C 
ATOM      5  C   UNL     1      -2.538   3.289  -1.571  0.00  0.00    +0.066 C 
ATOM      6  N   UNL     1      -1.305   2.506  -1.729  0.00  0.00    -0.301 NA
ATOM      7  C   UNL     1      -0.279   3.283  -2.440  0.00  0.00    +0.066 C 
ATOM      8  C   UNL     1      -0.809   3.680  -3.820  0.00  0.00    -0.062 C 
ATOM      9  H   UNL     1      -1.806   5.349  -3.055  0.00  0.00    -0.081 HD
BRANCH   6  10
ATOM     10  C   UNL     1      -0.805   2.041  -0.428  0.00  0.00    +0.126 C 
BRANCH  10  11
ATOM     11  C   UNL     1       0.307   1.047  -0.643  0.00  0.00    +0.004 A 
ATOM     12  C   UNL     1       1.639   1.269  -0.760  0.00  0.00    +0.012 A 
ATOM     13  C   UNL     1       2.483   0.193  -0.960  0.00  0.00    +0.008 A 
ATOM     14  C   UNL     1       1.954  -1.052  -1.035  0.00  0.00    +0.045 A 
ATOM     15  S   UNL     1       0.212  -0.727  -0.818  0.00  0.00    -0.100 S 
ENDBRANCH  10  11
ENDBRANCH   6  10
ENDBRANCH   2   3
BRANCH   2  16
ATOM     16  C   UNL     1      -1.511   5.819  -5.606  0.00  0.00    +0.203 C 
ATOM     17  O   UNL     1      -0.464   6.045  -5.037  0.00  0.00    -0.277 OA
ATOM     18  N   UNL     1      -1.753   6.366  -6.814  0.00  0.00    -0.287 N 
ATOM     19  H   UNL     1      -2.663   6.093  -7.369  0.00  0.00    +0.155 HD
BRANCH  18  20
ATOM     20  C   UNL     1      -0.850   7.277  -7.361  0.00  0.00    +0.033 A 
ATOM     21  C   UNL     1      -0.148   8.142  -6.528  0.00  0.00    +0.024 A 
ATOM     22  C   UNL     1       0.748   9.040  -7.064  0.00  0.00    +0.015 A 
ATOM     23  C   UNL     1       0.943   9.088  -8.447  0.00  0.00    +0.037 A 
ATOM     24  C   UNL     1       0.232   8.222  -9.281  0.00  0.00    +0.015 A 
ATOM     25  C   UNL     1      -0.659   7.323  -8.738  0.00  0.00    +0.024 A 
BRANCH  23  26
ATOM     26  C   UNL     1       1.899  10.053  -9.026  0.00  0.00    +0.242 C 
ATOM     27  O   UNL     1       2.068  10.094 -10.229  0.00  0.00    -0.270 OA
ATOM     28  N   UNL     1       2.584  10.888  -8.220  0.00  0.00    -0.325 N 
ATOM     29  H   UNL     1       3.297  11.607  -8.652  0.00  0.00    +0.145 HD
ATOM     30  H   UNL     1       2.432  10.851  -7.132  0.00  0.00    +0.145 HD
ENDBRANCH  23  26
ENDBRANCH  18  20
ENDBRANCH   2  16
TORSDOF 6
