REMARK  Name = ZINC37063031
REMARK  4 active torsions:
REMARK  status: ('A' for Active; 'I' for Inactive)
REMARK    1  A    between atoms: C_2  and  N_22
REMARK    2  A    between atoms: C_6  and  S_7
REMARK    3  A    between atoms: S_7  and  N_10
REMARK    4  A    between atoms: N_10  and  C_11
REMARK                            x       y       z     vdW  Elec       q    Type
REMARK                         _______ _______ _______ _____ _____    ______ ____
ROOT
ATOM      1  S   UNL     1      -1.565  -0.958   0.039  0.00  0.00    +0.061 S 
ATOM      2  O   UNL     1      -2.614  -0.007  -0.083  0.00  0.00    -0.153 OA
ATOM      3  O   UNL     1      -0.238  -0.588   0.388  0.00  0.00    -0.153 OA
ENDROOT
BRANCH   1   9
ATOM      4  C   UNL     1      -1.244  -2.498   2.268  0.00  0.00    +0.054 A 
ATOM      5  C   UNL     1      -1.659  -3.427   3.214  0.00  0.00    +0.028 A 
ATOM      6  C   UNL     1      -2.924  -3.991   3.122  0.00  0.00    +0.045 A 
ATOM      7  C   UNL     1      -3.768  -3.628   2.089  0.00  0.00    +0.080 A 
ATOM      8  C   UNL     1      -3.352  -2.700   1.147  0.00  0.00    +0.168 A 
ATOM      9  C   UNL     1      -2.091  -2.137   1.238  0.00  0.00    +0.143 A 
ATOM     10  F   UNL     1      -4.178  -2.346   0.139  0.00  0.00    -0.202 F 
ATOM     11 CL   UNL     1      -5.350  -4.333   1.972  0.00  0.00    -0.080 Cl
BRANCH   5  12
ATOM     12  N   UNL     1      -0.803  -3.794   4.257  0.00  0.00    -0.358 N 
ATOM     13  H   UNL     1       0.081  -3.399   4.321  0.00  0.00    +0.142 HD
ATOM     14  H   UNL     1      -1.093  -4.443   4.917  0.00  0.00    +0.142 HD
ENDBRANCH   5  12
ENDBRANCH   1   9
BRANCH   1  15
ATOM     15  N   UNL     1      -1.470  -1.747  -1.414  0.00  0.00    -0.188 NA
ATOM     16  H   UNL     1      -2.064  -1.500  -2.139  0.00  0.00    +0.148 HD
BRANCH  15  17
ATOM     17  C   UNL     1      -0.488  -2.817  -1.603  0.00  0.00    +0.063 C 
ATOM     18  C   UNL     1      -1.159  -4.174  -1.379  0.00  0.00    -0.058 C 
ATOM     19  N   UNL     1      -1.066  -4.987  -2.594  0.00  0.00    +0.381 N 
ATOM     20  C   UNL     1      -1.761  -4.333  -3.705  0.00  0.00    -0.078 C 
ATOM     21  C   UNL     1      -1.110  -2.981  -4.007  0.00  0.00    -0.014 C 
ATOM     22  C   UNL     1       0.061  -2.764  -3.035  0.00  0.00    +0.002 C 
ATOM     23  C   UNL     1       1.057  -3.918  -3.215  0.00  0.00    -0.014 C 
ATOM     24  C   UNL     1       0.334  -5.241  -2.939  0.00  0.00    -0.078 C 
ATOM     25  H   UNL     1      -1.519  -5.872  -2.421  0.00  0.00    -0.082 HD
ENDBRANCH  15  17
ENDBRANCH   1  15
TORSDOF 4
