REMARK  Name = ZINC67292543
REMARK  5 active torsions:
REMARK  status: ('A' for Active; 'I' for Inactive)
REMARK    1  A    between atoms: C_1  and  C_2
REMARK    2  A    between atoms: C_5  and  N_9
REMARK    3  A    between atoms: C_11  and  C_21
REMARK    4  A    between atoms: N_23  and  C_24
REMARK    5  A    between atoms: C_24  and  C_25
REMARK                            x       y       z     vdW  Elec       q    Type
REMARK                         _______ _______ _______ _____ _____    ______ ____
ROOT
ATOM      1  N   UNL     1       0.062  -4.144  -0.030  0.00  0.00    -0.325 N 
ATOM      2  C   UNL     1       0.880  -4.794   0.769  0.00  0.00    +0.212 A 
ATOM      3  C   UNL     1       0.845  -6.267   0.858  0.00  0.00    +0.097 A 
ATOM      4  C   UNL     1       2.021  -6.906   1.229  0.00  0.00    +0.030 A 
ATOM      5  C   UNL     1       3.188  -6.063   1.498  0.00  0.00    +0.019 A 
ATOM      6  C   UNL     1       4.466  -6.625   1.614  0.00  0.00    +0.026 A 
ATOM      7  C   UNL     1       5.547  -5.810   1.864  0.00  0.00    +0.019 A 
ATOM      8  C   UNL     1       5.377  -4.439   2.001  0.00  0.00    +0.019 A 
ATOM      9  C   UNL     1       4.123  -3.872   1.891  0.00  0.00    +0.048 A 
ATOM     10  C   UNL     1       3.019  -4.673   1.640  0.00  0.00    +0.137 A 
ATOM     11  O   UNL     1       1.785  -4.131   1.532  0.00  0.00    -0.439 OA
ATOM     12 BR   UNL     1       7.275  -6.563   2.023  0.00  0.00    -0.050 Br
ATOM     13  H   UNL     1      -0.518  -4.634  -0.633  0.00  0.00    +0.169 HD
ENDROOT
BRANCH   1  18
ATOM     14  C   UNL     1      -0.073   1.499   0.049  0.00  0.00    +0.045 C 
ATOM     15  C   UNL     1      -0.037  -0.007   0.028  0.00  0.00    -0.032 A 
ATOM     16  C   UNL     1      -0.016  -0.679  -1.181  0.00  0.00    +0.007 A 
ATOM     17  C   UNL     1       0.017  -2.058  -1.208  0.00  0.00    +0.026 A 
ATOM     18  C   UNL     1       0.029  -2.777  -0.010  0.00  0.00    +0.043 A 
ATOM     19  C   UNL     1       0.008  -2.093   1.207  0.00  0.00    +0.046 A 
ATOM     20  C   UNL     1      -0.020  -0.713   1.220  0.00  0.00    +0.046 A 
ATOM     21 CL   UNL     1      -0.040   0.140   2.732  0.00  0.00    -0.083 Cl
ENDBRANCH   1  18
BRANCH   3  22
ATOM     22  C   UNL     1      -0.383  -7.026   0.565  0.00  0.00    +0.249 C 
ATOM     23  O   UNL     1      -1.373  -6.448   0.158  0.00  0.00    -0.270 OA
ATOM     24  N   UNL     1      -0.409  -8.361   0.748  0.00  0.00    -0.309 N 
ATOM     25  H   UNL     1       0.354  -8.812   1.142  0.00  0.00    +0.149 HD
BRANCH  24  26
ATOM     26  C   UNL     1      -1.591  -9.131   0.352  0.00  0.00    +0.136 C 
BRANCH  26  27
ATOM     27  C   UNL     1      -1.364 -10.611   0.665  0.00  0.00    +0.135 C 
ATOM     28  C   UNL     1      -2.589 -11.450   0.222  0.00  0.00    +0.035 C 
ATOM     29  C   UNL     1      -1.934 -12.842   0.014  0.00  0.00    +0.031 C 
ATOM     30  C   UNL     1      -0.529 -12.469  -0.506  0.00  0.00    +0.160 C 
ATOM     31  O   UNL     1      -0.261 -11.120  -0.102  0.00  0.00    -0.375 OA
ENDBRANCH  26  27
ENDBRANCH  24  26
ENDBRANCH   3  22
TORSDOF 4
