REMARK  Name = ZINC54025591
REMARK  10 active torsions:
REMARK  status: ('A' for Active; 'I' for Inactive)
REMARK    1  A    between atoms: C_1  and  N_2
REMARK    2  A    between atoms: N_2  and  C_3
REMARK    3  A    between atoms: N_2  and  C_4
REMARK    4  A    between atoms: C_4  and  C_6
REMARK    5  A    between atoms: C_4  and  C_22
REMARK    6  A    between atoms: C_6  and  N_7
REMARK    7  A    between atoms: N_10  and  C_11
REMARK    8  A    between atoms: C_11  and  C_12
REMARK    9  A    between atoms: C_15  and  S_18
REMARK   10  A    between atoms: S_18  and  N_21
REMARK                            x       y       z     vdW  Elec       q    Type
REMARK                         _______ _______ _______ _____ _____    ______ ____
ROOT
ATOM      1  N   UNL     1       0.044  -2.014   1.012  0.00  0.00    -0.301 N 
ATOM      2  C   UNL     1       0.458  -3.278   1.232  0.00  0.00    +0.300 C 
ATOM      3  O   UNL     1       0.107  -4.171   0.484  0.00  0.00    -0.253 OA
ATOM      4  N   UNL     1       1.260  -3.553   2.279  0.00  0.00    -0.295 N 
ATOM      5  H   UNL     1       0.325  -1.302   1.609  0.00  0.00    +0.150 HD
ATOM      6  H   UNL     1       1.540  -2.841   2.875  0.00  0.00    +0.151 HD
ENDROOT
BRANCH   1   7
ATOM      7  C   UNL     1      -0.828  -1.716  -0.126  0.00  0.00    +0.095 C 
BRANCH   7   8
ATOM      8  C   UNL     1      -1.251  -0.247  -0.073  0.00  0.00    -0.014 C 
BRANCH   8   9
ATOM      9  C   UNL     1      -2.103  -0.013   1.148  0.00  0.00    -0.022 A 
ATOM     10  C   UNL     1      -1.753   0.526   2.342  0.00  0.00    +0.009 A 
ATOM     11  C   UNL     1      -2.712   0.645   3.330  0.00  0.00    +0.008 A 
ATOM     12  C   UNL     1      -3.974   0.219   3.076  0.00  0.00    +0.045 A 
ATOM     13  S   UNL     1      -3.835  -0.366   1.395  0.00  0.00    -0.103 S 
ENDBRANCH   8   9
BRANCH   8  15
ATOM     14  C   UNL     1      -2.489   1.475  -1.195  0.00  0.00    -0.096 C 
ATOM     15  N   UNL     1      -2.022   0.085  -1.279  0.00  0.00    +0.382 N 
ATOM     16  C   UNL     1      -1.170  -0.075  -2.465  0.00  0.00    -0.096 C 
ATOM     17  H   UNL     1      -2.817  -0.533  -1.350  0.00  0.00    -0.082 HD
ENDBRANCH   8  15
ENDBRANCH   7   8
ENDBRANCH   1   7
BRANCH   4  18
ATOM     18  C   UNL     1       1.710  -4.927   2.518  0.00  0.00    +0.141 C 
BRANCH  18  19
ATOM     19  C   UNL     1       2.589  -4.963   3.741  0.00  0.00    -0.030 A 
ATOM     20  C   UNL     1       3.953  -4.778   3.617  0.00  0.00    +0.007 A 
ATOM     21  C   UNL     1       4.760  -4.811   4.739  0.00  0.00    +0.029 A 
ATOM     22  C   UNL     1       4.202  -5.028   5.985  0.00  0.00    +0.105 A 
ATOM     23  C   UNL     1       2.837  -5.212   6.109  0.00  0.00    +0.029 A 
ATOM     24  C   UNL     1       2.030  -5.175   4.987  0.00  0.00    +0.007 A 
BRANCH  22  25
ATOM     25  S   UNL     1       5.230  -5.071   7.415  0.00  0.00    +0.056 S 
ATOM     26  O   UNL     1       4.534  -5.832   8.393  0.00  0.00    -0.153 OA
ATOM     27  O   UNL     1       6.534  -5.416   6.968  0.00  0.00    -0.153 OA
BRANCH  25  28
ATOM     28  N   UNL     1       5.323  -3.524   7.998  0.00  0.00    -0.204 NA
ATOM     29  H   UNL     1       5.445  -3.370   8.948  0.00  0.00    +0.144 HD
ATOM     30  H   UNL     1       5.256  -2.772   7.390  0.00  0.00    +0.144 HD
ENDBRANCH  25  28
ENDBRANCH  22  25
ENDBRANCH  18  19
ENDBRANCH   4  18
TORSDOF 8
