REMARK  Name = ZINC20372763
REMARK  4 active torsions:
REMARK  status: ('A' for Active; 'I' for Inactive)
REMARK    1  A    between atoms: C_1  and  C_2
REMARK    2  A    between atoms: C_5  and  N_9
REMARK    3  A    between atoms: N_9  and  S_10
REMARK    4  A    between atoms: S_10  and  N_13
REMARK                            x       y       z     vdW  Elec       q    Type
REMARK                         _______ _______ _______ _____ _____    ______ ____
ROOT
ATOM      1  S   UNL     1       0.025   1.333   0.070  0.00  0.00    +0.112 S 
ATOM      2  O   UNL     1       0.063  -0.084   0.166  0.00  0.00    -0.138 OA
ATOM      3  O   UNL     1       1.205   2.126   0.038  0.00  0.00    -0.138 OA
ENDROOT
BRANCH   1   4
ATOM      4  N   UNL     1      -0.823   1.692  -1.306  0.00  0.00    -0.167 NA
ATOM      5  C   UNL     1      -1.784   0.733  -1.872  0.00  0.00    +0.092 C 
ATOM      6  C   UNL     1      -1.473   0.542  -3.355  0.00  0.00    -0.065 C 
ATOM      7  N   UNL     1      -1.437   1.852  -4.019  0.00  0.00    +0.381 N 
ATOM      8  C   UNL     1      -0.361   2.694  -3.480  0.00  0.00    -0.065 C 
ATOM      9  C   UNL     1      -0.631   2.975  -1.998  0.00  0.00    +0.092 C 
ATOM     10  H   UNL     1      -1.266   1.712  -5.097  0.00  0.00    -0.086 HD
ATOM     11  H   UNL     1      -2.396   2.368  -3.865  0.00  0.00    -0.086 HD
ENDBRANCH   1   4
BRANCH   1  12
ATOM     12  N   UNL     1      -0.872   1.871   1.353  0.00  0.00    -0.204 N 
ATOM     13  H   UNL     1      -0.456   2.624   2.038  0.00  0.00    +0.175 HD
BRANCH  12  18
ATOM     14  C   UNL     1      -6.094  -0.173   2.217  0.00  0.00    +0.044 C 
ATOM     15  C   UNL     1      -4.707   0.371   1.988  0.00  0.00    -0.048 A 
ATOM     16  C   UNL     1      -3.715  -0.456   1.494  0.00  0.00    +0.005 A 
ATOM     17  C   UNL     1      -2.443   0.039   1.282  0.00  0.00    +0.027 A 
ATOM     18  C   UNL     1      -2.159   1.368   1.566  0.00  0.00    +0.084 A 
ATOM     19  C   UNL     1      -3.157   2.196   2.069  0.00  0.00    +0.146 A 
ATOM     20  C   UNL     1      -4.430   1.696   2.273  0.00  0.00    +0.043 A 
ATOM     21  F   UNL     1      -2.885   3.488   2.353  0.00  0.00    -0.203 F 
ENDBRANCH  12  18
ENDBRANCH   1  12
TORSDOF 3
