REMARK  Name = ZINC39855941
REMARK  8 active torsions:
REMARK  status: ('A' for Active; 'I' for Inactive)
REMARK    1  A    between atoms: C_1  and  C_2
REMARK    2  A    between atoms: C_2  and  N_3
REMARK    3  A    between atoms: C_14  and  N_16
REMARK    4  A    between atoms: C_17  and  C_19
REMARK    5  A    between atoms: C_20  and  C_35
REMARK    6  A    between atoms: C_25  and  C_33
REMARK    7  A    between atoms: C_25  and  C_34
REMARK    8  A    between atoms: N_28  and  N_29
REMARK                            x       y       z     vdW  Elec       q    Type
REMARK                         _______ _______ _______ _____ _____    ______ ____
ROOT
ATOM      1  C   UNL     1       8.366  -1.696  -1.935  0.00  0.00    +0.193 A 
ATOM      2  C   UNL     1       9.472  -1.527  -1.150  0.00  0.00    +0.009 A 
ATOM      3  C   UNL     1      10.574  -1.858  -1.948  0.00  0.00    +0.043 A 
ATOM      4  C   UNL     1      10.094  -2.212  -3.187  0.00  0.00    +0.116 A 
ATOM      5  O   UNL     1       8.767  -2.116  -3.157  0.00  0.00    -0.454 OA
ATOM      6  C   UNL     1      10.991  -2.629  -4.325  0.00  0.00    +0.081 C 
ATOM      7  C   UNL     1      12.409  -2.111  -4.071  0.00  0.00    -0.023 C 
ATOM      8  C   UNL     1      12.900  -2.539  -2.684  0.00  0.00    +0.064 C 
ATOM      9  C   UNL     1      12.021  -1.867  -1.640  0.00  0.00    +0.073 C 
ATOM     10  N   UNL     1      12.505  -1.340  -0.558  0.00  0.00    -0.175 NA
ATOM     11  C   UNL     1      13.351  -2.677  -5.136  0.00  0.00    +0.011 C 
ATOM     12  C   UNL     1      12.411  -0.584  -4.158  0.00  0.00    +0.011 C 
ATOM     13  C   UNL     1       9.500  -1.076   0.288  0.00  0.00    +0.048 C 
ENDROOT
BRANCH  10  14
ATOM     14  N   UNL     1      13.885  -1.378  -0.317  0.00  0.00    -0.248 N 
ATOM     15  C   UNL     1      14.396  -0.822   0.825  0.00  0.00    +0.187 C 
ATOM     16  N   UNL     1      15.708  -0.858   1.054  0.00  0.00    -0.370 N 
ATOM     17  N   UNL     1      13.581  -0.245   1.708  0.00  0.00    -0.370 N 
ATOM     18  H   UNL     1      14.478  -1.798  -0.959  0.00  0.00    +0.192 HD
ATOM     19  H   UNL     1      16.302  -1.278   0.412  0.00  0.00    +0.159 HD
ATOM     20  H   UNL     1      12.626  -0.219   1.541  0.00  0.00    +0.159 HD
ATOM     21  H   UNL     1      13.943   0.148   2.517  0.00  0.00    +0.159 HD
ATOM     22  H   UNL     1      16.070  -0.464   1.863  0.00  0.00    +0.159 HD
ENDBRANCH  10  14
BRANCH   1  24
ATOM     23  N   UNL     1       5.971  -1.677  -2.393  0.00  0.00    -0.279 N 
ATOM     24  C   UNL     1       6.978  -1.468  -1.521  0.00  0.00    +0.284 C 
ATOM     25  O   UNL     1       6.735  -1.088  -0.390  0.00  0.00    -0.266 OA
ATOM     26  H   UNL     1       6.157  -2.051  -3.268  0.00  0.00    +0.155 HD
BRANCH  23  38
ATOM     27  N   UNL     1       0.855  -0.203  -0.836  0.00  0.00    -0.340 N 
ATOM     28  C   UNL     1       1.120   0.891  -0.032  0.00  0.00    +0.050 A 
ATOM     29  C   UNL     1       0.292   1.745   0.691  0.00  0.00    +0.026 A 
ATOM     30  C   UNL     1       0.837   2.778   1.423  0.00  0.00    +0.002 A 
ATOM     31  C   UNL     1       2.208   2.977   1.449  0.00  0.00    +0.001 A 
ATOM     32  C   UNL     1       3.045   2.142   0.741  0.00  0.00    +0.010 A 
ATOM     33  C   UNL     1       2.508   1.094  -0.004  0.00  0.00    +0.008 A 
ATOM     34  C   UNL     1       3.102   0.045  -0.853  0.00  0.00    +0.009 A 
ATOM     35  C   UNL     1       2.036  -0.729  -1.335  0.00  0.00    +0.050 A 
ATOM     36  C   UNL     1       2.299  -1.810  -2.170  0.00  0.00    +0.028 A 
ATOM     37  C   UNL     1       3.597  -2.118  -2.515  0.00  0.00    +0.025 A 
ATOM     38  C   UNL     1       4.656  -1.353  -2.034  0.00  0.00    +0.034 A 
ATOM     39  C   UNL     1       4.411  -0.269  -1.210  0.00  0.00    +0.034 A 
BRANCH  27  41
ATOM     40  C   UNL     1      -0.845  -1.781  -0.061  0.00  0.00    +0.027 C 
ATOM     41  C   UNL     1      -0.482  -0.733  -1.115  0.00  0.00    +0.119 C 
ENDBRANCH  27  41
ENDBRANCH  23  38
ENDBRANCH   1  24
TORSDOF 4
