REMARK  Name = ZINC15946798
REMARK  13 active torsions:
REMARK  status: ('A' for Active; 'I' for Inactive)
REMARK    1  A    between atoms: C_1  and  C_2
REMARK    2  A    between atoms: C_2  and  C_3
REMARK    3  A    between atoms: C_8  and  N_9
REMARK    4  A    between atoms: C_10  and  C_12
REMARK    5  A    between atoms: C_16  and  N_17
REMARK    6  A    between atoms: C_18  and  C_20
REMARK    7  A    between atoms: C_20  and  N_79
REMARK    8  A    between atoms: C_25  and  C_27
REMARK    9  A    between atoms: C_27  and  C_28
REMARK   10  A    between atoms: C_30  and  C_34
REMARK   11  A    between atoms: C_34  and  C_35
REMARK   12  A    between atoms: C_34  and  C_36
REMARK   13  A    between atoms: C_34  and  C_37
REMARK                            x       y       z     vdW  Elec       q    Type
REMARK                         _______ _______ _______ _____ _____    ______ ____
ROOT
ATOM      1  C   UNL     1      -0.578  -1.961   3.393  0.00  0.00    +0.069 A 
ATOM      2  C   UNL     1       0.252  -2.704   2.461  0.00  0.00    -0.023 A 
ATOM      3  C   UNL     1       1.300  -3.352   3.014  0.00  0.00    -0.004 A 
ATOM      4  S   UNL     1       1.196  -2.988   4.743  0.00  0.00    -0.077 S 
ATOM      5  C   UNL     1      -0.216  -1.984   4.733  0.00  0.00    +0.084 A 
ATOM      6  C   UNL     1       2.320  -4.190   2.305  0.00  0.00    +0.046 C 
ATOM      7  C   UNL     1       2.219  -3.904   0.800  0.00  0.00    -0.000 C 
ATOM      8  C   UNL     1       0.747  -3.969   0.383  0.00  0.00    +0.009 C 
ATOM      9  C   UNL     1      -0.011  -2.773   0.961  0.00  0.00    +0.037 C 
ENDROOT
BRANCH   1  11
ATOM     10  N   UNL     1      -1.622   0.080   2.566  0.00  0.00    -0.281 N 
ATOM     11  C   UNL     1      -1.751  -1.210   2.936  0.00  0.00    +0.251 C 
ATOM     12  O   UNL     1      -2.840  -1.750   2.889  0.00  0.00    -0.270 OA
ATOM     13  H   UNL     1      -0.744   0.491   2.537  0.00  0.00    +0.155 HD
BRANCH  10  19
ATOM     14  C   UNL     1      -2.816   2.179   2.532  0.00  0.00    -0.026 A 
ATOM     15  C   UNL     1      -3.934   2.914   2.188  0.00  0.00    +0.005 A 
ATOM     16  C   UNL     1      -4.994   2.302   1.544  0.00  0.00    +0.000 A 
ATOM     17  C   UNL     1      -4.939   0.954   1.243  0.00  0.00    +0.002 A 
ATOM     18  C   UNL     1      -3.825   0.213   1.584  0.00  0.00    +0.023 A 
ATOM     19  C   UNL     1      -2.755   0.826   2.225  0.00  0.00    +0.037 A 
BRANCH  14  21
ATOM     20  C   UNL     1      -0.615   3.271   2.201  0.00  0.00    +0.009 C 
ATOM     21  C   UNL     1      -1.661   2.846   3.233  0.00  0.00    +0.033 C 
ENDBRANCH  14  21
ENDBRANCH  10  19
ENDBRANCH   1  11
BRANCH   5  22
ATOM     22  N   UNL     1      -0.835  -1.358   5.804  0.00  0.00    -0.281 N 
ATOM     23  C   UNL     1      -0.334  -1.496   7.047  0.00  0.00    +0.201 C 
ATOM     24  O   UNL     1       0.658  -2.169   7.230  0.00  0.00    -0.278 OA
ATOM     25  H   UNL     1      -1.629  -0.820   5.658  0.00  0.00    +0.155 HD
BRANCH  23  26
ATOM     26  C   UNL     1      -1.007  -0.816   8.211  0.00  0.00    +0.019 C 
BRANCH  26  32
ATOM     27  C   UNL     1       1.086  -0.569   9.402  0.00  0.00    -0.078 C 
ATOM     28  C   UNL     1       1.768  -0.777  10.756  0.00  0.00    -0.019 C 
ATOM     29  C   UNL     1       1.814  -2.274  11.074  0.00  0.00    -0.003 C 
ATOM     30  C   UNL     1       0.389  -2.833  11.067  0.00  0.00    -0.015 C 
ATOM     31  C   UNL     1      -0.253  -2.566   9.704  0.00  0.00    -0.068 C 
ATOM     32  N   UNL     1      -0.290  -1.106   9.469  0.00  0.00    +0.387 N 
ATOM     33  H   UNL     1      -0.785  -0.656  10.248  0.00  0.00    -0.081 HD
BRANCH  31  34
ATOM     34  C   UNL     1      -1.685  -3.105   9.700  0.00  0.00    -0.019 C 
ATOM     35  C   UNL     1      -1.659  -4.623   9.886  0.00  0.00    +0.002 C 
ENDBRANCH  31  34
ENDBRANCH  26  32
ENDBRANCH  23  26
ENDBRANCH   5  22
BRANCH   7  36
ATOM     36  C   UNL     1       3.019  -4.952   0.024  0.00  0.00    -0.035 C 
ATOM     37  C   UNL     1       2.454  -6.344   0.316  0.00  0.00    +0.011 C 
ATOM     38  C   UNL     1       2.917  -4.665  -1.475  0.00  0.00    +0.011 C 
ATOM     39  C   UNL     1       4.486  -4.897   0.456  0.00  0.00    +0.011 C 
ENDBRANCH   7  36
TORSDOF 8
