REMARK  Name = ZINC35842828
REMARK  4 active torsions:
REMARK  status: ('A' for Active; 'I' for Inactive)
REMARK    1  A    between atoms: C_3  and  C_33
REMARK    2  A    between atoms: C_5  and  N_7
REMARK    3  A    between atoms: N_10  and  C_11
REMARK    4  A    between atoms: C_24  and  C_26
REMARK                            x       y       z     vdW  Elec       q    Type
REMARK                         _______ _______ _______ _____ _____    ______ ____
ROOT
ATOM      1  C   UNL     1      -1.109  -3.998   1.490  0.00  0.00    +0.051 A 
ATOM      2  C   UNL     1      -2.396  -3.525   1.241  0.00  0.00    +0.028 A 
ATOM      3  C   UNL     1      -3.408  -4.445   1.038  0.00  0.00    +0.043 A 
ATOM      4  C   UNL     1      -3.110  -5.803   1.089  0.00  0.00    +0.099 A 
ATOM      5  N   UNL     1      -1.875  -6.216   1.329  0.00  0.00    -0.348 N 
ATOM      6  C   UNL     1      -0.885  -5.365   1.522  0.00  0.00    +0.107 A 
ATOM      7  N   UNL     1      -4.121  -6.738   0.887  0.00  0.00    -0.315 N 
ATOM      8  C   UNL     1      -3.809  -8.161   1.092  0.00  0.00    +0.108 C 
ATOM      9  C   UNL     1      -4.913  -8.901   1.852  0.00  0.00    +0.038 C 
ATOM     10  C   UNL     1      -5.441  -8.043   2.983  0.00  0.00    +0.109 C 
ATOM     11  N   UNL     1      -6.497  -7.185   2.445  0.00  0.00    -0.296 N 
ATOM     12  C   UNL     1      -6.270  -5.962   1.758  0.00  0.00    +0.127 C 
ATOM     13  C   UNL     1      -5.434  -6.260   0.490  0.00  0.00    +0.125 C 
ATOM     14  C   UNL     1      -7.774  -7.584   2.611  0.00  0.00    +0.247 C 
ATOM     15  O   UNL     1      -8.677  -6.967   2.079  0.00  0.00    -0.270 OA
ATOM     16  H   UNL     1      -1.693  -7.168   1.359  0.00  0.00    +0.167 HD
ENDROOT
BRANCH  14  17
ATOM     17  C   UNL     1      -8.077  -8.770   3.438  0.00  0.00    +0.037 A 
ATOM     18  C   UNL     1      -9.179  -8.764   4.295  0.00  0.00    +0.014 A 
ATOM     19  C   UNL     1      -9.456  -9.874   5.064  0.00  0.00    +0.021 A 
ATOM     20  C   UNL     1      -8.644 -10.994   4.988  0.00  0.00    +0.041 A 
ATOM     21  C   UNL     1      -7.550 -11.006   4.139  0.00  0.00    +0.021 A 
ATOM     22  C   UNL     1      -7.265  -9.903   3.361  0.00  0.00    +0.014 A 
ATOM     23 CL   UNL     1      -8.999 -12.387   5.960  0.00  0.00    -0.084 Cl
ENDBRANCH  14  17
BRANCH   1  27
ATOM     24  N   UNL     1       0.699  -0.973   2.300  0.00  0.00    -0.269 N 
ATOM     25  C   UNL     1      -0.300  -1.872   2.197  0.00  0.00    +0.308 C 
ATOM     26  O   UNL     1      -1.424  -1.575   2.551  0.00  0.00    -0.252 OA
ATOM     27  N   UNL     1      -0.052  -3.100   1.701  0.00  0.00    -0.268 N 
ATOM     28  H   UNL     1       1.579  -1.183   1.948  0.00  0.00    +0.156 HD
ATOM     29  H   UNL     1       0.857  -3.364   1.490  0.00  0.00    +0.156 HD
BRANCH  24  34
ATOM     30  C   UNL     1       0.998   2.587   3.169  0.00  0.00    +0.002 A 
ATOM     31  C   UNL     1       0.010   2.706   4.130  0.00  0.00    +0.012 A 
ATOM     32  C   UNL     1      -0.749   1.606   4.485  0.00  0.00    +0.057 A 
ATOM     33  C   UNL     1      -0.523   0.385   3.880  0.00  0.00    +0.035 A 
ATOM     34  C   UNL     1       0.467   0.263   2.914  0.00  0.00    +0.035 A 
ATOM     35  C   UNL     1       1.228   1.370   2.560  0.00  0.00    +0.023 A 
BRANCH  32  36
ATOM     36  C   UNL     1      -1.823   1.740   5.533  0.00  0.00    +0.417 C 
ATOM     37  F   UNL     1      -1.862   3.059   5.995  0.00  0.00    -0.166 F 
ATOM     38  F   UNL     1      -3.062   1.404   4.976  0.00  0.00    -0.166 F 
ATOM     39  F   UNL     1      -1.543   0.880   6.600  0.00  0.00    -0.166 F 
ENDBRANCH  32  36
ENDBRANCH  24  34
ENDBRANCH   1  27
TORSDOF 4
