REMARK  Name = ZINC63552631
REMARK  12 active torsions:
REMARK  status: ('A' for Active; 'I' for Inactive)
REMARK    1  A    between atoms: C_1  and  C_2
REMARK    2  A    between atoms: C_2  and  C_3
REMARK    3  A    between atoms: C_2  and  C_4
REMARK    4  A    between atoms: C_4  and  C_5
REMARK    5  A    between atoms: C_5  and  N_6
REMARK    6  A    between atoms: C_11  and  C_21
REMARK    7  A    between atoms: C_21  and  C_22
REMARK    8  A    between atoms: C_22  and  C_23
REMARK    9  A    between atoms: C_23  and  C_24
REMARK   10  A    between atoms: N_26  and  C_27
REMARK   11  A    between atoms: C_27  and  C_28
REMARK   12  A    between atoms: C_28  and  C_29
REMARK                            x       y       z     vdW  Elec       q    Type
REMARK                         _______ _______ _______ _____ _____    ______ ____
ROOT
ATOM      1  N   UNL     1      -2.790  -2.565  -0.111  0.00  0.00    -0.265 N 
ATOM      2  C   UNL     1      -3.418  -2.919   1.157  0.00  0.00    +0.253 C 
ATOM      3  N   UNL     1      -2.921  -2.120   2.288  0.00  0.00    -0.219 NA
ATOM      4  N   UNL     1      -4.019  -1.208   2.647  0.00  0.00    -0.234 NA
ATOM      5  C   UNL     1      -5.247  -1.993   2.320  0.00  0.00    +0.158 C 
ATOM      6  N   UNL     1      -4.870  -2.645   1.090  0.00  0.00    -0.280 N 
ATOM      7  C   UNL     1      -5.605  -2.943  -0.056  0.00  0.00    +0.053 A 
ATOM      8  C   UNL     1      -6.935  -3.228  -0.243  0.00  0.00    +0.031 A 
ATOM      9  C   UNL     1      -7.394  -3.484  -1.494  0.00  0.00    +0.048 A 
ATOM     10  S   UNL     1      -6.033  -3.351  -2.478  0.00  0.00    -0.090 S 
ATOM     11  C   UNL     1      -4.839  -2.956  -1.245  0.00  0.00    +0.095 A 
ATOM     12  C   UNL     1      -3.468  -2.695  -1.284  0.00  0.00    +0.257 C 
ATOM     13  O   UNL     1      -2.888  -2.589  -2.350  0.00  0.00    -0.269 OA
ATOM     14  H   UNL     1      -2.672  -2.712   3.067  0.00  0.00    +0.144 HD
ATOM     15  H   UNL     1      -3.990  -0.976   3.629  0.00  0.00    +0.143 HD
ENDROOT
BRANCH   1  16
ATOM     16  C   UNL     1      -1.416  -2.058  -0.121  0.00  0.00    +0.111 C 
BRANCH  16  17
ATOM     17  C   UNL     1      -1.433  -0.534   0.013  0.00  0.00    +0.022 C 
BRANCH  17  19
ATOM     18  C   UNL     1      -0.019   1.526   0.010  0.00  0.00    +0.007 C 
ATOM     19  C   UNL     1       0.002  -0.004   0.002  0.00  0.00    -0.016 C 
ATOM     20  C   UNL     1       0.742  -0.511   1.242  0.00  0.00    +0.007 C 
ENDBRANCH  17  19
ENDBRANCH  16  17
ENDBRANCH   1  16
BRANCH   5  21
ATOM     21  C   UNL     1      -6.442  -1.064   2.098  0.00  0.00    +0.040 C 
BRANCH  21  22
ATOM     22  C   UNL     1      -6.723  -0.279   3.380  0.00  0.00    +0.012 C 
BRANCH  22  23
ATOM     23  C   UNL     1      -7.918   0.650   3.158  0.00  0.00    +0.096 C 
BRANCH  23  24
ATOM     24  C   UNL     1      -8.194   1.424   4.421  0.00  0.00    +0.213 C 
ATOM     25  O   UNL     1      -7.503   1.250   5.402  0.00  0.00    -0.276 OA
ATOM     26  N   UNL     1      -9.209   2.310   4.460  0.00  0.00    -0.315 N 
ATOM     27  H   UNL     1      -9.761   2.450   3.675  0.00  0.00    +0.149 HD
BRANCH  26  28
ATOM     28  C   UNL     1      -9.478   3.063   5.688  0.00  0.00    +0.108 C 
BRANCH  28  29
ATOM     29  C   UNL     1     -10.673   3.992   5.466  0.00  0.00    +0.052 C 
BRANCH  29  30
ATOM     30  C   UNL     1     -10.950   4.766   6.729  0.00  0.00    -0.040 C 
ATOM     31  C   UNL     1     -10.508   6.007   7.035  0.00  0.00    -0.001 A 
ATOM     32  C   UNL     1      -9.671   6.971   6.312  0.00  0.00    +0.010 A 
ATOM     33  C   UNL     1      -9.393   8.162   6.889  0.00  0.00    +0.001 A 
ATOM     34  C   UNL     1      -9.884   8.498   8.159  0.00  0.00    +0.002 A 
ATOM     35  C   UNL     1     -10.660   7.665   8.884  0.00  0.00    +0.026 A 
ATOM     36  C   UNL     1     -11.015   6.386   8.373  0.00  0.00    +0.043 A 
ATOM     37  N   UNL     1     -11.741   5.416   8.875  0.00  0.00    -0.380 N 
ATOM     38  C   UNL     1     -11.782   4.314   7.908  0.00  0.00    +0.144 C 
ATOM     39  H   UNL     1     -12.180   5.427   9.740  0.00  0.00    +0.160 HD
ENDBRANCH  29  30
ENDBRANCH  28  29
ENDBRANCH  26  28
ENDBRANCH  23  24
ENDBRANCH  22  23
ENDBRANCH  21  22
ENDBRANCH   5  21
TORSDOF 10
