REMARK  Name = ZINC39227920
REMARK  7 active torsions:
REMARK  status: ('A' for Active; 'I' for Inactive)
REMARK    1  A    between atoms: C_1  and  O_2
REMARK    2  A    between atoms: O_2  and  C_3
REMARK    3  A    between atoms: C_6  and  O_40
REMARK    4  A    between atoms: C_7  and  N_9
REMARK    5  A    between atoms: C_10  and  C_12
REMARK    6  A    between atoms: C_14  and  O_39
REMARK    7  A    between atoms: O_40  and  C_41
REMARK                            x       y       z     vdW  Elec       q    Type
REMARK                         _______ _______ _______ _____ _____    ______ ____
ROOT
ATOM      1  C   UNL     1       0.714  -6.269   1.408  0.00  0.00    +0.107 C 
ATOM      2  C   UNL     1       0.042  -6.663   2.727  0.00  0.00    +0.127 C 
ATOM      3  C   UNL     1       0.003  -8.187   2.851  0.00  0.00    +0.032 C 
ATOM      4  C   UNL     1      -0.777  -8.782   1.676  0.00  0.00    +0.004 C 
ATOM      5  C   UNL     1      -0.091  -8.389   0.368  0.00  0.00    -0.024 C 
ATOM      6  C   UNL     1      -0.079  -6.863   0.244  0.00  0.00    +0.004 C 
ATOM      7  C   UNL     1       0.564  -6.469  -1.088  0.00  0.00    -0.005 C 
ATOM      8  C   UNL     1      -0.213  -7.139  -2.224  0.00  0.00    -0.020 C 
ATOM      9  C   UNL     1       0.396  -6.771  -3.554  0.00  0.00    +0.006 A 
ATOM     10  H   UNL     1       0.840  -4.741  -3.409  0.00  0.00    +0.166 HD
ATOM     11  C   UNL     1       0.564  -7.669  -4.553  0.00  0.00    -0.022 A 
ATOM     12  C   UNL     1       1.169  -6.966  -5.661  0.00  0.00    +0.003 A 
ATOM     13  C   UNL     1       1.568  -7.369  -6.939  0.00  0.00    +0.010 A 
ATOM     14  C   UNL     1       2.119  -6.407  -7.750  0.00  0.00    +0.001 A 
ATOM     15  C   UNL     1       2.280  -5.096  -7.333  0.00  0.00    +0.002 A 
ATOM     16  C   UNL     1       1.894  -4.670  -6.074  0.00  0.00    +0.026 A 
ATOM     17  C   UNL     1       1.331  -5.623  -5.229  0.00  0.00    +0.047 A 
ATOM     18  N   UNL     1       0.853  -5.545  -3.952  0.00  0.00    -0.359 N 
ATOM     19  C   UNL     1       0.161  -9.118  -4.441  0.00  0.00    +0.019 C 
ATOM     20  C   UNL     1      -0.760  -9.263  -3.221  0.00  0.00    -0.073 C 
ATOM     21  N   UNL     1      -0.153  -8.598  -2.064  0.00  0.00    +0.386 N 
ATOM     22  C   UNL     1      -0.842  -8.984  -0.824  0.00  0.00    -0.074 C 
ATOM     23  H   UNL     1       0.813  -8.880  -1.997  0.00  0.00    -0.081 HD
ENDROOT
BRANCH   1  25
ATOM     24  N   UNL     1       1.385  -4.027   2.210  0.00  0.00    -0.282 N 
ATOM     25  C   UNL     1       0.741  -4.767   1.286  0.00  0.00    +0.223 C 
ATOM     26  O   UNL     1       0.182  -4.225   0.356  0.00  0.00    -0.275 OA
ATOM     27  H   UNL     1       1.899  -4.463   2.908  0.00  0.00    +0.155 HD
BRANCH  24  32
ATOM     28  C   UNL     1       0.170  -0.625   1.497  0.00  0.00    +0.122 A 
ATOM     29  C   UNL     1       1.176   0.139   2.068  0.00  0.00    +0.049 A 
ATOM     30  C   UNL     1       2.249  -0.476   2.685  0.00  0.00    +0.051 A 
ATOM     31  C   UNL     1       2.322  -1.859   2.735  0.00  0.00    +0.141 A 
ATOM     32  C   UNL     1       1.313  -2.629   2.162  0.00  0.00    +0.079 A 
ATOM     33  C   UNL     1       0.235  -2.009   1.548  0.00  0.00    +0.072 A 
BRANCH  28  35
ATOM     34  C   UNL     1      -0.888   1.412   0.875  0.00  0.00    +0.277 C 
ATOM     35  O   UNL     1      -0.885  -0.017   0.891  0.00  0.00    -0.495 OA
ENDBRANCH  28  35
BRANCH  31  36
ATOM     36  O   UNL     1       3.379  -2.463   3.342  0.00  0.00    -0.493 OA
ATOM     37  C   UNL     1       4.377  -1.611   3.908  0.00  0.00    +0.277 C 
ENDBRANCH  31  36
ENDBRANCH  24  32
ENDBRANCH   1  25
BRANCH   2  38
ATOM     38  O   UNL     1      -1.292  -6.151   2.753  0.00  0.00    -0.391 OA
ATOM     39  H   UNL     1      -1.779  -6.362   3.561  0.00  0.00    +0.210 HD
ENDBRANCH   2  38
TORSDOF 5
