REMARK  Name = ZINC13227017
REMARK  9 active torsions:
REMARK  status: ('A' for Active; 'I' for Inactive)
REMARK    1  A    between atoms: C_1  and  C_2
REMARK    2  A    between atoms: C_5  and  C_8
REMARK    3  A    between atoms: C_8  and  O_28
REMARK    4  A    between atoms: C_17  and  C_18
REMARK    5  A    between atoms: C_17  and  N_56
REMARK    6  A    between atoms: C_21  and  O_24
REMARK    7  A    between atoms: O_24  and  C_25
REMARK    8  A    between atoms: C_25  and  C_26
REMARK    9  A    between atoms: C_26  and  O_27
REMARK                            x       y       z     vdW  Elec       q    Type
REMARK                         _______ _______ _______ _____ _____    ______ ____
ROOT
ATOM      1  C   UNL     1       3.711  -0.707  -0.038  0.00  0.00    +0.088 C 
ATOM      2  C   UNL     1       4.725   0.081  -0.872  0.00  0.00    +0.024 C 
ATOM      3  C   UNL     1       5.029   1.409  -0.160  0.00  0.00    -0.065 C 
ATOM      4  C   UNL     1       3.681   2.047   0.246  0.00  0.00    -0.017 C 
ATOM      5  C   UNL     1       3.374   1.468   1.643  0.00  0.00    -0.017 C 
ATOM      6  C   UNL     1       4.565   0.532   1.954  0.00  0.00    -0.065 C 
ATOM      7  C   UNL     1       4.228  -0.859   1.396  0.00  0.00    +0.024 C 
ATOM      8  N   UNL     1       5.644   1.067   1.117  0.00  0.00    +0.386 N 
ATOM      9  H   UNL     1       6.371   0.355   0.980  0.00  0.00    -0.081 HD
ENDROOT
BRANCH   1  14
ATOM     10  C   UNL     1      -1.334   2.109   0.023  0.00  0.00    +0.044 C 
ATOM     11  C   UNL     1      -0.017   1.379   0.009  0.00  0.00    -0.050 A 
ATOM     12  C   UNL     1       0.825   1.491  -1.082  0.00  0.00    +0.004 A 
ATOM     13  C   UNL     1       2.030   0.815  -1.097  0.00  0.00    +0.007 A 
ATOM     14  C   UNL     1       2.396   0.029  -0.021  0.00  0.00    -0.016 A 
ATOM     15  C   UNL     1       1.555  -0.084   1.070  0.00  0.00    +0.007 A 
ATOM     16  C   UNL     1       0.349   0.591   1.085  0.00  0.00    +0.004 A 
ENDBRANCH   1  14
BRANCH   1  17
ATOM     17  O   UNL     1       3.525  -2.001  -0.615  0.00  0.00    -0.384 OA
ATOM     18  H   UNL     1       2.893  -2.557  -0.139  0.00  0.00    +0.211 HD
ENDBRANCH   1  17
BRANCH   8  19
ATOM     19  C   UNL     1       6.255   2.276   1.758  0.00  0.00    -0.042 C 
BRANCH  19  20
ATOM     20  C   UNL     1       6.686   1.954   3.166  0.00  0.00    -0.064 A 
ATOM     21  C   UNL     1       5.800   2.121   4.214  0.00  0.00    +0.005 A 
ATOM     22  C   UNL     1       6.190   1.821   5.505  0.00  0.00    +0.046 A 
ATOM     23  C   UNL     1       7.476   1.361   5.750  0.00  0.00    +0.121 A 
ATOM     24  C   UNL     1       8.365   1.199   4.697  0.00  0.00    +0.046 A 
ATOM     25  C   UNL     1       7.968   1.496   3.408  0.00  0.00    +0.005 A 
BRANCH  23  26
ATOM     26  O   UNL     1       7.864   1.070   7.019  0.00  0.00    -0.490 OA
BRANCH  26  27
ATOM     27  C   UNL     1       6.896   1.260   8.053  0.00  0.00    +0.256 C 
BRANCH  27  28
ATOM     28  C   UNL     1       7.511   0.883   9.403  0.00  0.00    +0.196 C 
BRANCH  28  29
ATOM     29  O   UNL     1       8.575   1.785   9.710  0.00  0.00    -0.392 OA
ATOM     30  H   UNL     1       9.012   1.605  10.554  0.00  0.00    +0.210 HD
ENDBRANCH  28  29
ENDBRANCH  27  28
ENDBRANCH  26  27
ENDBRANCH  23  26
ENDBRANCH  19  20
ENDBRANCH   8  19
TORSDOF 8
