REMARK  Name = ZINC12878176
REMARK  11 active torsions:
REMARK  status: ('A' for Active; 'I' for Inactive)
REMARK    1  A    between atoms: C_1  and  C_2
REMARK    2  A    between atoms: N_6  and  O_7
REMARK    3  A    between atoms: O_7  and  C_8
REMARK    4  A    between atoms: C_8  and  C_9
REMARK    5  A    between atoms: N_11  and  C_12
REMARK    6  A    between atoms: C_12  and  C_13
REMARK    7  A    between atoms: C_13  and  C_14
REMARK    8  A    between atoms: C_17  and  O_20
REMARK    9  A    between atoms: C_31  and  C_39
REMARK   10  A    between atoms: C_36  and  C_37
REMARK   11  A    between atoms: C_36  and  O_38
REMARK                            x       y       z     vdW  Elec       q    Type
REMARK                         _______ _______ _______ _____ _____    ______ ____
ROOT
ATOM      1  C   UNL     1       0.489   3.646   1.768  0.00  0.00    +0.016 C 
ATOM      2  C   UNL     1      -0.851   3.103   1.266  0.00  0.00    -0.007 C 
ATOM      3  C   UNL     1      -0.748   1.589   1.250  0.00  0.00    +0.017 C 
ATOM      4  C   UNL     1      -0.013   1.086   0.008  0.00  0.00    +0.059 C 
ATOM      5  C   UNL     1      -0.766   1.598  -1.204  0.00  0.00    +0.080 C 
ATOM      6  N   UNL     1      -1.099   0.815  -2.181  0.00  0.00    -0.089 NA
ATOM      7  C   UNL     1      -1.097   3.034  -1.213  0.00  0.00    +0.026 C 
ATOM      8  C   UNL     1      -1.126   3.715  -0.073  0.00  0.00    -0.062 C 
ATOM      9  C   UNL     1      -1.433   5.200  -0.144  0.00  0.00    +0.031 C 
ATOM     10  C   UNL     1      -2.514   5.529   0.887  0.00  0.00    +0.008 C 
ATOM     11  C   UNL     1      -2.053   5.058   2.270  0.00  0.00    -0.003 C 
ATOM     12  C   UNL     1      -1.936   3.526   2.264  0.00  0.00    +0.002 C 
ATOM     13  C   UNL     1      -1.588   2.979   3.645  0.00  0.00    +0.005 C 
ATOM     14  C   UNL     1      -2.574   3.471   4.717  0.00  0.00    +0.010 C 
ATOM     15  C   UNL     1      -2.540   4.987   4.692  0.00  0.00    -0.000 C 
ATOM     16  C   UNL     1      -3.091   5.434   3.311  0.00  0.00    +0.001 C 
ATOM     17  C   UNL     1      -3.298   6.937   3.532  0.00  0.00    +0.007 C 
ATOM     18  C   UNL     1      -3.903   6.998   4.961  0.00  0.00    +0.035 C 
ATOM     19  C   UNL     1      -3.453   5.704   5.682  0.00  0.00    +0.069 C 
ATOM     20  C   UNL     1      -4.665   4.831   6.013  0.00  0.00    +0.042 C 
ATOM     21  C   UNL     1      -1.101   5.477   4.864  0.00  0.00    +0.014 C 
ENDROOT
BRANCH  19  22
ATOM     22  O   UNL     1      -2.733   6.026   6.874  0.00  0.00    -0.388 OA
ATOM     23  H   UNL     1      -3.263   6.483   7.541  0.00  0.00    +0.210 HD
ENDBRANCH  19  22
BRANCH   6  24
ATOM     24  O   UNL     1      -0.761  -0.559  -2.134  0.00  0.00    -0.384 OA
BRANCH  24  25
ATOM     25  C   UNL     1      -1.191  -1.303  -3.276  0.00  0.00    +0.358 C 
BRANCH  25  26
ATOM     26  C   UNL     1      -0.780  -2.744  -3.121  0.00  0.00    +0.253 C 
ATOM     27  O   UNL     1      -0.179  -3.100  -2.130  0.00  0.00    -0.272 OA
ATOM     28  N   UNL     1      -1.081  -3.638  -4.083  0.00  0.00    -0.312 N 
ATOM     29  H   UNL     1      -1.562  -3.354  -4.876  0.00  0.00    +0.149 HD
BRANCH  28  30
ATOM     30  C   UNL     1      -0.682  -5.040  -3.932  0.00  0.00    +0.109 C 
BRANCH  30  31
ATOM     31  C   UNL     1      -1.142  -5.836  -5.155  0.00  0.00    +0.054 C 
BRANCH  31  32
ATOM     32  C   UNL     1      -0.731  -7.277  -5.000  0.00  0.00    -0.046 A 
ATOM     33  C   UNL     1       0.495  -7.702  -5.479  0.00  0.00    +0.007 A 
ATOM     34  C   UNL     1       0.876  -9.021  -5.333  0.00  0.00    +0.045 A 
ATOM     35  C   UNL     1       0.023  -9.924  -4.714  0.00  0.00    +0.117 A 
ATOM     36  C   UNL     1      -1.208  -9.497  -4.239  0.00  0.00    +0.045 A 
ATOM     37  C   UNL     1      -1.583  -8.175  -4.383  0.00  0.00    +0.007 A 
BRANCH  35  38
ATOM     38  O   UNL     1       0.394 -11.224  -4.573  0.00  0.00    -0.507 OA
ATOM     39  H   UNL     1       0.134 -11.789  -5.314  0.00  0.00    +0.292 HD
ENDBRANCH  35  38
ENDBRANCH  31  32
ENDBRANCH  30  31
ENDBRANCH  28  30
ENDBRANCH  25  26
ENDBRANCH  24  25
ENDBRANCH   6  24
TORSDOF 8
