REMARK  Name = ZINC34759843
REMARK  9 active torsions:
REMARK  status: ('A' for Active; 'I' for Inactive)
REMARK    1  A    between atoms: C_1  and  C_2
REMARK    2  A    between atoms: C_5  and  C_35
REMARK    3  A    between atoms: C_6  and  C_8
REMARK    4  A    between atoms: C_8  and  N_9
REMARK    5  A    between atoms: C_17  and  C_34
REMARK    6  A    between atoms: C_18  and  C_33
REMARK    7  A    between atoms: C_22  and  S_24
REMARK    8  A    between atoms: S_24  and  C_25
REMARK    9  A    between atoms: C_25  and  C_26
REMARK                            x       y       z     vdW  Elec       q    Type
REMARK                         _______ _______ _______ _____ _____    ______ ____
ROOT
ATOM      1  N   UNL     1       2.649  -2.643   1.423  0.00  0.00    +0.384 N 
ATOM      2  C   UNL     1       4.096  -2.423   1.307  0.00  0.00    -0.059 C 
ATOM      3  C   UNL     1       4.797  -2.973   2.554  0.00  0.00    +0.088 C 
ATOM      4  N   UNL     1       4.409  -4.382   2.723  0.00  0.00    -0.318 N 
ATOM      5  C   UNL     1       2.976  -4.715   2.687  0.00  0.00    +0.088 C 
ATOM      6  C   UNL     1       2.362  -4.082   1.434  0.00  0.00    -0.059 C 
ATOM      7  C   UNL     1       5.363  -5.365   2.909  0.00  0.00    +0.134 A 
ATOM      8  C   UNL     1       5.694  -5.806   4.221  0.00  0.00    +0.051 A 
ATOM      9  C   UNL     1       5.167  -5.374   5.505  0.00  0.00    -0.028 A 
ATOM     10  C   UNL     1       5.635  -5.938   6.628  0.00  0.00    -0.008 A 
ATOM     11  S   UNL     1       6.838  -7.112   6.035  0.00  0.00    -0.073 S 
ATOM     12  C   UNL     1       6.681  -6.812   4.294  0.00  0.00    +0.115 A 
ATOM     13  N   UNL     1       7.248  -7.301   3.208  0.00  0.00    -0.214 NA
ATOM     14  C   UNL     1       6.900  -6.851   2.010  0.00  0.00    +0.191 A 
ATOM     15  N   UNL     1       5.973  -5.910   1.871  0.00  0.00    -0.206 NA
ATOM     16  C   UNL     1       5.237  -5.649   8.053  0.00  0.00    +0.052 C 
ATOM     17  C   UNL     1       4.108  -4.304   5.574  0.00  0.00    +0.045 C 
ATOM     18  H   UNL     1       2.316  -2.228   2.280  0.00  0.00    -0.081 HD
ENDROOT
BRANCH   1  19
ATOM     19  C   UNL     1       1.968  -2.018   0.282  0.00  0.00    -0.043 C 
BRANCH  19  25
ATOM     20  C   UNL     1       4.300   2.151  -1.211  0.00  0.00    +0.044 C 
ATOM     21  C   UNL     1       3.256   1.472  -0.362  0.00  0.00    -0.050 A 
ATOM     22  C   UNL     1       2.455   2.221   0.480  0.00  0.00    +0.003 A 
ATOM     23  C   UNL     1       1.498   1.599   1.259  0.00  0.00    +0.004 A 
ATOM     24  C   UNL     1       1.340   0.227   1.194  0.00  0.00    -0.049 A 
ATOM     25  C   UNL     1       2.139  -0.522   0.351  0.00  0.00    -0.061 A 
ATOM     26  C   UNL     1       3.094   0.101  -0.430  0.00  0.00    +0.005 A 
ATOM     27  C   UNL     1       0.297  -0.452   2.044  0.00  0.00    +0.044 C 
ENDBRANCH  19  25
ENDBRANCH   1  19
BRANCH  14  28
ATOM     28  S   UNL     1       7.674  -7.522   0.576  0.00  0.00    -0.077 S 
BRANCH  28  29
ATOM     29  C   UNL     1       8.833  -8.751   1.237  0.00  0.00    +0.173 C 
BRANCH  29  30
ATOM     30  C   UNL     1       9.571  -9.408   0.099  0.00  0.00    +0.226 C 
ATOM     31  O   UNL     1       9.338  -9.080  -1.045  0.00  0.00    -0.275 OA
ATOM     32  N   UNL     1      10.490 -10.361   0.353  0.00  0.00    -0.301 N 
ATOM     33  C   UNL     1      10.864 -10.856   1.685  0.00  0.00    +0.108 C 
ATOM     34  C   UNL     1      11.967 -11.918   1.486  0.00  0.00    +0.020 C 
ATOM     35  C   UNL     1      12.551 -11.555   0.096  0.00  0.00    +0.020 C 
ATOM     36  C   UNL     1      11.281 -11.082  -0.660  0.00  0.00    +0.108 C 
ENDBRANCH  29  30
ENDBRANCH  28  29
ENDBRANCH  14  28
TORSDOF 5
