REMARK  Name = ZINC35778579
REMARK  12 active torsions:
REMARK  status: ('A' for Active; 'I' for Inactive)
REMARK    1  A    between atoms: C_1  and  C_2
REMARK    2  A    between atoms: C_6  and  O_8
REMARK    3  A    between atoms: O_8  and  C_9
REMARK    4  A    between atoms: C_9  and  C_10
REMARK    5  A    between atoms: C_20  and  C_22
REMARK    6  A    between atoms: C_22  and  N_23
REMARK    7  A    between atoms: N_23  and  C_24
REMARK    8  A    between atoms: N_23  and  C_27
REMARK    9  A    between atoms: C_24  and  C_25
REMARK   10  A    between atoms: C_27  and  C_28
REMARK   11  A    between atoms: C_28  and  C_30
REMARK   12  A    between atoms: C_28  and  O_36
REMARK                            x       y       z     vdW  Elec       q    Type
REMARK                         _______ _______ _______ _____ _____    ______ ____
ROOT
ATOM      1  C   UNL     1       0.843  -6.082   5.768  0.00  0.00    +0.144 C 
ATOM      2  C   UNL     1       1.732  -5.594   6.911  0.00  0.00    -0.014 A 
ATOM      3  C   UNL     1       2.909  -6.238   7.291  0.00  0.00    +0.013 A 
ATOM      4  C   UNL     1       3.650  -5.747   8.311  0.00  0.00    +0.046 A 
ATOM      5  S   UNL     1       2.700  -4.315   8.800  0.00  0.00    -0.101 S 
ATOM      6  C   UNL     1       1.391  -4.481   7.614  0.00  0.00    -0.004 A 
ATOM      7  C   UNL     1       0.191  -3.609   7.428  0.00  0.00    +0.061 C 
ATOM      8  C   UNL     1      -0.425  -3.907   6.053  0.00  0.00    +0.113 C 
ATOM      9  N   UNL     1      -0.436  -5.365   5.856  0.00  0.00    -0.292 N 
ATOM     10  C   UNL     1      -1.602  -6.035   5.760  0.00  0.00    +0.200 C 
ATOM     11  O   UNL     1      -1.600  -7.237   5.599  0.00  0.00    -0.278 OA
ENDROOT
BRANCH   1  12
ATOM     12  C   UNL     1       1.514  -5.782   4.426  0.00  0.00    +0.256 C 
BRANCH  12  13
ATOM     13  O   UNL     1       1.839  -4.392   4.356  0.00  0.00    -0.490 OA
BRANCH  13  19
ATOM     14  C   UNL     1       3.776  -0.726   1.781  0.00  0.00    +0.044 C 
ATOM     15  C   UNL     1       3.403  -2.178   1.929  0.00  0.00    -0.047 A 
ATOM     16  C   UNL     1       3.677  -3.069   0.908  0.00  0.00    +0.003 A 
ATOM     17  C   UNL     1       3.336  -4.402   1.040  0.00  0.00    +0.004 A 
ATOM     18  C   UNL     1       2.720  -4.848   2.194  0.00  0.00    +0.045 A 
ATOM     19  C   UNL     1       2.444  -3.956   3.220  0.00  0.00    +0.121 A 
ATOM     20  C   UNL     1       2.793  -2.620   3.087  0.00  0.00    +0.049 A 
ENDBRANCH  13  19
ENDBRANCH  12  13
ENDBRANCH   1  12
BRANCH  10  21
ATOM     21  C   UNL     1      -2.909  -5.289   5.852  0.00  0.00    +0.019 C 
BRANCH  21  22
ATOM     22  N   UNL     1      -4.019  -6.211   5.575  0.00  0.00    +0.390 N 
ATOM     23  H   UNL     1      -3.944  -7.018   6.176  0.00  0.00    -0.081 HD
BRANCH  22  24
ATOM     24  C   UNL     1      -3.961  -6.639   4.170  0.00  0.00    -0.051 C 
BRANCH  24  25
ATOM     25  C   UNL     1      -4.177  -5.447   3.273  0.00  0.00    -0.053 C 
ATOM     26  C   UNL     1      -3.290  -5.149   2.356  0.00  0.00    +0.002 C 
ENDBRANCH  24  25
ENDBRANCH  22  24
BRANCH  22  27
ATOM     27  C   UNL     1      -5.295  -5.529   5.827  0.00  0.00    -0.041 C 
BRANCH  27  28
ATOM     28  C   UNL     1      -6.442  -6.535   5.707  0.00  0.00    +0.128 C 
BRANCH  28  29
ATOM     29  C   UNL     1      -7.730  -5.882   6.140  0.00  0.00    -0.021 A 
ATOM     30  C   UNL     1      -8.468  -5.141   5.236  0.00  0.00    +0.006 A 
ATOM     31  C   UNL     1      -9.649  -4.543   5.634  0.00  0.00    +0.000 A 
ATOM     32  C   UNL     1     -10.092  -4.685   6.936  0.00  0.00    +0.000 A 
ATOM     33  C   UNL     1      -9.354  -5.427   7.840  0.00  0.00    +0.000 A 
ATOM     34  C   UNL     1      -8.175  -6.029   7.441  0.00  0.00    +0.006 A 
ENDBRANCH  28  29
BRANCH  28  35
ATOM     35  O   UNL     1      -6.560  -6.964   4.349  0.00  0.00    -0.389 OA
ATOM     36  H   UNL     1      -6.741  -6.248   3.724  0.00  0.00    +0.210 HD
ENDBRANCH  28  35
ENDBRANCH  27  28
ENDBRANCH  22  27
ENDBRANCH  21  22
ENDBRANCH  10  21
TORSDOF 11
