REMARK  Name = ZINC03324748
REMARK  12 active torsions:
REMARK  status: ('A' for Active; 'I' for Inactive)
REMARK    1  A    between atoms: C_1  and  C_2
REMARK    2  A    between atoms: C_2  and  C_3
REMARK    3  A    between atoms: C_3  and  C_4
REMARK    4  A    between atoms: C_4  and  N_5
REMARK    5  A    between atoms: N_5  and  C_6
REMARK    6  A    between atoms: C_7  and  N_19
REMARK    7  A    between atoms: N_8  and  C_15
REMARK    8  A    between atoms: C_15  and  C_16
REMARK    9  A    between atoms: C_16  and  C_17
REMARK   10  A    between atoms: C_16  and  C_18
REMARK   11  A    between atoms: C_20  and  C_22
REMARK   12  A    between atoms: C_22  and  N_64
REMARK                            x       y       z     vdW  Elec       q    Type
REMARK                         _______ _______ _______ _____ _____    ______ ____
ROOT
ATOM      1  N   UNL     1      -2.346   5.716  -3.084  0.00  0.00    -0.266 N 
ATOM      2  C   UNL     1      -1.722   5.140  -2.035  0.00  0.00    +0.203 C 
ATOM      3  O   UNL     1      -1.627   5.736  -0.983  0.00  0.00    -0.277 OA
ENDROOT
BRANCH   1   4
ATOM      4  C   UNL     1      -2.801   7.048  -2.988  0.00  0.00    +0.140 A 
ATOM      5  C   UNL     1      -3.837   7.377  -2.138  0.00  0.00    +0.127 A 
ATOM      6  N   UNL     1      -4.255   8.685  -2.063  0.00  0.00    -0.280 N 
ATOM      7  C   UNL     1      -3.667   9.632  -2.817  0.00  0.00    +0.331 A 
ATOM      8  O   UNL     1      -4.054  10.782  -2.739  0.00  0.00    -0.246 OA
ATOM      9  N   UNL     1      -2.660   9.329  -3.655  0.00  0.00    -0.273 N 
ATOM     10  H   UNL     1      -2.240  10.052  -4.205  0.00  0.00    +0.173 HD
ATOM     11  C   UNL     1      -2.209   8.064  -3.762  0.00  0.00    +0.277 A 
ATOM     12  O   UNL     1      -1.295   7.801  -4.525  0.00  0.00    -0.266 OA
BRANCH   5  13
ATOM     13  N   UNL     1      -4.442   6.409  -1.372  0.00  0.00    -0.343 N 
ATOM     14  H   UNL     1      -4.116   5.496  -1.399  0.00  0.00    +0.144 HD
ATOM     15  H   UNL     1      -5.194   6.639  -0.805  0.00  0.00    +0.144 HD
ENDBRANCH   5  13
BRANCH   6  16
ATOM     16  C   UNL     1      -5.350   9.049  -1.161  0.00  0.00    +0.131 C 
BRANCH  16  17
ATOM     17  C   UNL     1      -6.683   8.926  -1.901  0.00  0.00    +0.003 C 
ATOM     18  C   UNL     1      -6.930   7.461  -2.267  0.00  0.00    +0.009 C 
ATOM     19  C   UNL     1      -7.815   9.424  -1.001  0.00  0.00    +0.009 C 
ENDBRANCH  16  17
ENDBRANCH   6  16
ENDBRANCH   1   4
BRANCH   1  20
ATOM     20  C   UNL     1      -2.552   4.959  -4.321  0.00  0.00    +0.114 C 
BRANCH  20  21
ATOM     21  C   UNL     1      -3.939   4.313  -4.298  0.00  0.00    +0.019 C 
BRANCH  21  23
ATOM     22  C   UNL     1      -5.540   2.876  -5.568  0.00  0.00    +0.004 C 
ATOM     23  C   UNL     1      -4.154   3.522  -5.590  0.00  0.00    -0.002 C 
ENDBRANCH  21  23
ENDBRANCH  20  21
ENDBRANCH   1  20
BRANCH   2  24
ATOM     24  C   UNL     1      -1.141   3.756  -2.172  0.00  0.00    +0.020 C 
BRANCH  24  34
ATOM     25  C   UNL     1       0.634   4.182  -0.579  0.00  0.00    -0.073 C 
ATOM     26  C   UNL     1       0.993   3.974   0.893  0.00  0.00    +0.017 C 
ATOM     27  C   UNL     1       1.087   2.501   1.194  0.00  0.00    -0.048 A 
ATOM     28  C   UNL     1       1.737   2.103   2.353  0.00  0.00    +0.004 A 
ATOM     29  C   UNL     1       1.843   0.763   2.668  0.00  0.00    +0.000 A 
ATOM     30  C   UNL     1       1.299  -0.187   1.824  0.00  0.00    +0.000 A 
ATOM     31  C   UNL     1       0.653   0.208   0.675  0.00  0.00    +0.002 A 
ATOM     32  C   UNL     1       0.547   1.553   0.353  0.00  0.00    -0.061 A 
ATOM     33  C   UNL     1      -0.161   1.933  -0.921  0.00  0.00    -0.042 C 
ATOM     34  N   UNL     1      -0.550   3.352  -0.876  0.00  0.00    +0.388 N 
ATOM     35  H   UNL     1      -1.248   3.486  -0.135  0.00  0.00    -0.081 HD
ENDBRANCH  24  34
ENDBRANCH   2  24
TORSDOF 9
