REMARK  Name = ZINC12618278
REMARK  6 active torsions:
REMARK  status: ('A' for Active; 'I' for Inactive)
REMARK    1  A    between atoms: C_1  and  C_2
REMARK    2  A    between atoms: C_6  and  C_8
REMARK    3  A    between atoms: N_13  and  C_14
REMARK    4  A    between atoms: C_14  and  C_15
REMARK    5  A    between atoms: N_20  and  C_23
REMARK    6  A    between atoms: C_23  and  C_24
REMARK                            x       y       z     vdW  Elec       q    Type
REMARK                         _______ _______ _______ _____ _____    ______ ____
ROOT
ATOM      1  C   UNL     1       2.003  -5.371   1.387  0.00  0.00    +0.236 C 
ATOM      2  O   UNL     1       2.775  -4.753   2.089  0.00  0.00    -0.274 OA
ATOM      3  N   UNL     1       2.474  -6.232   0.464  0.00  0.00    -0.298 N 
ATOM      4  C   UNL     1       1.556  -6.987  -0.402  0.00  0.00    +0.123 C 
ATOM      5  C   UNL     1       1.930  -8.472  -0.332  0.00  0.00    +0.104 C 
ATOM      6  N   UNL     1       3.356  -8.629  -0.651  0.00  0.00    -0.294 NA
ATOM      7  C   UNL     1       4.202  -7.948   0.338  0.00  0.00    +0.104 C 
ATOM      8  C   UNL     1       3.920  -6.438   0.291  0.00  0.00    +0.123 C 
ENDROOT
BRANCH   1   9
ATOM      9  C   UNL     1       0.517  -5.176   1.547  0.00  0.00    +0.221 C 
BRANCH   9  15
ATOM     10  C   UNL     1       0.109  -2.837   2.463  0.00  0.00    +0.165 A 
ATOM     11  N   UNL     1      -0.104  -2.345   3.661  0.00  0.00    -0.128 NA
ATOM     12  N   UNL     1      -0.086  -3.289   4.533  0.00  0.00    -0.121 NA
ATOM     13  C   UNL     1       0.138  -4.442   3.945  0.00  0.00    +0.203 A 
ATOM     14  S   UNL     1       0.247  -6.014   4.733  0.00  0.00    -0.009 SA
ATOM     15  N   UNL     1       0.265  -4.197   2.607  0.00  0.00    -0.293 N 
BRANCH  10  21
ATOM     16  C   UNL     1      -0.974   1.271  -0.155  0.00  0.00    +0.044 C 
ATOM     17  C   UNL     1      -0.355  -0.101  -0.067  0.00  0.00    -0.050 A 
ATOM     18  C   UNL     1       0.267  -0.649  -1.174  0.00  0.00    +0.003 A 
ATOM     19  C   UNL     1       0.838  -1.908  -1.102  0.00  0.00    +0.001 A 
ATOM     20  C   UNL     1       0.790  -2.624   0.076  0.00  0.00    +0.011 A 
ATOM     21  C   UNL     1       0.164  -2.076   1.197  0.00  0.00    +0.020 A 
ATOM     22  C   UNL     1      -0.405  -0.804   1.119  0.00  0.00    +0.015 A 
ENDBRANCH  10  21
ENDBRANCH   9  15
ENDBRANCH   1   9
BRANCH   6  23
ATOM     23  C   UNL     1       3.716 -10.049  -0.764  0.00  0.00    +0.138 C 
BRANCH  23  24
ATOM     24  C   UNL     1       5.108 -10.170  -1.327  0.00  0.00    +0.037 A 
ATOM     25  C   UNL     1       6.127 -10.708  -0.570  0.00  0.00    +0.093 A 
ATOM     26  C   UNL     1       7.410 -10.813  -1.110  0.00  0.00    +0.259 A 
ATOM     27  O   UNL     1       8.316 -11.288  -0.444  0.00  0.00    -0.267 OA
ATOM     28  N   UNL     1       7.650 -10.383  -2.384  0.00  0.00    -0.264 N 
ATOM     29  C   UNL     1       8.851 -10.420  -3.051  0.00  0.00    +0.104 A 
ATOM     30  C   UNL     1       8.959  -9.967  -4.300  0.00  0.00    +0.067 A 
ATOM     31  S   UNL     1       7.290  -9.431  -4.640  0.00  0.00    -0.059 S 
ATOM     32  C   UNL     1       6.582  -9.863  -3.065  0.00  0.00    +0.158 A 
ATOM     33  N   UNL     1       5.375  -9.766  -2.567  0.00  0.00    -0.338 N 
ATOM     34  H   UNL     1       4.664  -9.390  -3.109  0.00  0.00    +0.168 HD
ENDBRANCH  23  24
ENDBRANCH   6  23
TORSDOF 5
