REMARK  Name = ZINC39981115
REMARK  5 active torsions:
REMARK  status: ('A' for Active; 'I' for Inactive)
REMARK    1  A    between atoms: C_3  and  N_8
REMARK    2  A    between atoms: C_5  and  O_7
REMARK    3  A    between atoms: C_9  and  C_11
REMARK    4  A    between atoms: C_11  and  S_12
REMARK    5  A    between atoms: S_12  and  C_13
REMARK                            x       y       z     vdW  Elec       q    Type
REMARK                         _______ _______ _______ _____ _____    ______ ____
ROOT
ATOM      1  C   UNL     1       6.088   6.764  -0.482  0.00  0.00    +0.208 C 
ATOM      2  N   UNL     1       7.141   5.981  -0.487  0.00  0.00    -0.227 NA
ATOM      3  C   UNL     1       8.449   6.603  -0.680  0.00  0.00    +0.252 C 
ATOM      4  C   UNL     1       8.335   8.019  -0.134  0.00  0.00    +0.117 C 
ATOM      5  C   UNL     1       9.414   8.184   0.680  0.00  0.00    +0.026 A 
ATOM      6  C   UNL     1       9.913   9.309   1.382  0.00  0.00    +0.032 A 
ATOM      7  C   UNL     1      11.032   9.130   2.137  0.00  0.00    +0.042 A 
ATOM      8  C   UNL     1      11.712   7.913   2.260  0.00  0.00    +0.022 A 
ATOM      9  C   UNL     1      11.327   6.773   1.628  0.00  0.00    +0.027 A 
ATOM     10  C   UNL     1      10.127   6.873   0.780  0.00  0.00    +0.046 A 
ATOM     11  N   UNL     1       9.540   5.974   0.051  0.00  0.00    -0.358 N 
ATOM     12 CL   UNL     1      11.655  10.501   3.002  0.00  0.00    -0.084 Cl
ATOM     13  N   UNL     1       7.256   8.769  -0.374  0.00  0.00    -0.147 NA
ATOM     14  N   UNL     1       6.153   8.114  -0.582  0.00  0.00    -0.122 NA
ATOM     15  H   UNL     1       9.788   5.038   0.000  0.00  0.00    +0.162 HD
ENDROOT
BRANCH   1  16
ATOM     16  S   UNL     1       4.498   6.017  -0.346  0.00  0.00    -0.075 S 
BRANCH  16  17
ATOM     17  C   UNL     1       4.856   4.241  -0.238  0.00  0.00    +0.173 C 
BRANCH  17  19
ATOM     18  N   UNL     1       3.583   2.131  -0.021  0.00  0.00    -0.285 N 
ATOM     19  C   UNL     1       3.563   3.475  -0.116  0.00  0.00    +0.227 C 
ATOM     20  O   UNL     1       2.506   4.069  -0.103  0.00  0.00    -0.275 OA
ATOM     21  H   UNL     1       4.430   1.662   0.045  0.00  0.00    +0.155 HD
BRANCH  18  24
ATOM     22  C   UNL     1       0.113   1.158  -0.755  0.00  0.00    +0.005 A 
ATOM     23  C   UNL     1       1.298   1.868  -0.757  0.00  0.00    +0.023 A 
ATOM     24  C   UNL     1       2.383   1.412  -0.019  0.00  0.00    +0.037 A 
ATOM     25  C   UNL     1       2.275   0.242   0.720  0.00  0.00    +0.068 A 
ATOM     26  C   UNL     1       1.085  -0.467   0.720  0.00  0.00    +0.119 A 
ATOM     27  C   UNL     1       0.004  -0.007  -0.019  0.00  0.00    +0.045 A 
BRANCH  26  28
ATOM     28  O   UNL     1       0.976  -1.613   1.442  0.00  0.00    -0.507 OA
ATOM     29  H   UNL     1       0.666  -1.479   2.349  0.00  0.00    +0.292 HD
ENDBRANCH  26  28
ENDBRANCH  18  24
ENDBRANCH  17  19
ENDBRANCH  16  17
ENDBRANCH   1  16
TORSDOF 5
