REMARK  Name = ZINC63098051
REMARK  9 active torsions:
REMARK  status: ('A' for Active; 'I' for Inactive)
REMARK    1  A    between atoms: C_1  and  C_2
REMARK    2  A    between atoms: C_2  and  C_4
REMARK    3  A    between atoms: C_2  and  N_14
REMARK    4  A    between atoms: N_6  and  C_7
REMARK    5  A    between atoms: C_7  and  C_8
REMARK    6  A    between atoms: N_14  and  C_15
REMARK    7  A    between atoms: C_15  and  C_16
REMARK    8  A    between atoms: C_16  and  C_18
REMARK    9  A    between atoms: C_16  and  C_24
REMARK                            x       y       z     vdW  Elec       q    Type
REMARK                         _______ _______ _______ _____ _____    ______ ____
ROOT
ATOM      1  C   UNL     1      -2.006  -0.231  -1.268  0.00  0.00    -0.073 C 
ENDROOT
BRANCH   1   2
ATOM      2  N   UNL     1      -1.388  -0.522   0.032  0.00  0.00    +0.387 N 
ATOM      3  H   UNL     1      -1.459  -1.510   0.225  0.00  0.00    -0.085 HD
ATOM      4  H   UNL     1      -1.864  -0.004   0.755  0.00  0.00    -0.085 HD
BRANCH   2   6
ATOM      5  C   UNL     1       0.133   1.387  -0.168  0.00  0.00    -0.004 C 
ATOM      6  C   UNL     1       0.028  -0.131   0.000  0.00  0.00    +0.013 C 
BRANCH   6   7
ATOM      7  C   UNL     1       0.692  -0.541   1.289  0.00  0.00    +0.199 C 
ATOM      8  O   UNL     1       0.050  -1.104   2.150  0.00  0.00    -0.278 OA
ATOM      9  N   UNL     1       2.000  -0.282   1.485  0.00  0.00    -0.313 N 
ATOM     10  H   UNL     1       2.514   0.169   0.796  0.00  0.00    +0.149 HD
BRANCH   9  11
ATOM     11  C   UNL     1       2.646  -0.681   2.738  0.00  0.00    +0.139 C 
BRANCH  11  12
ATOM     12  C   UNL     1       4.098  -0.279   2.704  0.00  0.00    -0.030 A 
ATOM     13  C   UNL     1       5.046  -1.151   2.202  0.00  0.00    +0.005 A 
ATOM     14  C   UNL     1       6.378  -0.782   2.171  0.00  0.00    +0.000 A 
ATOM     15  C   UNL     1       6.762   0.459   2.643  0.00  0.00    +0.000 A 
ATOM     16  C   UNL     1       5.815   1.331   3.145  0.00  0.00    +0.000 A 
ATOM     17  C   UNL     1       4.482   0.964   3.172  0.00  0.00    +0.005 A 
ENDBRANCH  11  12
ENDBRANCH   9  11
ENDBRANCH   6   7
ENDBRANCH   2   6
ENDBRANCH   1   2
BRANCH   1  18
ATOM     18  C   UNL     1      -3.442  -0.760  -1.279  0.00  0.00    +0.014 C 
BRANCH  18  19
ATOM     19  C   UNL     1      -4.264  -0.003  -0.268  0.00  0.00    -0.039 C 
ATOM     20  C   UNL     1      -4.910  -0.518   0.803  0.00  0.00    -0.001 A 
ATOM     21  C   UNL     1      -5.037  -1.883   1.327  0.00  0.00    +0.010 A 
ATOM     22  C   UNL     1      -5.769  -2.092   2.445  0.00  0.00    +0.001 A 
ATOM     23  C   UNL     1      -6.407  -1.039   3.115  0.00  0.00    +0.002 A 
ATOM     24  C   UNL     1      -6.337   0.242   2.695  0.00  0.00    +0.026 A 
ATOM     25  C   UNL     1      -5.594   0.576   1.530  0.00  0.00    +0.043 A 
ATOM     26  N   UNL     1      -5.378   1.723   0.931  0.00  0.00    -0.380 N 
ATOM     27  C   UNL     1      -4.528   1.486  -0.241  0.00  0.00    +0.145 C 
ATOM     28  H   UNL     1      -5.721   2.584   1.217  0.00  0.00    +0.160 HD
ENDBRANCH  18  19
BRANCH  18  29
ATOM     29  C   UNL     1      -4.045  -0.568  -2.672  0.00  0.00    +0.060 C 
ATOM     30  C   UNL     1      -5.456  -1.205  -2.774  0.00  0.00    +0.042 C 
ATOM     31  C   UNL     1      -5.650  -1.853  -4.107  0.00  0.00    -0.019 C 
ATOM     32  C   UNL     1      -4.603  -2.145  -4.854  0.00  0.00    +0.036 C 
ATOM     33  S   UNL     1      -3.176  -1.596  -3.931  0.00  0.00    -0.129 S 
ENDBRANCH  18  29
ENDBRANCH   1  18
TORSDOF 8
