REMARK  Name = ZINC43284035
REMARK  10 active torsions:
REMARK  status: ('A' for Active; 'I' for Inactive)
REMARK    1  A    between atoms: C_1  and  C_2
REMARK    2  A    between atoms: C_2  and  C_3
REMARK    3  A    between atoms: C_3  and  C_5
REMARK    4  A    between atoms: C_3  and  N_19
REMARK    5  A    between atoms: C_5  and  C_7
REMARK    6  A    between atoms: C_5  and  S_13
REMARK    7  A    between atoms: S_13  and  C_14
REMARK    8  A    between atoms: C_14  and  C_15
REMARK    9  A    between atoms: C_15  and  O_17
REMARK   10  A    between atoms: O_17  and  C_18
REMARK                            x       y       z     vdW  Elec       q    Type
REMARK                         _______ _______ _______ _____ _____    ______ ____
ROOT
ATOM      1  C   UNL     1      -1.520  -2.059  -0.053  0.00  0.00    +0.069 C 
ENDROOT
BRANCH   1   2
ATOM      2  C   UNL     1      -2.942  -2.549  -0.145  0.00  0.00    +0.002 A 
ATOM      3  C   UNL     1      -3.536  -3.263  -1.132  0.00  0.00    +0.013 A 
ATOM      4  C   UNL     1      -4.870  -3.606  -1.002  0.00  0.00    +0.023 A 
ATOM      5  C   UNL     1      -5.543  -3.217   0.110  0.00  0.00    +0.055 A 
ATOM      6  S   UNL     1      -4.279  -2.346   1.021  0.00  0.00    -0.085 S 
ATOM      7 BR   UNL     1      -7.349  -3.525   0.577  0.00  0.00    -0.043 Br
ENDBRANCH   1   2
BRANCH   1   8
ATOM      8  C   UNL     1      -1.512  -0.533   0.056  0.00  0.00    -0.057 C 
BRANCH   8   9
ATOM      9  N   UNL     1      -0.136  -0.065   0.265  0.00  0.00    +0.381 N 
ATOM     10  H   UNL     1      -0.130   0.942   0.337  0.00  0.00    -0.090 HD
ATOM     11  H   UNL     1       0.230  -0.464   1.117  0.00  0.00    -0.090 HD
ATOM     12  H   UNL     1       0.439  -0.349  -0.514  0.00  0.00    -0.090 HD
ENDBRANCH   8   9
BRANCH   8  14
ATOM     13  C   UNL     1      -2.182   1.590  -1.077  0.00  0.00    +0.002 C 
ATOM     14  C   UNL     1      -2.066   0.073  -1.235  0.00  0.00    -0.018 C 
ENDBRANCH   8  14
ENDBRANCH   1   8
BRANCH   1  15
ATOM     15  S   UNL     1      -0.728  -2.774   1.414  0.00  0.00    -0.143 S 
BRANCH  15  16
ATOM     16  C   UNL     1      -0.642  -4.549   1.046  0.00  0.00    +0.190 C 
BRANCH  16  17
ATOM     17  C   UNL     1       0.113  -5.253   2.143  0.00  0.00    +0.317 C 
ATOM     18  O   UNL     1       0.550  -4.623   3.077  0.00  0.00    -0.250 OA
BRANCH  17  19
ATOM     19  O   UNL     1       0.302  -6.581   2.083  0.00  0.00    -0.467 OA
ATOM     20  C   UNL     1       1.027  -7.183   3.156  0.00  0.00    +0.280 C 
ENDBRANCH  17  19
ENDBRANCH  16  17
ENDBRANCH  15  16
ENDBRANCH   1  15
TORSDOF 8
