REMARK  Name = ZINC15880032
REMARK  4 active torsions:
REMARK  status: ('A' for Active; 'I' for Inactive)
REMARK    1  A    between atoms: N_8  and  N_9
REMARK    2  A    between atoms: C_10  and  C_12
REMARK    3  A    between atoms: C_12  and  N_13
REMARK    4  A    between atoms: C_14  and  C_16
REMARK                            x       y       z     vdW  Elec       q    Type
REMARK                         _______ _______ _______ _____ _____    ______ ____
ROOT
ATOM      1  N   UNL     1       1.292  -4.444  -0.035  0.00  0.00    -0.205 N 
ATOM      2  C   UNL     1       0.458  -5.503  -0.032  0.00  0.00    +0.249 C 
ATOM      3  O   UNL     1      -0.742  -5.329  -0.020  0.00  0.00    -0.272 OA
ATOM      4  H   UNL     1       2.252  -4.582  -0.044  0.00  0.00    +0.177 HD
ENDROOT
BRANCH   1  12
ATOM      5  C   UNL     1      -0.017   1.376   0.010  0.00  0.00    +0.001 A 
ATOM      6  C   UNL     1       1.172   2.086   0.002  0.00  0.00    +0.002 A 
ATOM      7  C   UNL     1       2.385   1.427  -0.013  0.00  0.00    +0.024 A 
ATOM      8  C   UNL     1       2.424   0.037  -0.021  0.00  0.00    +0.043 A 
ATOM      9  C   UNL     1       1.219  -0.677  -0.014  0.00  0.00    +0.028 A 
ATOM     10  C   UNL     1       0.002  -0.004   0.002  0.00  0.00    +0.012 A 
ATOM     11  C   UNL     1       1.583  -2.113  -0.025  0.00  0.00    +0.152 C 
ATOM     12  N   UNL     1       0.772  -3.143  -0.023  0.00  0.00    -0.174 NA
ATOM     13  C   UNL     1       3.060  -2.131  -0.039  0.00  0.00    +0.269 C 
ATOM     14  O   UNL     1       3.764  -3.123  -0.051  0.00  0.00    -0.268 OA
ATOM     15  N   UNL     1       3.488  -0.857  -0.036  0.00  0.00    -0.280 N 
ATOM     16  H   UNL     1       4.422  -0.595  -0.044  0.00  0.00    +0.155 HD
ENDBRANCH   1  12
BRANCH   2  17
ATOM     17  C   UNL     1       1.017  -6.902  -0.045  0.00  0.00    +0.202 C 
BRANCH  17  18
ATOM     18  N   UNL     1      -0.084  -7.868  -0.040  0.00  0.00    -0.303 N 
ATOM     19  C   UNL     1       0.178  -9.190  -0.049  0.00  0.00    +0.245 C 
ATOM     20  O   UNL     1       1.330  -9.581  -0.062  0.00  0.00    -0.270 OA
ATOM     21  H   UNL     1      -1.003  -7.556  -0.029  0.00  0.00    +0.150 HD
BRANCH  19  22
ATOM     22  C   UNL     1      -0.931 -10.163  -0.044  0.00  0.00    +0.040 A 
ATOM     23  C   UNL     1      -2.255  -9.716  -0.035  0.00  0.00    +0.017 A 
ATOM     24  C   UNL     1      -3.288 -10.627  -0.029  0.00  0.00    +0.050 A 
ATOM     25  C   UNL     1      -3.020 -11.991  -0.032  0.00  0.00    +0.162 A 
ATOM     26  C   UNL     1      -1.703 -12.443  -0.044  0.00  0.00    +0.163 A 
ATOM     27  C   UNL     1      -0.661 -11.533  -0.054  0.00  0.00    +0.062 A 
ATOM     28  O   UNL     1      -1.424 -13.775  -0.055  0.00  0.00    -0.485 OA
ATOM     29  C   UNL     1      -2.486 -14.658   0.325  0.00  0.00    +0.270 C 
ATOM     30  C   UNL     1      -3.761 -14.218  -0.406  0.00  0.00    +0.270 C 
ATOM     31  O   UNL     1      -4.057 -12.871  -0.022  0.00  0.00    -0.485 OA
ENDBRANCH  19  22
ENDBRANCH  17  18
ENDBRANCH   2  17
TORSDOF 4
