REMARK  Name = ZINC42037524
REMARK  3 active torsions:
REMARK  status: ('A' for Active; 'I' for Inactive)
REMARK    1  A    between atoms: C_4  and  C_8
REMARK    2  A    between atoms: N_9  and  N_10
REMARK    3  A    between atoms: N_11  and  C_12
REMARK                            x       y       z     vdW  Elec       q    Type
REMARK                         _______ _______ _______ _____ _____    ______ ____
ROOT
ATOM      1  C   UNL     1       3.744  -0.688   0.199  0.00  0.00    +0.119 C 
ATOM      2  N   UNL     1       4.809  -0.023  -0.143  0.00  0.00    -0.300 N 
ATOM      3  N   UNL     1       3.722  -2.078   0.079  0.00  0.00    -0.326 N 
ATOM      4  H   UNL     1       2.928  -2.574   0.334  0.00  0.00    +0.148 HD
ATOM      5  H   UNL     1       5.615  -0.497  -0.403  0.00  0.00    +0.185 HD
ENDROOT
BRANCH   1   9
ATOM      6  C   UNL     1       0.335   1.371   1.680  0.00  0.00    +0.018 A 
ATOM      7  C   UNL     1       0.213   0.544   0.578  0.00  0.00    +0.040 A 
ATOM      8  C   UNL     1       1.317  -0.129   0.090  0.00  0.00    +0.134 A 
ATOM      9  C   UNL     1       2.559   0.028   0.714  0.00  0.00    +0.050 A 
ATOM     10  C   UNL     1       2.673   0.864   1.825  0.00  0.00    +0.029 A 
ATOM     11  C   UNL     1       1.562   1.530   2.302  0.00  0.00    +0.019 A 
ATOM     12 BR   UNL     1       1.715   2.663   3.808  0.00  0.00    -0.050 Br
ATOM     13  F   UNL     1       1.198  -0.936  -0.986  0.00  0.00    -0.205 F 
ENDBRANCH   1   9
BRANCH   3  14
ATOM     14  C   UNL     1       4.897  -2.788  -0.432  0.00  0.00    +0.072 C 
ATOM     15  C   UNL     1       5.874  -3.050   0.717  0.00  0.00    +0.022 C 
ATOM     16  C   UNL     1       7.101  -3.792   0.183  0.00  0.00    +0.002 C 
ATOM     17  C   UNL     1       6.666  -5.124  -0.429  0.00  0.00    +0.000 C 
ATOM     18  C   UNL     1       5.689  -4.863  -1.577  0.00  0.00    +0.002 C 
ATOM     19  C   UNL     1       4.462  -4.121  -1.044  0.00  0.00    +0.022 C 
ENDBRANCH   3  14
BRANCH   2  20
ATOM     20  N   UNL     1       4.792   1.378  -0.136  0.00  0.00    -0.304 N 
ATOM     21  H   UNL     1       3.961   1.852   0.021  0.00  0.00    +0.162 HD
ATOM     22  H   UNL     1       5.612   1.874  -0.287  0.00  0.00    +0.162 HD
ENDBRANCH   2  20
TORSDOF 3
