REMARK  Name = ZINC01331362
REMARK  7 active torsions:
REMARK  status: ('A' for Active; 'I' for Inactive)
REMARK    1  A    between atoms: C_1  and  C_2
REMARK    2  A    between atoms: C_7  and  S_12
REMARK    3  A    between atoms: S_12  and  C_13
REMARK    4  A    between atoms: C_13  and  C_14
REMARK    5  A    between atoms: N_16  and  C_17
REMARK    6  A    between atoms: C_21  and  O_23
REMARK    7  A    between atoms: O_23  and  C_24
REMARK                            x       y       z     vdW  Elec       q    Type
REMARK                         _______ _______ _______ _____ _____    ______ ____
ROOT
ATOM      1  S   UNL     1       1.047  -5.358  -0.029  0.00  0.00    -0.076 S 
ENDROOT
BRANCH   1   8
ATOM      2  C   UNL     1      -0.019   1.503   0.031  0.00  0.00    +0.066 C 
ATOM      3  C   UNL     1       0.001  -0.004   0.020  0.00  0.00    +0.045 A 
ATOM      4  C   UNL     1      -1.171  -0.692   0.030  0.00  0.00    +0.071 A 
ATOM      5  C   UNL     1      -1.125  -2.104   0.019  0.00  0.00    +0.166 A 
ATOM      6  N   UNL     1      -2.031  -3.057   0.024  0.00  0.00    -0.128 NA
ATOM      7  N   UNL     1      -1.453  -4.207   0.008  0.00  0.00    -0.122 NA
ATOM      8  C   UNL     1      -0.148  -4.063  -0.007  0.00  0.00    +0.199 A 
ATOM      9  N   UNL     1       0.111  -2.723  -0.000  0.00  0.00    -0.242 N 
ATOM     10  C   UNL     1       1.245  -1.961  -0.008  0.00  0.00    +0.201 A 
ATOM     11  N   UNL     1       1.173  -0.649  -0.004  0.00  0.00    -0.221 NA
ATOM     12  N   UNL     1       2.474  -2.574  -0.028  0.00  0.00    -0.328 N 
ATOM     13  H   UNL     1       2.534  -3.542  -0.036  0.00  0.00    +0.145 HD
ATOM     14  H   UNL     1       3.283  -2.038  -0.033  0.00  0.00    +0.145 HD
ENDBRANCH   1   8
BRANCH   1  15
ATOM     15  C   UNL     1       0.051  -6.874  -0.027  0.00  0.00    +0.173 C 
BRANCH  15  16
ATOM     16  C   UNL     1       0.962  -8.074  -0.046  0.00  0.00    +0.227 C 
ATOM     17  O   UNL     1       2.165  -7.921  -0.059  0.00  0.00    -0.275 OA
ATOM     18  N   UNL     1       0.440  -9.316  -0.048  0.00  0.00    -0.285 N 
ATOM     19  H   UNL     1      -0.519  -9.440   0.030  0.00  0.00    +0.155 HD
BRANCH  18  20
ATOM     20  C   UNL     1       1.282 -10.428  -0.163  0.00  0.00    +0.037 A 
ATOM     21  C   UNL     1       0.861 -11.549  -0.868  0.00  0.00    +0.023 A 
ATOM     22  C   UNL     1       1.692 -12.647  -0.981  0.00  0.00    +0.005 A 
ATOM     23  C   UNL     1       2.943 -12.634  -0.393  0.00  0.00    +0.046 A 
ATOM     24  C   UNL     1       3.368 -11.517   0.313  0.00  0.00    +0.122 A 
ATOM     25  C   UNL     1       2.540 -10.411   0.423  0.00  0.00    +0.069 A 
BRANCH  24  26
ATOM     26  O   UNL     1       4.598 -11.506   0.891  0.00  0.00    -0.495 OA
ATOM     27  C   UNL     1       5.400 -12.678   0.731  0.00  0.00    +0.277 C 
ENDBRANCH  24  26
ENDBRANCH  18  20
ENDBRANCH  15  16
ENDBRANCH   1  15
TORSDOF 5
