REMARK  Name = ZINC11906634
REMARK  12 active torsions:
REMARK  status: ('A' for Active; 'I' for Inactive)
REMARK    1  A    between atoms: C_1  and  C_2
REMARK    2  A    between atoms: C_4  and  N_25
REMARK    3  A    between atoms: C_6  and  C_24
REMARK    4  A    between atoms: C_7  and  S_8
REMARK    5  A    between atoms: S_8  and  N_11
REMARK    6  A    between atoms: N_11  and  C_12
REMARK    7  A    between atoms: C_14  and  O_22
REMARK    8  A    between atoms: C_15  and  O_20
REMARK    9  A    between atoms: C_16  and  O_18
REMARK   10  A    between atoms: O_18  and  C_19
REMARK   11  A    between atoms: O_20  and  C_21
REMARK   12  A    between atoms: O_22  and  C_23
REMARK                            x       y       z     vdW  Elec       q    Type
REMARK                         _______ _______ _______ _____ _____    ______ ____
ROOT
ATOM      1  S   UNL     1       4.417  -0.478  -1.139  0.00  0.00    +0.073 S 
ATOM      2  O   UNL     1       5.392   0.550  -1.035  0.00  0.00    -0.150 OA
ATOM      3  O   UNL     1       4.614  -1.773  -0.587  0.00  0.00    -0.150 OA
ENDROOT
BRANCH   1  10
ATOM      4  C   UNL     1       1.832  -2.032  -0.932  0.00  0.00    +0.046 C 
ATOM      5  C   UNL     1       1.802  -0.633  -0.372  0.00  0.00    -0.022 A 
ATOM      6  C   UNL     1       0.641  -0.140   0.190  0.00  0.00    +0.030 A 
ATOM      7  C   UNL     1       0.615   1.150   0.706  0.00  0.00    +0.051 A 
ATOM      8  C   UNL     1       1.757   1.939   0.655  0.00  0.00    +0.030 A 
ATOM      9  C   UNL     1       2.915   1.439   0.091  0.00  0.00    -0.022 A 
ATOM     10  C   UNL     1       2.938   0.155  -0.422  0.00  0.00    +0.114 A 
ATOM     11  C   UNL     1       4.154   2.294   0.036  0.00  0.00    +0.046 C 
BRANCH   7  12
ATOM     12  N   UNL     1      -0.559   1.654   1.270  0.00  0.00    -0.207 N 
ATOM     13  C   UNL     1      -0.518   2.726   2.276  0.00  0.00    +0.131 C 
ATOM     14  C   UNL     1      -1.349   3.912   1.790  0.00  0.00    +0.022 C 
ATOM     15  C   UNL     1      -2.823   3.529   1.677  0.00  0.00    +0.026 C 
ATOM     16  C   UNL     1      -3.019   2.565   0.500  0.00  0.00    +0.189 C 
ATOM     17  S   UNL     1      -2.050   1.065   0.820  0.00  0.00    +0.045 S 
ATOM     18  O   UNL     1      -1.817   0.359  -0.391  0.00  0.00    -0.155 OA
ATOM     19  O   UNL     1      -2.544   0.395   1.972  0.00  0.00    -0.155 OA
ENDBRANCH   7  12
ENDBRANCH   1  10
BRANCH   1  20
ATOM     20  N   UNL     1       4.125  -0.692  -2.755  0.00  0.00    -0.216 N 
ATOM     21  H   UNL     1       4.094  -1.587  -3.128  0.00  0.00    +0.174 HD
BRANCH  20  22
ATOM     22  C   UNL     1       3.922   0.418  -3.582  0.00  0.00    +0.055 A 
ATOM     23  C   UNL     1       3.055   1.428  -3.187  0.00  0.00    +0.074 A 
ATOM     24  C   UNL     1       2.857   2.530  -4.004  0.00  0.00    +0.167 A 
ATOM     25  C   UNL     1       3.518   2.620  -5.223  0.00  0.00    +0.204 A 
ATOM     26  C   UNL     1       4.382   1.606  -5.620  0.00  0.00    +0.167 A 
ATOM     27  C   UNL     1       4.583   0.506  -4.800  0.00  0.00    +0.074 A 
BRANCH  26  28
ATOM     28  O   UNL     1       5.030   1.692  -6.812  0.00  0.00    -0.491 OA
ATOM     29  C   UNL     1       5.902   0.614  -7.156  0.00  0.00    +0.277 C 
ENDBRANCH  26  28
BRANCH  25  30
ATOM     30  O   UNL     1       3.321   3.700  -6.027  0.00  0.00    -0.488 OA
ATOM     31  C   UNL     1       2.260   3.614  -6.981  0.00  0.00    +0.277 C 
ENDBRANCH  25  30
BRANCH  24  32
ATOM     32  O   UNL     1       2.011   3.522  -3.615  0.00  0.00    -0.491 OA
ATOM     33  C   UNL     1       1.447   3.417  -2.306  0.00  0.00    +0.277 C 
ENDBRANCH  24  32
ENDBRANCH  20  22
ENDBRANCH   1  20
TORSDOF 7
