REMARK  Name = ZINC16677869
REMARK  11 active torsions:
REMARK  status: ('A' for Active; 'I' for Inactive)
REMARK    1  A    between atoms: C_1  and  C_2
REMARK    2  A    between atoms: C_2  and  C_3
REMARK    3  A    between atoms: C_3  and  C_4
REMARK    4  A    between atoms: N_6  and  C_22
REMARK    5  A    between atoms: C_10  and  N_11
REMARK    6  A    between atoms: N_11  and  C_12
REMARK    7  A    between atoms: C_14  and  C_20
REMARK    8  A    between atoms: C_14  and  C_21
REMARK    9  A    between atoms: C_16  and  C_18
REMARK   10  A    between atoms: C_16  and  C_19
REMARK   11  A    between atoms: C_25  and  N_28
REMARK                            x       y       z     vdW  Elec       q    Type
REMARK                         _______ _______ _______ _____ _____    ______ ____
ROOT
ATOM      1  C   UNL     1       0.932  -1.467  -1.817  0.00  0.00    +0.073 C 
ATOM      2  N   UNL     1       0.337  -2.165  -0.898  0.00  0.00    -0.176 NA
ATOM      3  N   UNL     1       0.457  -3.533  -1.142  0.00  0.00    -0.156 N 
ATOM      4  C   UNL     1       1.164  -3.741  -2.271  0.00  0.00    +0.273 C 
ATOM      5  O   UNL     1       1.451  -4.817  -2.768  0.00  0.00    -0.268 OA
ATOM      6  C   UNL     1       1.511  -2.411  -2.785  0.00  0.00    +0.075 C 
ATOM      7  C   UNL     1       2.230  -2.110  -3.929  0.00  0.00    +0.082 C 
ENDROOT
BRANCH   3   8
ATOM      8  C   UNL     1      -0.077  -4.542  -0.331  0.00  0.00    +0.060 A 
ATOM      9  C   UNL     1       0.111  -5.876  -0.667  0.00  0.00    +0.028 A 
ATOM     10  C   UNL     1      -0.417  -6.870   0.134  0.00  0.00    +0.034 A 
ATOM     11  C   UNL     1      -1.131  -6.536   1.271  0.00  0.00    +0.126 A 
ATOM     12  C   UNL     1      -1.320  -5.209   1.608  0.00  0.00    +0.034 A 
ATOM     13  C   UNL     1      -0.789  -4.211   0.814  0.00  0.00    +0.028 A 
BRANCH  11  14
ATOM     14  N   UNL     1      -1.695  -7.603   2.127  0.00  0.00    +0.056 N 
ATOM     15  O   UNL     1      -1.532  -8.765   1.834  0.00  0.00    -0.126 OA
ATOM     16  O   UNL     1      -2.320  -7.314   3.121  0.00  0.00    -0.126 OA
ENDBRANCH  11  14
ENDBRANCH   3   8
BRANCH   7  17
ATOM     17  N   UNL     1       2.695  -3.103  -4.714  0.00  0.00    -0.346 N 
ATOM     18  H   UNL     1       2.525  -4.028  -4.477  0.00  0.00    +0.146 HD
BRANCH  17  19
ATOM     19  C   UNL     1       3.457  -2.783  -5.928  0.00  0.00    +0.067 C 
ATOM     20  C   UNL     1       4.935  -2.623  -5.565  0.00  0.00    +0.009 C 
ATOM     21  C   UNL     1       5.744  -2.303  -6.821  0.00  0.00    -0.072 C 
ATOM     22  N   UNL     1       5.532  -3.283  -7.876  0.00  0.00    +0.386 N 
ATOM     23  C   UNL     1       4.162  -3.671  -8.171  0.00  0.00    -0.072 C 
ATOM     24  C   UNL     1       3.329  -3.938  -6.921  0.00  0.00    +0.009 C 
ATOM     25  C   UNL     1       4.216  -4.991  -8.976  0.00  0.00    -0.010 C 
ATOM     26  C   UNL     1       3.459  -2.637  -9.056  0.00  0.00    -0.010 C 
ATOM     27  C   UNL     1       5.449  -0.879  -7.291  0.00  0.00    -0.010 C 
ATOM     28  C   UNL     1       7.239  -2.356  -6.429  0.00  0.00    -0.010 C 
ATOM     29  H   UNL     1       5.959  -2.928  -8.735  0.00  0.00    -0.084 HD
ATOM     30  H   UNL     1       6.061  -4.126  -7.641  0.00  0.00    -0.084 HD
ENDBRANCH  17  19
ENDBRANCH   7  17
BRANCH   1  31
ATOM     31  C   UNL     1       1.010   0.036  -1.883  0.00  0.00    +0.057 C 
BRANCH  31  33
ATOM     32  C   UNL     1       0.356   2.165  -0.749  0.00  0.00    +0.004 C 
ATOM     33  C   UNL     1       0.277   0.638  -0.682  0.00  0.00    +0.003 C 
ENDBRANCH  31  33
ENDBRANCH   1  31
TORSDOF 6
