REMARK  Name = ZINC40173272
REMARK  6 active torsions:
REMARK  status: ('A' for Active; 'I' for Inactive)
REMARK    1  A    between atoms: C_1  and  C_2
REMARK    2  A    between atoms: C_2  and  C_4
REMARK    3  A    between atoms: C_2  and  N_16
REMARK    4  A    between atoms: C_20  and  S_21
REMARK    5  A    between atoms: S_21  and  C_22
REMARK    6  A    between atoms: C_22  and  C_23
REMARK                            x       y       z     vdW  Elec       q    Type
REMARK                         _______ _______ _______ _____ _____    ______ ____
ROOT
ATOM      1  C   UNL     1      -0.019   1.526   0.010  0.00  0.00    +0.041 C 
ATOM      2  C   UNL     1       0.002  -0.004   0.002  0.00  0.00    +0.175 C 
ENDROOT
BRANCH   2   3
ATOM      3  C   UNL     1       0.731  -0.503   1.223  0.00  0.00    +0.241 C 
ATOM      4  O   UNL     1       0.159  -1.213   2.023  0.00  0.00    -0.273 OA
ATOM      5  N   UNL     1       2.019  -0.161   1.426  0.00  0.00    -0.263 N 
ATOM      6  C   UNL     1       2.689  -0.620   2.548  0.00  0.00    +0.165 A 
ATOM      7  N   UNL     1       2.246  -1.393   3.513  0.00  0.00    -0.225 NA
ATOM      8  C   UNL     1       3.018  -1.765   4.557  0.00  0.00    +0.080 A 
ATOM      9  C   UNL     1       2.667  -2.586   5.653  0.00  0.00    +0.029 A 
ATOM     10  C   UNL     1       3.578  -2.868   6.637  0.00  0.00    +0.002 A 
ATOM     11  C   UNL     1       4.870  -2.362   6.595  0.00  0.00    +0.001 A 
ATOM     12  C   UNL     1       5.247  -1.556   5.537  0.00  0.00    +0.017 A 
ATOM     13  C   UNL     1       4.341  -1.268   4.548  0.00  0.00    +0.041 A 
ATOM     14  S   UNL     1       4.378  -0.318   3.047  0.00  0.00    -0.052 S 
ATOM     15  H   UNL     1       2.476   0.406   0.786  0.00  0.00    +0.157 HD
ENDBRANCH   2   3
BRANCH   2  16
ATOM     16  N   UNL     1      -1.372  -0.511   0.012  0.00  0.00    -0.279 N 
ATOM     17  C   UNL     1      -2.309  -0.271   0.977  0.00  0.00    +0.216 A 
ATOM     18  N   UNL     1      -3.412  -0.891   0.634  0.00  0.00    -0.113 NA
ATOM     19  N   UNL     1      -3.179  -1.548  -0.581  0.00  0.00    -0.121 NA
ATOM     20  C   UNL     1      -1.944  -1.303  -0.944  0.00  0.00    +0.194 A 
ATOM     21  N   UNL     1      -2.126   0.496   2.120  0.00  0.00    -0.328 N 
ATOM     22  H   UNL     1      -1.269   0.918   2.289  0.00  0.00    +0.145 HD
ATOM     23  H   UNL     1      -2.855   0.610   2.750  0.00  0.00    +0.145 HD
BRANCH  20  24
ATOM     24  S   UNL     1      -1.157  -1.893  -2.406  0.00  0.00    -0.071 S 
BRANCH  24  25
ATOM     25  C   UNL     1      -2.442  -2.872  -3.231  0.00  0.00    +0.195 C 
BRANCH  25  26
ATOM     26  C   UNL     1      -1.906  -3.429  -4.484  0.00  0.00    +0.074 C 
ATOM     27  N   UNL     1      -1.492  -3.859  -5.450  0.00  0.00    -0.196 NA
ENDBRANCH  25  26
ENDBRANCH  24  25
ENDBRANCH  20  24
ENDBRANCH   2  16
TORSDOF 5
