REMARK  Name = ZINC52471185
REMARK  8 active torsions:
REMARK  status: ('A' for Active; 'I' for Inactive)
REMARK    1  A    between atoms: C_1  and  C_2
REMARK    2  A    between atoms: C_4  and  C_28
REMARK    3  A    between atoms: C_5  and  N_9
REMARK    4  A    between atoms: C_6  and  C_8
REMARK    5  A    between atoms: C_10  and  C_12
REMARK    6  A    between atoms: C_12  and  N_13
REMARK    7  A    between atoms: N_16  and  C_17
REMARK    8  A    between atoms: C_21  and  C_23
REMARK                            x       y       z     vdW  Elec       q    Type
REMARK                         _______ _______ _______ _____ _____    ______ ____
ROOT
ATOM      1  N   UNL     1       0.845  -6.974   2.259  0.00  0.00    -0.291 N 
ATOM      2  C   UNL     1       0.960  -8.303   2.450  0.00  0.00    +0.304 C 
ATOM      3  O   UNL     1       0.681  -9.073   1.552  0.00  0.00    -0.252 OA
ATOM      4  N   UNL     1       1.385  -8.778   3.638  0.00  0.00    -0.269 N 
ATOM      5  H   UNL     1       1.068  -6.360   2.975  0.00  0.00    +0.151 HD
ATOM      6  H   UNL     1       1.672  -8.164   4.331  0.00  0.00    +0.156 HD
ENDROOT
BRANCH   4   7
ATOM      7  C   UNL     1       1.413 -10.159   3.869  0.00  0.00    +0.035 A 
ATOM      8  C   UNL     1       1.114 -10.657   5.132  0.00  0.00    +0.023 A 
ATOM      9  C   UNL     1       1.140 -12.019   5.367  0.00  0.00    +0.002 A 
ATOM     10  C   UNL     1       1.462 -12.893   4.348  0.00  0.00    +0.012 A 
ATOM     11  C   UNL     1       1.764 -12.402   3.077  0.00  0.00    +0.021 A 
ATOM     12  C   UNL     1       1.732 -11.028   2.839  0.00  0.00    +0.035 A 
BRANCH  11  13
ATOM     13  C   UNL     1       2.109 -13.336   1.984  0.00  0.00    +0.153 A 
ATOM     14  C   UNL     1       2.169 -14.690   2.065  0.00  0.00    +0.132 A 
ATOM     15  N   UNL     1       2.517 -15.152   0.855  0.00  0.00    -0.335 N 
ATOM     16  C   UNL     1       2.671 -14.142   0.046  0.00  0.00    +0.284 A 
ATOM     17  O   UNL     1       2.421 -13.007   0.711  0.00  0.00    -0.444 OA
ATOM     18  H   UNL     1       2.636 -16.086   0.621  0.00  0.00    +0.168 HD
ENDBRANCH  11  13
ENDBRANCH   4   7
BRANCH   1  19
ATOM     19  C   UNL     1       0.383  -6.457   0.968  0.00  0.00    +0.202 C 
BRANCH  19  21
ATOM     20  N   UNL     1      -0.055  -4.254  -0.067  0.00  0.00    -0.284 N 
ATOM     21  C   UNL     1       0.342  -4.952   1.015  0.00  0.00    +0.234 C 
ATOM     22  O   UNL     1       0.668  -4.368   2.027  0.00  0.00    -0.274 OA
ATOM     23  H   UNL     1      -0.392  -4.721  -0.848  0.00  0.00    +0.155 HD
BRANCH  20  28
ATOM     24  C   UNL     1       0.241   1.411  -0.059  0.00  0.00    +0.044 C 
ATOM     25  C   UNL     1       0.163  -0.094  -0.061  0.00  0.00    -0.050 A 
ATOM     26  C   UNL     1       0.812  -0.817  -1.044  0.00  0.00    +0.008 A 
ATOM     27  C   UNL     1       0.742  -2.196  -1.049  0.00  0.00    -0.029 A 
ATOM     28  C   UNL     1       0.018  -2.857  -0.065  0.00  0.00    +0.039 A 
ATOM     29  C   UNL     1      -0.633  -2.127   0.921  0.00  0.00    -0.029 A 
ATOM     30  C   UNL     1      -0.554  -0.748   0.923  0.00  0.00    +0.008 A 
ATOM     31  C   UNL     1      -1.420  -2.840   1.991  0.00  0.00    +0.045 C 
ATOM     32  C   UNL     1       1.450  -2.984  -2.122  0.00  0.00    +0.045 C 
ENDBRANCH  20  28
ENDBRANCH  19  21
ENDBRANCH   1  19
TORSDOF 5
