REMARK  Name = ZINC12591209
REMARK  13 active torsions:
REMARK  status: ('A' for Active; 'I' for Inactive)
REMARK    1  A    between atoms: C_1  and  C_2
REMARK    2  A    between atoms: C_2  and  C_3
REMARK    3  A    between atoms: C_8  and  N_9
REMARK    4  A    between atoms: C_10  and  C_12
REMARK    5  A    between atoms: C_12  and  N_62
REMARK    6  A    between atoms: C_13  and  N_62
REMARK    7  A    between atoms: C_14  and  C_15
REMARK    8  A    between atoms: C_14  and  N_62
REMARK    9  A    between atoms: N_17  and  C_18
REMARK   10  A    between atoms: C_19  and  C_32
REMARK   11  A    between atoms: C_20  and  C_31
REMARK   12  A    between atoms: C_21  and  C_30
REMARK   13  A    between atoms: N_22  and  C_23
REMARK                            x       y       z     vdW  Elec       q    Type
REMARK                         _______ _______ _______ _____ _____    ______ ____
ROOT
ATOM      1  C   UNL     1      -1.392  -1.406   0.208  0.00  0.00    +0.202 C 
ATOM      2  O   UNL     1      -0.401  -1.984  -0.186  0.00  0.00    -0.278 OA
ATOM      3  N   UNL     1      -2.330  -2.075   0.908  0.00  0.00    -0.272 N 
ATOM      4  H   UNL     1      -3.079  -1.596   1.295  0.00  0.00    +0.156 HD
ENDROOT
BRANCH   3   5
ATOM      5  C   UNL     1      -2.222  -3.447   1.075  0.00  0.00    +0.128 A 
ATOM      6  C   UNL     1      -3.176  -4.391   0.720  0.00  0.00    +0.095 A 
ATOM      7  C   UNL     1      -2.612  -5.696   1.088  0.00  0.00    -0.010 A 
ATOM      8  C   UNL     1      -1.405  -5.457   1.627  0.00  0.00    +0.027 A 
ATOM      9  N   UNL     1      -1.165  -4.107   1.622  0.00  0.00    -0.300 N 
ATOM     10  C   UNL     1      -0.463  -6.508   2.155  0.00  0.00    +0.064 C 
ATOM     11  C   UNL     1      -3.264  -7.041   0.903  0.00  0.00    +0.047 C 
BRANCH   9  12
ATOM     12  C   UNL     1      -0.002  -3.496   2.108  0.00  0.00    +0.051 A 
ATOM     13  C   UNL     1      -0.054  -2.714   3.255  0.00  0.00    +0.026 A 
ATOM     14  C   UNL     1       1.094  -2.113   3.733  0.00  0.00    +0.005 A 
ATOM     15  C   UNL     1       2.296  -2.289   3.072  0.00  0.00    +0.038 A 
ATOM     16  C   UNL     1       2.352  -3.068   1.929  0.00  0.00    +0.125 A 
ATOM     17  C   UNL     1       1.206  -3.677   1.449  0.00  0.00    +0.064 A 
ATOM     18  F   UNL     1       3.527  -3.238   1.285  0.00  0.00    -0.205 F 
ENDBRANCH   9  12
BRANCH   6  19
ATOM     19  C   UNL     1      -4.450  -4.142   0.115  0.00  0.00    +0.103 C 
ATOM     20  N   UNL     1      -5.461  -3.945  -0.364  0.00  0.00    -0.191 NA
ENDBRANCH   6  19
ENDBRANCH   3   5
BRANCH   1  21
ATOM     21  C   UNL     1      -1.575   0.061  -0.086  0.00  0.00    +0.019 C 
BRANCH  21  23
ATOM     22  C   UNL     1      -0.379  -0.067  -2.188  0.00  0.00    -0.095 C 
ATOM     23  N   UNL     1      -0.401   0.546  -0.843  0.00  0.00    +0.389 N 
ATOM     24  H   UNL     1       0.453   0.278  -0.340  0.00  0.00    -0.081 HD
BRANCH  23  25
ATOM     25  C   UNL     1      -0.448   2.018  -0.959  0.00  0.00    +0.019 C 
BRANCH  25  27
ATOM     26  N   UNL     1       1.064   3.821  -1.721  0.00  0.00    -0.287 N 
ATOM     27  C   UNL     1       0.858   2.502  -1.535  0.00  0.00    +0.201 C 
ATOM     28  O   UNL     1       1.722   1.705  -1.831  0.00  0.00    -0.278 OA
ATOM     29  H   UNL     1       0.355   4.455  -1.531  0.00  0.00    +0.155 HD
BRANCH  26  35
ATOM     30  C   UNL     1       2.401   5.519  -2.799  0.00  0.00    -0.026 A 
ATOM     31  C   UNL     1       3.625   5.965  -3.260  0.00  0.00    +0.005 A 
ATOM     32  C   UNL     1       4.750   5.176  -3.113  0.00  0.00    +0.000 A 
ATOM     33  C   UNL     1       4.655   3.937  -2.506  0.00  0.00    +0.002 A 
ATOM     34  C   UNL     1       3.436   3.487  -2.039  0.00  0.00    +0.023 A 
ATOM     35  C   UNL     1       2.302   4.276  -2.189  0.00  0.00    +0.036 A 
BRANCH  30  37
ATOM     36  C   UNL     1       0.951   7.190  -1.679  0.00  0.00    +0.009 C 
ATOM     37  C   UNL     1       1.175   6.381  -2.958  0.00  0.00    +0.033 C 
ENDBRANCH  30  37
ENDBRANCH  26  35
ENDBRANCH  25  27
ENDBRANCH  23  25
ENDBRANCH  21  23
ENDBRANCH   1  21
TORSDOF 9
