REMARK  Name = ZINC04989801
REMARK  12 active torsions:
REMARK  status: ('A' for Active; 'I' for Inactive)
REMARK    1  A    between atoms: C_4  and  N_56
REMARK    2  A    between atoms: C_7  and  C_8
REMARK    3  A    between atoms: C_7  and  N_56
REMARK    4  A    between atoms: C_8  and  C_10
REMARK    5  A    between atoms: C_8  and  O_23
REMARK    6  A    between atoms: C_10  and  S_11
REMARK    7  A    between atoms: S_11  and  C_12
REMARK    8  A    between atoms: C_12  and  C_13
REMARK    9  A    between atoms: C_13  and  C_15
REMARK   10  A    between atoms: C_13  and  O_22
REMARK   11  A    between atoms: C_15  and  N_59
REMARK   12  A    between atoms: C_16  and  N_59
REMARK                            x       y       z     vdW  Elec       q    Type
REMARK                         _______ _______ _______ _____ _____    ______ ____
ROOT
ATOM      1  S   UNL     1       1.197   1.785  -2.727  0.00  0.00    -0.156 S 
ENDROOT
BRANCH   1   2
ATOM      2  C   UNL     1       2.202   1.188  -4.114  0.00  0.00    +0.098 C 
BRANCH   2   3
ATOM      3  C   UNL     1       1.595   1.678  -5.431  0.00  0.00    +0.107 C 
BRANCH   3   4
ATOM      4  O   UNL     1       1.675   3.103  -5.491  0.00  0.00    -0.393 OA
ATOM      5  H   UNL     1       2.577   3.449  -5.447  0.00  0.00    +0.210 HD
ENDBRANCH   3   4
BRANCH   3   6
ATOM      6  C   UNL     1       2.367   1.073  -6.605  0.00  0.00    -0.050 C 
BRANCH   6   7
ATOM      7  N   UNL     1       1.776   1.550  -7.869  0.00  0.00    +0.383 N 
ATOM      8  H   UNL     1       0.792   1.260  -7.913  0.00  0.00    -0.085 HD
ATOM      9  H   UNL     1       1.833   2.574  -7.905  0.00  0.00    -0.085 HD
BRANCH   7  13
ATOM     10  C   UNL     1       3.539   1.233 -11.749  0.00  0.00    -0.000 C 
ATOM     11  C   UNL     1       2.321   0.363 -11.434  0.00  0.00    -0.002 C 
ATOM     12  C   UNL     1       1.573   0.948 -10.235  0.00  0.00    -0.016 C 
ATOM     13  C   UNL     1       2.503   0.981  -9.020  0.00  0.00    -0.072 C 
ATOM     14  C   UNL     1       3.721   1.851  -9.335  0.00  0.00    -0.016 C 
ATOM     15  C   UNL     1       4.469   1.266 -10.535  0.00  0.00    -0.002 C 
ENDBRANCH   7  13
ENDBRANCH   6   7
ENDBRANCH   3   6
ENDBRANCH   2   3
ENDBRANCH   1   2
BRANCH   1  16
ATOM     16  C   UNL     1       2.040   1.127  -1.261  0.00  0.00    +0.098 C 
BRANCH  16  17
ATOM     17  C   UNL     1       1.286   1.562  -0.002  0.00  0.00    +0.107 C 
BRANCH  17  18
ATOM     18  O   UNL     1      -0.011   0.963   0.007  0.00  0.00    -0.393 OA
ATOM     19  H   UNL     1       0.002  -0.004   0.002  0.00  0.00    +0.210 HD
ENDBRANCH  17  18
BRANCH  17  20
ATOM     20  C   UNL     1       2.064   1.114   1.238  0.00  0.00    -0.050 C 
BRANCH  20  21
ATOM     21  N   UNL     1       1.331   1.536   2.446  0.00  0.00    +0.383 N 
ATOM     22  H   UNL     1       0.399   1.106   2.445  0.00  0.00    -0.085 HD
ATOM     23  H   UNL     1       1.236   2.559   2.445  0.00  0.00    -0.085 HD
BRANCH  21  24
ATOM     24  C   UNL     1       2.059   1.117   3.659  0.00  0.00    -0.072 C 
ATOM     25  C   UNL     1       1.681  -0.323   4.009  0.00  0.00    -0.016 C 
ATOM     26  C   UNL     1       2.429  -0.755   5.272  0.00  0.00    -0.002 C 
ATOM     27  C   UNL     1       2.048   0.169   6.431  0.00  0.00    -0.000 C 
ATOM     28  C   UNL     1       2.426   1.609   6.081  0.00  0.00    -0.002 C 
ATOM     29  C   UNL     1       1.678   2.041   4.818  0.00  0.00    -0.016 C 
ENDBRANCH  21  24
ENDBRANCH  20  21
ENDBRANCH  17  20
ENDBRANCH  16  17
ENDBRANCH   1  16
TORSDOF 12
