REMARK  Name = ZINC58436565
REMARK  9 active torsions:
REMARK  status: ('A' for Active; 'I' for Inactive)
REMARK    1  A    between atoms: C_1  and  C_2
REMARK    2  A    between atoms: C_2  and  C_4
REMARK    3  A    between atoms: C_2  and  N_14
REMARK    4  A    between atoms: C_8  and  S_10
REMARK    5  A    between atoms: S_10  and  N_13
REMARK    6  A    between atoms: N_17  and  C_18
REMARK    7  A    between atoms: C_18  and  C_19
REMARK    8  A    between atoms: C_19  and  C_21
REMARK    9  A    between atoms: C_19  and  N_26
REMARK                            x       y       z     vdW  Elec       q    Type
REMARK                         _______ _______ _______ _____ _____    ______ ____
ROOT
ATOM      1  N   UNL     1       0.779  -0.530   1.174  0.00  0.00    -0.293 N 
ATOM      2  C   UNL     1       0.081  -0.760   2.304  0.00  0.00    +0.300 C 
ATOM      3  O   UNL     1      -1.129  -0.641   2.307  0.00  0.00    -0.253 OA
ATOM      4  N   UNL     1       0.725  -1.124   3.431  0.00  0.00    -0.301 N 
ATOM      5  H   UNL     1       1.744  -0.625   1.172  0.00  0.00    +0.151 HD
ATOM      6  H   UNL     1       1.690  -1.219   3.429  0.00  0.00    +0.150 HD
ENDROOT
BRANCH   1   8
ATOM      7  C   UNL     1      -0.137   1.380  -0.050  0.00  0.00    +0.033 C 
ATOM      8  C   UNL     1       0.079  -0.135  -0.051  0.00  0.00    +0.102 C 
BRANCH   8   9
ATOM      9  C   UNL     1       0.906  -0.523  -1.250  0.00  0.00    -0.026 A 
ATOM     10  C   UNL     1       2.280  -0.367  -1.221  0.00  0.00    +0.005 A 
ATOM     11  C   UNL     1       3.038  -0.723  -2.320  0.00  0.00    +0.002 A 
ATOM     12  C   UNL     1       2.424  -1.236  -3.448  0.00  0.00    +0.028 A 
ATOM     13  C   UNL     1       1.051  -1.392  -3.476  0.00  0.00    +0.105 A 
ATOM     14  C   UNL     1       0.292  -1.040  -2.375  0.00  0.00    +0.034 A 
BRANCH  13  15
ATOM     15  S   UNL     1       0.268  -2.045  -4.913  0.00  0.00    +0.056 S 
ATOM     16  O   UNL     1      -1.076  -1.582  -4.889  0.00  0.00    -0.153 OA
ATOM     17  O   UNL     1       1.142  -1.789  -6.003  0.00  0.00    -0.153 OA
BRANCH  15  18
ATOM     18  N   UNL     1       0.205  -3.690  -4.732  0.00  0.00    -0.204 NA
ATOM     19  H   UNL     1       0.568  -4.104  -3.934  0.00  0.00    +0.144 HD
ATOM     20  H   UNL     1      -0.194  -4.239  -5.425  0.00  0.00    +0.144 HD
ENDBRANCH  15  18
ENDBRANCH  13  15
ENDBRANCH   8   9
ENDBRANCH   1   8
BRANCH   4  21
ATOM     21  C   UNL     1      -0.033  -1.374   4.659  0.00  0.00    +0.095 C 
BRANCH  21  22
ATOM     22  C   UNL     1       0.916  -1.870   5.752  0.00  0.00    -0.013 C 
BRANCH  22  23
ATOM     23  N   UNL     1       0.140  -2.247   6.941  0.00  0.00    +0.386 N 
ATOM     24  C   UNL     1      -0.776  -3.371   6.620  0.00  0.00    -0.078 C 
ATOM     25  C   UNL     1      -1.069  -3.997   8.006  0.00  0.00    -0.020 C 
ATOM     26  C   UNL     1       0.290  -3.877   8.734  0.00  0.00    -0.020 C 
ATOM     27  C   UNL     1       1.041  -2.751   8.000  0.00  0.00    -0.078 C 
ATOM     28  H   UNL     1      -0.386  -1.455   7.279  0.00  0.00    -0.081 HD
ENDBRANCH  22  23
BRANCH  22  29
ATOM     29  C   UNL     1       1.885  -0.774   6.111  0.00  0.00    -0.022 A 
ATOM     30  C   UNL     1       3.168  -0.602   5.708  0.00  0.00    +0.009 A 
ATOM     31  C   UNL     1       3.875   0.492   6.170  0.00  0.00    +0.008 A 
ATOM     32  C   UNL     1       3.266   1.360   7.014  0.00  0.00    +0.045 A 
ATOM     33  S   UNL     1       1.639   0.641   7.173  0.00  0.00    -0.103 S 
ENDBRANCH  22  29
ENDBRANCH  21  22
ENDBRANCH   4  21
TORSDOF 8
