REMARK  Name = ZINC18526962
REMARK  9 active torsions:
REMARK  status: ('A' for Active; 'I' for Inactive)
REMARK    1  A    between atoms: C_4  and  C_7
REMARK    2  A    between atoms: C_7  and  N_8
REMARK    3  A    between atoms: C_9  and  C_11
REMARK    4  A    between atoms: C_16  and  N_17
REMARK    5  A    between atoms: C_18  and  C_20
REMARK    6  A    between atoms: C_20  and  S_21
REMARK    7  A    between atoms: S_21  and  C_22
REMARK    8  A    between atoms: C_25  and  C_28
REMARK    9  A    between atoms: N_26  and  N_27
REMARK                            x       y       z     vdW  Elec       q    Type
REMARK                         _______ _______ _______ _____ _____    ______ ____
ROOT
ATOM      1  N   UNL     1       3.361  11.976   0.017  0.00  0.00    -0.284 N 
ATOM      2  C   UNL     1       3.486  10.848   0.746  0.00  0.00    +0.228 C 
ATOM      3  O   UNL     1       4.398  10.736   1.537  0.00  0.00    -0.275 OA
ATOM      4  H   UNL     1       2.670  12.041  -0.661  0.00  0.00    +0.155 HD
ENDROOT
BRANCH   1  10
ATOM      5  C   UNL     1       3.755  14.364   0.122  0.00  0.00    +0.058 A 
ATOM      6  C   UNL     1       4.630  15.429   0.346  0.00  0.00    +0.015 A 
ATOM      7  C   UNL     1       5.944  15.181   0.679  0.00  0.00    +0.001 A 
ATOM      8  C   UNL     1       6.403  13.879   0.793  0.00  0.00    +0.002 A 
ATOM      9  C   UNL     1       5.549  12.816   0.580  0.00  0.00    +0.024 A 
ATOM     10  C   UNL     1       4.223  13.047   0.238  0.00  0.00    +0.046 A 
BRANCH   5  12
ATOM     11  N   UNL     1       1.928  15.885  -0.451  0.00  0.00    -0.307 N 
ATOM     12  C   UNL     1       2.347  14.622  -0.234  0.00  0.00    +0.246 C 
ATOM     13  O   UNL     1       1.565  13.697  -0.331  0.00  0.00    -0.270 OA
ATOM     14  H   UNL     1       2.552  16.623  -0.374  0.00  0.00    +0.149 HD
BRANCH  11  15
ATOM     15  C   UNL     1       0.529  16.141  -0.805  0.00  0.00    +0.139 C 
BRANCH  15  19
ATOM     16  C   UNL     1      -0.057  20.339  -1.338  0.00  0.00    +0.000 A 
ATOM     17  C   UNL     1       0.311  19.550  -2.413  0.00  0.00    +0.000 A 
ATOM     18  C   UNL     1       0.501  18.192  -2.240  0.00  0.00    +0.005 A 
ATOM     19  C   UNL     1       0.323  17.622  -0.993  0.00  0.00    -0.030 A 
ATOM     20  C   UNL     1      -0.051  18.410   0.080  0.00  0.00    +0.005 A 
ATOM     21  C   UNL     1      -0.236  19.769  -0.092  0.00  0.00    +0.000 A 
ENDBRANCH  15  19
ENDBRANCH  11  15
ENDBRANCH   5  12
ENDBRANCH   1  10
BRANCH   2  22
ATOM     22  C   UNL     1       2.491   9.729   0.577  0.00  0.00    +0.173 C 
BRANCH  22  23
ATOM     23  S   UNL     1       2.926   8.365   1.685  0.00  0.00    -0.075 S 
BRANCH  23  24
ATOM     24  C   UNL     1       1.638   7.229   1.291  0.00  0.00    +0.209 A 
ATOM     25  N   UNL     1       0.675   7.415   0.417  0.00  0.00    -0.121 NA
ATOM     26  N   UNL     1      -0.090   6.383   0.375  0.00  0.00    -0.126 NA
ATOM     27  C   UNL     1       0.333   5.476   1.227  0.00  0.00    +0.188 A 
ATOM     28  N   UNL     1       1.456   5.988   1.838  0.00  0.00    -0.223 N 
BRANCH  27  29
ATOM     29  C   UNL     1      -0.275   4.158   1.476  0.00  0.00    +0.058 A 
ATOM     30  C   UNL     1      -1.519   3.699   1.123  0.00  0.00    +0.019 A 
ATOM     31  C   UNL     1      -1.869   2.412   1.464  0.00  0.00    +0.008 A 
ATOM     32  C   UNL     1      -0.981   1.642   2.144  0.00  0.00    +0.046 A 
ATOM     33  S   UNL     1       0.415   2.741   2.315  0.00  0.00    -0.093 S 
ENDBRANCH  27  29
BRANCH  28  34
ATOM     34  N   UNL     1       2.226   5.384   2.790  0.00  0.00    -0.295 N 
ATOM     35  H   UNL     1       2.969   4.848   2.368  0.00  0.00    +0.163 HD
ATOM     36  H   UNL     1       2.594   6.062   3.441  0.00  0.00    +0.163 HD
ENDBRANCH  28  34
ENDBRANCH  23  24
ENDBRANCH  22  23
ENDBRANCH   2  22
TORSDOF 9
