REMARK  Name = ZINC47951581
REMARK  6 active torsions:
REMARK  status: ('A' for Active; 'I' for Inactive)
REMARK    1  A    between atoms: C_3  and  C_6
REMARK    2  A    between atoms: C_6  and  C_8
REMARK    3  A    between atoms: C_6  and  N_25
REMARK    4  A    between atoms: C_8  and  N_9
REMARK    5  A    between atoms: N_12  and  C_13
REMARK    6  A    between atoms: C_13  and  C_14
REMARK                            x       y       z     vdW  Elec       q    Type
REMARK                         _______ _______ _______ _____ _____    ______ ____
ROOT
ATOM      1  N   UNL     1       5.745   2.231   1.339  0.00  0.00    -0.301 N 
ATOM      2  C   UNL     1       6.460   2.277   2.480  0.00  0.00    +0.300 C 
ATOM      3  O   UNL     1       5.910   2.096   3.550  0.00  0.00    -0.253 OA
ATOM      4  N   UNL     1       7.784   2.522   2.436  0.00  0.00    -0.295 N 
ATOM      5  H   UNL     1       6.183   2.376   0.486  0.00  0.00    +0.150 HD
ATOM      6  H   UNL     1       8.223   2.667   1.583  0.00  0.00    +0.151 HD
ENDROOT
BRANCH   1   7
ATOM      7  C   UNL     1       4.305   1.964   1.387  0.00  0.00    +0.095 C 
BRANCH   7   8
ATOM      8  C   UNL     1       3.715   2.095  -0.019  0.00  0.00    -0.013 C 
BRANCH   8   9
ATOM      9  N   UNL     1       2.299   1.704   0.006  0.00  0.00    +0.386 N 
ATOM     10  C   UNL     1       1.715   1.808  -1.356  0.00  0.00    -0.078 C 
ATOM     11  C   UNL     1       0.483   0.870  -1.285  0.00  0.00    -0.020 C 
ATOM     12  C   UNL     1       0.987  -0.297  -0.405  0.00  0.00    -0.020 C 
ATOM     13  C   UNL     1       2.168   0.283   0.394  0.00  0.00    -0.078 C 
ATOM     14  H   UNL     1       1.788   2.289   0.650  0.00  0.00    -0.081 HD
ENDBRANCH   8   9
BRANCH   8  17
ATOM     15  C   UNL     1       4.664   5.427  -1.603  0.00  0.00    +0.008 A 
ATOM     16  C   UNL     1       4.751   4.078  -1.313  0.00  0.00    +0.009 A 
ATOM     17  C   UNL     1       3.834   3.524  -0.483  0.00  0.00    -0.022 A 
ATOM     18  S   UNL     1       2.804   4.926  -0.082  0.00  0.00    -0.103 S 
ATOM     19  C   UNL     1       3.665   6.155  -1.048  0.00  0.00    +0.045 A 
ENDBRANCH   8  17
ENDBRANCH   7   8
ENDBRANCH   1   7
BRANCH   4  20
ATOM     20  C   UNL     1       8.562   2.572   3.677  0.00  0.00    +0.141 C 
BRANCH  20  21
ATOM     21  C   UNL     1      10.005   2.860   3.354  0.00  0.00    -0.026 A 
ATOM     22  C   UNL     1      10.898   1.825   3.108  0.00  0.00    +0.023 A 
ATOM     23  C   UNL     1      12.214   2.123   2.815  0.00  0.00    +0.084 A 
ATOM     24  N   UNL     1      12.630   3.374   2.766  0.00  0.00    -0.350 N 
ATOM     25  C   UNL     1      11.809   4.388   2.994  0.00  0.00    +0.099 A 
ATOM     26  C   UNL     1      10.469   4.161   3.290  0.00  0.00    +0.047 A 
ATOM     27  N   UNL     1      12.290   5.691   2.932  0.00  0.00    -0.317 N 
ATOM     28  C   UNL     1      11.500   6.908   3.168  0.00  0.00    +0.106 C 
ATOM     29  C   UNL     1      12.444   8.113   2.965  0.00  0.00    +0.020 C 
ATOM     30  C   UNL     1      13.570   7.526   2.074  0.00  0.00    +0.020 C 
ATOM     31  C   UNL     1      13.679   6.080   2.625  0.00  0.00    +0.106 C 
ATOM     32  H   UNL     1      13.560   3.556   2.557  0.00  0.00    +0.166 HD
ENDBRANCH  20  21
ENDBRANCH   4  20
TORSDOF 6
