REMARK  Name = ZINC20617476
REMARK  12 active torsions:
REMARK  status: ('A' for Active; 'I' for Inactive)
REMARK    1  A    between atoms: C_1  and  C_2
REMARK    2  A    between atoms: C_2  and  O_3
REMARK    3  A    between atoms: O_3  and  C_4
REMARK    4  A    between atoms: C_4  and  C_6
REMARK    5  A    between atoms: C_9  and  N_12
REMARK    6  A    between atoms: C_14  and  C_26
REMARK    7  A    between atoms: C_17  and  C_24
REMARK    8  A    between atoms: C_20  and  C_23
REMARK    9  A    between atoms: C_24  and  O_25
REMARK   10  A    between atoms: N_28  and  C_29
REMARK   11  A    between atoms: C_34  and  O_35
REMARK   12  A    between atoms: O_35  and  C_36
REMARK                            x       y       z     vdW  Elec       q    Type
REMARK                         _______ _______ _______ _____ _____    ______ ____
ROOT
ATOM      1  N   UNL     1       1.202   3.420   0.035  0.00  0.00    -0.325 N 
ATOM      2  C   UNL     1       2.329   4.095   0.136  0.00  0.00    +0.212 A 
ATOM      3  C   UNL     1       2.324   5.567   0.244  0.00  0.00    +0.098 A 
ATOM      4  C   UNL     1       3.403   6.155   0.897  0.00  0.00    +0.030 A 
ATOM      5  C   UNL     1       4.447   5.261   1.403  0.00  0.00    +0.027 A 
ATOM      6  C   UNL     1       5.434   5.709   2.289  0.00  0.00    +0.007 A 
ATOM      7  C   UNL     1       6.382   4.808   2.727  0.00  0.00    +0.117 A 
ATOM      8  N   UNL     1       6.367   3.550   2.325  0.00  0.00    -0.256 NA
ATOM      9  C   UNL     1       5.461   3.081   1.492  0.00  0.00    +0.081 A 
ATOM     10  C   UNL     1       4.466   3.914   0.996  0.00  0.00    +0.159 A 
ATOM     11  O   UNL     1       3.526   3.456   0.137  0.00  0.00    -0.437 OA
ATOM     12  C   UNL     1       5.503   1.634   1.076  0.00  0.00    +0.069 C 
ATOM     13  H   UNL     1       0.246   3.956  -0.047  0.00  0.00    +0.169 HD
ENDROOT
BRANCH   1  17
ATOM     14  C   UNL     1       1.261  -0.706   0.030  0.00  0.00    +0.059 A 
ATOM     15  C   UNL     1       1.251  -0.008   1.244  0.00  0.00    +0.017 A 
ATOM     16  C   UNL     1       1.231   1.356   1.246  0.00  0.00    +0.026 A 
ATOM     17  C   UNL     1       1.222   2.058   0.034  0.00  0.00    +0.042 A 
ATOM     18  C   UNL     1       1.233   1.359  -1.180  0.00  0.00    +0.026 A 
ATOM     19  C   UNL     1       1.252  -0.005  -1.181  0.00  0.00    +0.017 A 
BRANCH  14  20
ATOM     20  C   UNL     1       1.282  -2.179   0.029  0.00  0.00    +0.339 C 
ATOM     21  O   UNL     1       1.290  -2.787   1.080  0.00  0.00    -0.245 OA
BRANCH  20  22
ATOM     22  O   UNL     1       1.292  -2.851  -1.140  0.00  0.00    -0.461 OA
BRANCH  22  24
ATOM     23  C   UNL     1       1.321  -4.884  -2.480  0.00  0.00    +0.048 C 
ATOM     24  C   UNL     1       1.312  -4.301  -1.065  0.00  0.00    +0.229 C 
ENDBRANCH  22  24
ENDBRANCH  20  22
ENDBRANCH  14  20
ENDBRANCH   1  17
BRANCH   3  25
ATOM     25  C   UNL     1       1.223   6.375  -0.310  0.00  0.00    +0.253 C 
ATOM     26  O   UNL     1       1.246   7.587  -0.206  0.00  0.00    -0.270 OA
ATOM     27  N   UNL     1       0.192   5.771  -0.933  0.00  0.00    -0.278 N 
ATOM     28  H   UNL     1       0.135   4.673  -0.964  0.00  0.00    +0.155 HD
BRANCH  27  29
ATOM     29  C   UNL     1      -0.807   6.542  -1.541  0.00  0.00    +0.077 A 
ATOM     30  C   UNL     1      -1.192   7.751  -0.979  0.00  0.00    +0.047 A 
ATOM     31  C   UNL     1      -2.174   8.513  -1.584  0.00  0.00    +0.043 A 
ATOM     32  C   UNL     1      -2.784   8.066  -2.743  0.00  0.00    +0.024 A 
ATOM     33  C   UNL     1      -2.410   6.860  -3.305  0.00  0.00    +0.049 A 
ATOM     34  C   UNL     1      -1.422   6.094  -2.708  0.00  0.00    +0.141 A 
ATOM     35 CL   UNL     1      -2.649  10.029  -0.884  0.00  0.00    -0.083 Cl
BRANCH  34  36
ATOM     36  O   UNL     1      -1.053   4.907  -3.260  0.00  0.00    -0.493 OA
ATOM     37  C   UNL     1      -1.726   4.511  -4.457  0.00  0.00    +0.277 C 
ENDBRANCH  34  36
ENDBRANCH  27  29
ENDBRANCH   3  25
BRANCH   6  38
ATOM     38  C   UNL     1       5.461   7.143   2.753  0.00  0.00    +0.193 C 
BRANCH  38  39
ATOM     39  O   UNL     1       6.561   7.334   3.645  0.00  0.00    -0.390 OA
ATOM     40  H   UNL     1       6.743   8.324   4.090  0.00  0.00    +0.210 HD
ENDBRANCH  38  39
ENDBRANCH   6  38
TORSDOF 9
