REMARK  Name = ZINC59309642
REMARK  10 active torsions:
REMARK  status: ('A' for Active; 'I' for Inactive)
REMARK    1  A    between atoms: C_4  and  C_7
REMARK    2  A    between atoms: C_7  and  O_8
REMARK    3  A    between atoms: O_8  and  C_9
REMARK    4  A    between atoms: C_12  and  C_15
REMARK    5  A    between atoms: N_16  and  N_17
REMARK    6  A    between atoms: C_20  and  S_23
REMARK    7  A    between atoms: S_23  and  C_24
REMARK    8  A    between atoms: C_24  and  C_25
REMARK    9  A    between atoms: N_27  and  C_28
REMARK   10  A    between atoms: C_33  and  N_34
REMARK                            x       y       z     vdW  Elec       q    Type
REMARK                         _______ _______ _______ _____ _____    ______ ____
ROOT
ATOM      1  N   UNL     1      10.641  -4.688   3.329  0.00  0.00    -0.205 N 
ATOM      2  C   UNL     1      11.114  -4.946   4.603  0.00  0.00    +0.232 A 
ATOM      3  N   UNL     1      10.526  -4.608   5.731  0.00  0.00    -0.186 NA
ATOM      4  C   UNL     1      11.267  -5.018   6.765  0.00  0.00    +0.211 A 
ATOM      5  N   UNL     1      12.338  -5.623   6.309  0.00  0.00    -0.144 NA
ATOM      6  N   UNL     1      12.259  -5.594   4.907  0.00  0.00    -0.245 N 
ATOM      7  H   UNL     1      11.146  -4.982   2.555  0.00  0.00    +0.177 HD
ATOM      8  H   UNL     1      12.901  -5.965   4.282  0.00  0.00    +0.192 HD
ENDROOT
BRANCH   1  10
ATOM      9  C   UNL     1       8.986  -3.760   1.962  0.00  0.00    +0.138 C 
ATOM     10  N   UNL     1       9.431  -4.002   3.158  0.00  0.00    -0.188 NA
BRANCH   9  14
ATOM     11  C   UNL     1       5.321  -1.682   1.442  0.00  0.00    +0.121 A 
ATOM     12  C   UNL     1       6.043  -2.102   0.332  0.00  0.00    +0.046 A 
ATOM     13  C   UNL     1       7.233  -2.777   0.496  0.00  0.00    +0.013 A 
ATOM     14  C   UNL     1       7.714  -3.038   1.781  0.00  0.00    -0.005 A 
ATOM     15  C   UNL     1       6.984  -2.614   2.895  0.00  0.00    +0.013 A 
ATOM     16  C   UNL     1       5.798  -1.935   2.721  0.00  0.00    +0.046 A 
BRANCH  11  17
ATOM     17  O   UNL     1       4.148  -1.017   1.275  0.00  0.00    -0.487 OA
BRANCH  17  18
ATOM     18  C   UNL     1       3.716  -0.790  -0.068  0.00  0.00    +0.264 C 
BRANCH  18  22
ATOM     19  C   UNL     1       0.004   1.323  -0.035  0.00  0.00    +0.000 A 
ATOM     20  C   UNL     1       1.197   2.022  -0.054  0.00  0.00    +0.000 A 
ATOM     21  C   UNL     1       2.398   1.338  -0.065  0.00  0.00    +0.007 A 
ATOM     22  C   UNL     1       2.407  -0.044  -0.056  0.00  0.00    -0.010 A 
ATOM     23  C   UNL     1       1.214  -0.743  -0.035  0.00  0.00    +0.007 A 
ATOM     24  C   UNL     1       0.013  -0.059  -0.026  0.00  0.00    +0.000 A 
ENDBRANCH  18  22
ENDBRANCH  17  18
ENDBRANCH  11  17
ENDBRANCH   9  14
ENDBRANCH   1  10
BRANCH   4  25
ATOM     25  S   UNL     1      10.870  -4.783   8.466  0.00  0.00    -0.075 S 
BRANCH  25  26
ATOM     26  C   UNL     1      12.253  -5.556   9.350  0.00  0.00    +0.173 C 
BRANCH  26  27
ATOM     27  C   UNL     1      12.036  -5.423  10.835  0.00  0.00    +0.228 C 
ATOM     28  O   UNL     1      11.046  -4.863  11.256  0.00  0.00    -0.275 OA
ATOM     29  N   UNL     1      12.943  -5.927  11.696  0.00  0.00    -0.283 N 
ATOM     30  H   UNL     1      13.701  -6.432  11.362  0.00  0.00    +0.155 HD
BRANCH  29  31
ATOM     31  C   UNL     1      12.790  -5.723  13.072  0.00  0.00    +0.064 A 
ATOM     32  C   UNL     1      11.520  -5.700  13.636  0.00  0.00    +0.025 A 
ATOM     33  C   UNL     1      11.373  -5.499  14.994  0.00  0.00    +0.002 A 
ATOM     34  C   UNL     1      12.487  -5.320  15.793  0.00  0.00    +0.002 A 
ATOM     35  C   UNL     1      13.752  -5.341  15.235  0.00  0.00    +0.034 A 
ATOM     36  C   UNL     1      13.907  -5.549  13.878  0.00  0.00    +0.147 A 
BRANCH  36  37
ATOM     37  N   UNL     1      15.262  -5.579  13.283  0.00  0.00    +0.058 N 
ATOM     38  O   UNL     1      16.236  -5.524  13.996  0.00  0.00    -0.126 OA
ATOM     39  O   UNL     1      15.393  -5.658  12.084  0.00  0.00    -0.126 OA
ENDBRANCH  36  37
ENDBRANCH  29  31
ENDBRANCH  26  27
ENDBRANCH  25  26
ENDBRANCH   4  25
TORSDOF 10
