REMARK  Name = ZINC47972466
REMARK  11 active torsions:
REMARK  status: ('A' for Active; 'I' for Inactive)
REMARK    1  A    between atoms: C_1  and  C_2
REMARK    2  A    between atoms: C_2  and  C_3
REMARK    3  A    between atoms: C_2  and  N_4
REMARK    4  A    between atoms: N_4  and  C_5
REMARK    5  A    between atoms: N_4  and  C_6
REMARK    6  A    between atoms: C_6  and  C_7
REMARK    7  A    between atoms: C_12  and  C_13
REMARK    8  A    between atoms: C_13  and  N_14
REMARK    9  A    between atoms: C_15  and  C_17
REMARK   10  A    between atoms: N_19  and  C_20
REMARK   11  A    between atoms: C_21  and  C_25
REMARK                            x       y       z     vdW  Elec       q    Type
REMARK                         _______ _______ _______ _____ _____    ______ ____
ROOT
ATOM      1  N   UNL     1      -2.149  -3.401  -2.722  0.00  0.00    -0.303 N 
ATOM      2  C   UNL     1      -1.534  -3.237  -3.910  0.00  0.00    +0.300 C 
ATOM      3  O   UNL     1      -1.760  -2.250  -4.580  0.00  0.00    -0.265 OA
ATOM      4  H   UNL     1      -1.968  -4.189  -2.187  0.00  0.00    +0.149 HD
ENDROOT
BRANCH   2   5
ATOM      5  C   UNL     1      -0.573  -4.268  -4.401  0.00  0.00    +0.304 C 
ATOM      6  O   UNL     1      -0.347  -5.255  -3.731  0.00  0.00    -0.265 OA
ATOM      7  N   UNL     1       0.043  -4.104  -5.589  0.00  0.00    -0.272 N 
ATOM      8  H   UNL     1      -0.138  -3.316  -6.124  0.00  0.00    +0.156 HD
BRANCH   7   9
ATOM      9  C   UNL     1       0.933  -5.061  -6.045  0.00  0.00    +0.084 A 
ATOM     10  C   UNL     1       1.657  -5.057  -7.229  0.00  0.00    +0.065 A 
ATOM     11  C   UNL     1       2.522  -6.190  -7.460  0.00  0.00    +0.022 A 
ATOM     12  C   UNL     1       2.530  -7.130  -6.495  0.00  0.00    +0.048 A 
ATOM     13  S   UNL     1       1.391  -6.488  -5.289  0.00  0.00    -0.081 S 
BRANCH  10  14
ATOM     14  C   UNL     1       1.549  -3.960  -8.196  0.00  0.00    +0.244 C 
ATOM     15  O   UNL     1       0.809  -3.020  -7.969  0.00  0.00    -0.270 OA
ATOM     16  N   UNL     1       2.268  -3.992  -9.335  0.00  0.00    -0.325 N 
ATOM     17  H   UNL     1       2.857  -4.741  -9.516  0.00  0.00    +0.145 HD
ATOM     18  H   UNL     1       2.196  -3.266  -9.974  0.00  0.00    +0.145 HD
ENDBRANCH  10  14
ENDBRANCH   7   9
ENDBRANCH   2   5
BRANCH   1  19
ATOM     19  C   UNL     1      -3.092  -2.388  -2.240  0.00  0.00    +0.140 C 
BRANCH  19  25
ATOM     20  C   UNL     1      -2.745  -2.423   0.239  0.00  0.00    -0.059 A 
ATOM     21  C   UNL     1      -3.159  -2.744   1.518  0.00  0.00    +0.002 A 
ATOM     22  C   UNL     1      -4.366  -3.389   1.713  0.00  0.00    +0.000 A 
ATOM     23  C   UNL     1      -5.159  -3.714   0.628  0.00  0.00    +0.000 A 
ATOM     24  C   UNL     1      -4.745  -3.392  -0.651  0.00  0.00    +0.005 A 
ATOM     25  C   UNL     1      -3.540  -2.743  -0.845  0.00  0.00    -0.029 A 
BRANCH  20  26
ATOM     26  C   UNL     1      -1.429  -1.720   0.027  0.00  0.00    -0.043 C 
BRANCH  26  27
ATOM     27  N   UNL     1      -0.404  -2.702  -0.349  0.00  0.00    +0.382 N 
ATOM     28  C   UNL     1      -0.178  -3.627   0.769  0.00  0.00    -0.095 C 
ATOM     29  H   UNL     1      -0.715  -3.220  -1.157  0.00  0.00    -0.081 HD
BRANCH  27  31
ATOM     30  C   UNL     1       1.917  -3.027  -1.060  0.00  0.00    -0.014 C 
ATOM     31  C   UNL     1       0.849  -2.004  -0.668  0.00  0.00    -0.075 C 
ATOM     32  C   UNL     1       0.614  -1.040  -1.833  0.00  0.00    -0.014 C 
ENDBRANCH  27  31
ENDBRANCH  26  27
ENDBRANCH  20  26
ENDBRANCH  19  25
ENDBRANCH   1  19
TORSDOF 8
