REMARK  Name = ZINC09660457
REMARK  10 active torsions:
REMARK  status: ('A' for Active; 'I' for Inactive)
REMARK    1  A    between atoms: C_1  and  O_2
REMARK    2  A    between atoms: O_2  and  C_3
REMARK    3  A    between atoms: C_6  and  C_9
REMARK    4  A    between atoms: C_14  and  C_22
REMARK    5  A    between atoms: C_25  and  O_32
REMARK    6  A    between atoms: C_26  and  O_30
REMARK    7  A    between atoms: C_27  and  O_28
REMARK    8  A    between atoms: O_28  and  C_29
REMARK    9  A    between atoms: O_30  and  C_31
REMARK   10  A    between atoms: O_32  and  C_33
REMARK                            x       y       z     vdW  Elec       q    Type
REMARK                         _______ _______ _______ _____ _____    ______ ____
ROOT
ATOM      1  C   UNL     1      -6.321  -5.257   2.848  0.00  0.00    +0.032 C 
ATOM      2  C   UNL     1      -5.989  -3.874   2.284  0.00  0.00    +0.060 C 
ATOM      3  C   UNL     1      -6.899  -3.569   1.118  0.00  0.00    +0.020 C 
ATOM      4  C   UNL     1      -8.158  -4.056   1.076  0.00  0.00    +0.041 C 
ATOM      5  C   UNL     1      -9.100  -3.755  -0.069  0.00  0.00    +0.181 C 
ATOM      6  N   UNL     1      -8.358  -3.192  -1.188  0.00  0.00    -0.201 N 
ATOM      7  C   UNL     1      -7.082  -2.736  -1.088  0.00  0.00    +0.240 A 
ATOM      8  N   UNL     1      -6.735  -2.299  -2.264  0.00  0.00    -0.092 NA
ATOM      9  N   UNL     1      -7.703  -2.453  -3.102  0.00  0.00    -0.021 NA
ATOM     10  N   UNL     1      -8.724  -2.992  -2.517  0.00  0.00    -0.042 NA
ATOM     11  N   UNL     1      -6.389  -2.787   0.109  0.00  0.00    -0.286 N 
ATOM     12  C   UNL     1      -8.648  -4.877   2.108  0.00  0.00    +0.164 C 
ATOM     13  O   UNL     1      -9.791  -5.287   2.048  0.00  0.00    -0.292 OA
ATOM     14  C   UNL     1      -7.791  -5.260   3.282  0.00  0.00    +0.088 C 
ATOM     15  H   UNL     1      -5.568  -2.286   0.232  0.00  0.00    +0.155 HD
ENDROOT
BRANCH   1  19
ATOM     16  C   UNL     1      -3.824  -6.077   6.217  0.00  0.00    +0.120 A 
ATOM     17  C   UNL     1      -4.679  -4.985   6.236  0.00  0.00    +0.046 A 
ATOM     18  C   UNL     1      -5.481  -4.718   5.143  0.00  0.00    +0.007 A 
ATOM     19  C   UNL     1      -5.441  -5.546   4.036  0.00  0.00    -0.043 A 
ATOM     20  C   UNL     1      -4.593  -6.639   4.017  0.00  0.00    +0.007 A 
ATOM     21  C   UNL     1      -3.785  -6.906   5.105  0.00  0.00    +0.046 A 
BRANCH  16  23
ATOM     22  C   UNL     1      -3.122  -5.443   8.398  0.00  0.00    +0.277 C 
ATOM     23  O   UNL     1      -3.029  -6.338   7.288  0.00  0.00    -0.495 OA
ENDBRANCH  16  23
ENDBRANCH   1  19
BRANCH   5  24
ATOM     24  C   UNL     1     -10.141  -2.765   0.389  0.00  0.00    +0.027 A 
ATOM     25  C   UNL     1      -9.752  -1.590   1.005  0.00  0.00    +0.013 A 
ATOM     26  C   UNL     1     -10.703  -0.679   1.426  0.00  0.00    +0.050 A 
ATOM     27  C   UNL     1     -12.051  -0.942   1.232  0.00  0.00    +0.165 A 
ATOM     28  C   UNL     1     -12.445  -2.122   0.613  0.00  0.00    +0.204 A 
ATOM     29  C   UNL     1     -11.486  -3.033   0.186  0.00  0.00    +0.171 A 
BRANCH  29  30
ATOM     30  O   UNL     1     -11.867  -4.186  -0.425  0.00  0.00    -0.491 OA
ATOM     31  C   UNL     1     -12.285  -5.260   0.420  0.00  0.00    +0.277 C 
ENDBRANCH  29  30
BRANCH  28  32
ATOM     32  O   UNL     1     -13.767  -2.382   0.421  0.00  0.00    -0.488 OA
ATOM     33  C   UNL     1     -14.346  -1.929  -0.805  0.00  0.00    +0.277 C 
ENDBRANCH  28  32
BRANCH  27  34
ATOM     34  O   UNL     1     -12.985  -0.044   1.646  0.00  0.00    -0.491 OA
ATOM     35  C   UNL     1     -12.507   1.147   2.274  0.00  0.00    +0.277 C 
ENDBRANCH  27  34
ENDBRANCH   5  24
TORSDOF 6
