REMARK  Name = ZINC08300807
REMARK  6 active torsions:
REMARK  status: ('A' for Active; 'I' for Inactive)
REMARK    1  A    between atoms: C_1  and  C_2
REMARK    2  A    between atoms: C_2  and  C_3
REMARK    3  A    between atoms: C_2  and  N_4
REMARK    4  A    between atoms: C_11  and  C_14
REMARK    5  A    between atoms: N_16  and  C_17
REMARK    6  A    between atoms: C_25  and  C_27
REMARK                            x       y       z     vdW  Elec       q    Type
REMARK                         _______ _______ _______ _____ _____    ______ ____
ROOT
ATOM      1  N   UNL     1       6.489   6.716  -4.700  0.00  0.00    -0.297 N 
ATOM      2  C   UNL     1       5.394   6.351  -4.004  0.00  0.00    +0.303 C 
ATOM      3  O   UNL     1       4.296   6.406  -4.524  0.00  0.00    -0.253 OA
ATOM      4  N   UNL     1       5.516   5.924  -2.731  0.00  0.00    -0.282 N 
ATOM      5  C   UNL     1       6.820   5.956  -2.054  0.00  0.00    +0.128 C 
ATOM      6  C   UNL     1       7.138   4.547  -1.537  0.00  0.00    +0.127 C 
ATOM      7  N   UNL     1       5.970   4.041  -0.803  0.00  0.00    -0.288 N 
ATOM      8  C   UNL     1       4.667   4.009  -1.480  0.00  0.00    +0.179 C 
ATOM      9  C   UNL     1       4.348   5.418  -1.997  0.00  0.00    +0.141 C 
ATOM     10  C   UNL     1       6.092   3.614   0.470  0.00  0.00    +0.203 C 
ATOM     11  O   UNL     1       5.147   3.102   1.031  0.00  0.00    -0.277 OA
ATOM     12  H   UNL     1       7.355   6.742  -4.264  0.00  0.00    +0.150 HD
ENDROOT
BRANCH  10  13
ATOM     13  C   UNL     1       7.404   3.774   1.196  0.00  0.00    +0.027 C 
ATOM     14  C   UNL     1       8.406   2.736   0.633  0.00  0.00    +0.060 C 
ATOM     15  S   UNL     1       9.290   2.268   2.188  0.00  0.00    -0.181 S 
ATOM     16  C   UNL     1       7.873   2.568   3.333  0.00  0.00    -0.011 C 
ATOM     17  N   UNL     1       7.127   3.689   2.651  0.00  0.00    +0.393 N 
ATOM     18  H   UNL     1       6.120   3.539   2.783  0.00  0.00    -0.084 HD
ATOM     19  H   UNL     1       7.401   4.577   3.087  0.00  0.00    -0.084 HD
ENDBRANCH  10  13
BRANCH   8  20
ATOM     20  C   UNL     1       3.601   3.575  -0.507  0.00  0.00    +0.236 C 
ATOM     21  O   UNL     1       3.403   4.217   0.502  0.00  0.00    -0.274 OA
ATOM     22  N   UNL     1       2.868   2.472  -0.759  0.00  0.00    -0.302 N 
ATOM     23  H   UNL     1       3.026   1.958  -1.566  0.00  0.00    +0.150 HD
BRANCH  22  24
ATOM     24  C   UNL     1       1.832   2.050   0.187  0.00  0.00    +0.159 C 
ATOM     25  C   UNL     1       0.769   1.234  -0.553  0.00  0.00    +0.033 C 
ATOM     26  C   UNL     1      -0.146   0.575   0.485  0.00  0.00    +0.021 C 
ATOM     27  C   UNL     1       0.661  -0.478   1.248  0.00  0.00    +0.104 C 
ATOM     28  N   UNL     1       1.904   0.098   1.747  0.00  0.00    -0.314 N 
ATOM     29  C   UNL     1       2.455   1.214   1.269  0.00  0.00    +0.233 C 
ATOM     30  O   UNL     1       3.517   1.574   1.732  0.00  0.00    -0.274 OA
ATOM     31  H   UNL     1       2.360  -0.361   2.469  0.00  0.00    +0.149 HD
ENDBRANCH  22  24
ENDBRANCH   8  20
BRANCH   1  33
ATOM     32  C   UNL     1       5.980   8.549  -6.238  0.00  0.00    +0.027 C 
ATOM     33  C   UNL     1       6.371   7.074  -6.116  0.00  0.00    +0.068 C 
ATOM     34  C   UNL     1       7.712   6.842  -6.814  0.00  0.00    +0.027 C 
ENDBRANCH   1  33
TORSDOF 4
