REMARK  Name = ZINC03312377
REMARK  11 active torsions:
REMARK  status: ('A' for Active; 'I' for Inactive)
REMARK    1  A    between atoms: C_1  and  O_2
REMARK    2  A    between atoms: O_2  and  C_3
REMARK    3  A    between atoms: C_3  and  C_4
REMARK    4  A    between atoms: C_4  and  N_5
REMARK    5  A    between atoms: N_5  and  C_6
REMARK    6  A    between atoms: C_7  and  C_26
REMARK    7  A    between atoms: C_8  and  N_25
REMARK    8  A    between atoms: C_10  and  C_13
REMARK    9  A    between atoms: C_13  and  C_15
REMARK   10  A    between atoms: C_18  and  O_21
REMARK   11  A    between atoms: O_21  and  C_22
REMARK                            x       y       z     vdW  Elec       q    Type
REMARK                         _______ _______ _______ _____ _____    ______ ____
ROOT
ATOM      1  C   UNL     1      -1.677   2.255  -1.227  0.00  0.00    +0.066 C 
ATOM      2  C   UNL     1      -0.566   1.491  -1.135  0.00  0.00    -0.001 C 
ATOM      3  C   UNL     1      -0.043   1.113   0.206  0.00  0.00    -0.018 C 
ATOM      4  C   UNL     1      -0.894   1.680   1.359  0.00  0.00    +0.113 C 
ATOM      5  S   UNL     1      -2.192   2.585   0.444  0.00  0.00    -0.100 S 
ENDROOT
BRANCH   2   6
ATOM      6  C   UNL     1       0.095   1.054  -2.305  0.00  0.00    +0.106 A 
ATOM      7  N   UNL     1       1.237   0.395  -2.416  0.00  0.00    -0.239 NA
ATOM      8  C   UNL     1       1.749   0.038  -3.612  0.00  0.00    +0.079 A 
ATOM      9  C   UNL     1       2.948  -0.667  -3.872  0.00  0.00    +0.029 A 
ATOM     10  C   UNL     1       3.331  -0.948  -5.157  0.00  0.00    +0.002 A 
ATOM     11  C   UNL     1       2.563  -0.556  -6.244  0.00  0.00    +0.001 A 
ATOM     12  C   UNL     1       1.384   0.135  -6.027  0.00  0.00    +0.017 A 
ATOM     13  C   UNL     1       0.993   0.421  -4.744  0.00  0.00    +0.040 A 
ATOM     14  S   UNL     1      -0.394   1.257  -4.012  0.00  0.00    -0.067 S 
ENDBRANCH   2   6
BRANCH   3  15
ATOM     15  N   UNL     1       1.330   1.619   0.338  0.00  0.00    +0.384 N 
ATOM     16  H   UNL     1       1.728   1.346   1.327  0.00  0.00    -0.089 HD
ATOM     17  H   UNL     1       1.329   2.714   0.234  0.00  0.00    -0.089 HD
ATOM     18  H   UNL     1       1.961   1.177  -0.446  0.00  0.00    -0.089 HD
ENDBRANCH   3  15
BRANCH   1  19
ATOM     19  N   UNL     1      -2.289   2.690  -2.383  0.00  0.00    -0.336 N 
ATOM     20  H   UNL     1      -1.924   2.345  -3.362  0.00  0.00    +0.147 HD
BRANCH  19  21
ATOM     21  C   UNL     1      -3.426   3.611  -2.309  0.00  0.00    +0.130 C 
BRANCH  21  22
ATOM     22  C   UNL     1      -3.915   3.933  -3.722  0.00  0.00    +0.178 C 
BRANCH  22  24
ATOM     23  C   UNL     1      -4.914   2.939  -5.661  0.00  0.00    +0.194 C 
ATOM     24  O   UNL     1      -4.429   2.747  -4.331  0.00  0.00    -0.381 OA
ENDBRANCH  22  24
ENDBRANCH  21  22
ENDBRANCH  19  21
ENDBRANCH   1  19
BRANCH   4  25
ATOM     25  C   UNL     1      -0.086   2.618   2.218  0.00  0.00    +0.175 C 
ATOM     26  O   UNL     1      -0.122   3.812   2.010  0.00  0.00    -0.291 OA
BRANCH  25  27
ATOM     27  C   UNL     1       0.744   2.086   3.306  0.00  0.00    +0.019 A 
ATOM     28  C   UNL     1       0.782   0.708   3.552  0.00  0.00    +0.015 A 
ATOM     29  C   UNL     1       1.562   0.216   4.566  0.00  0.00    +0.046 A 
ATOM     30  C   UNL     1       2.307   1.084   5.357  0.00  0.00    +0.127 A 
ATOM     31  C   UNL     1       2.269   2.454   5.121  0.00  0.00    +0.046 A 
ATOM     32  C   UNL     1       1.495   2.956   4.106  0.00  0.00    +0.015 A 
BRANCH  30  33
ATOM     33  O   UNL     1       3.073   0.593   6.363  0.00  0.00    -0.434 OA
BRANCH  33  34
ATOM     34  C   UNL     1       3.067  -0.824   6.551  0.00  0.00    +0.541 C 
ATOM     35  F   UNL     1       1.764  -1.252   6.827  0.00  0.00    -0.166 F 
ATOM     36  F   UNL     1       3.527  -1.451   5.388  0.00  0.00    -0.166 F 
ENDBRANCH  33  34
ENDBRANCH  30  33
ENDBRANCH  25  27
ENDBRANCH   4  25
TORSDOF 10
