REMARK  Name = ZINC16196259
REMARK  12 active torsions:
REMARK  status: ('A' for Active; 'I' for Inactive)
REMARK    1  A    between atoms: C_1  and  O_2
REMARK    2  A    between atoms: O_2  and  C_3
REMARK    3  A    between atoms: C_5  and  C_19
REMARK    4  A    between atoms: C_8  and  O_9
REMARK    5  A    between atoms: O_9  and  C_10
REMARK    6  A    between atoms: C_10  and  C_11
REMARK    7  A    between atoms: C_19  and  N_54
REMARK    8  A    between atoms: C_20  and  C_21
REMARK    9  A    between atoms: C_20  and  N_54
REMARK   10  A    between atoms: C_21  and  N_22
REMARK   11  A    between atoms: N_22  and  C_23
REMARK   12  A    between atoms: C_26  and  N_30
REMARK                            x       y       z     vdW  Elec       q    Type
REMARK                         _______ _______ _______ _____ _____    ______ ____
ROOT
ATOM      1  C   UNL     1      -1.237   3.144   0.030  0.00  0.00    +0.162 A 
ATOM      2  C   UNL     1      -0.043   3.847   0.022  0.00  0.00    +0.051 A 
ATOM      3  C   UNL     1       1.160   3.166   0.007  0.00  0.00    -0.061 A 
ATOM      4  C   UNL     1       1.175   1.783   0.000  0.00  0.00    +0.005 A 
ATOM      5  C   UNL     1      -0.013   1.076   0.008  0.00  0.00    +0.049 A 
ATOM      6  C   UNL     1      -1.222   1.752   0.017  0.00  0.00    +0.162 A 
ENDROOT
BRANCH   1   8
ATOM      7  C   UNL     1      -2.361   5.240   0.052  0.00  0.00    +0.277 C 
ATOM      8  O   UNL     1      -2.421   3.812   0.045  0.00  0.00    -0.491 OA
ENDBRANCH   1   8
BRANCH   6   9
ATOM      9  O   UNL     1      -2.391   1.058   0.020  0.00  0.00    -0.484 OA
BRANCH   9  10
ATOM     10  C   UNL     1      -2.299  -0.368   0.012  0.00  0.00    +0.267 C 
BRANCH  10  11
ATOM     11  C   UNL     1      -3.684  -0.961   0.016  0.00  0.00    +0.026 A 
ATOM     12  C   UNL     1      -4.312  -1.245   1.215  0.00  0.00    +0.049 A 
ATOM     13  C   UNL     1      -5.586  -1.786   1.218  0.00  0.00    +0.020 A 
ATOM     14  C   UNL     1      -6.227  -2.051   0.023  0.00  0.00    +0.003 A 
ATOM     15  C   UNL     1      -5.598  -1.772  -1.176  0.00  0.00    +0.020 A 
ATOM     16  C   UNL     1      -4.326  -1.228  -1.180  0.00  0.00    +0.049 A 
ATOM     17 CL   UNL     1      -3.536  -0.878  -2.686  0.00  0.00    -0.083 Cl
ATOM     18 CL   UNL     1      -3.504  -0.918   2.717  0.00  0.00    -0.083 Cl
ENDBRANCH  10  11
ENDBRANCH   9  10
ENDBRANCH   6   9
BRANCH   3  19
ATOM     19  C   UNL     1       2.458   3.932  -0.002  0.00  0.00    -0.047 C 
BRANCH  19  20
ATOM     20  N   UNL     1       2.861   4.184  -1.398  0.00  0.00    +0.383 N 
ATOM     21  H   UNL     1       2.130   4.731  -1.868  0.00  0.00    -0.085 HD
ATOM     22  H   UNL     1       2.982   3.287  -1.883  0.00  0.00    -0.085 HD
BRANCH  20  23
ATOM     23  C   UNL     1       4.130   4.934  -1.437  0.00  0.00    -0.063 C 
BRANCH  23  24
ATOM     24  C   UNL     1       4.522   5.181  -2.896  0.00  0.00    +0.082 C 
BRANCH  24  25
ATOM     25  N   UNL     1       5.783   5.925  -2.943  0.00  0.00    -0.345 N 
ATOM     26  H   UNL     1       6.227   6.179  -2.119  0.00  0.00    +0.146 HD
BRANCH  25  27
ATOM     27  C   UNL     1       6.345   6.270  -4.175  0.00  0.00    +0.046 A 
ATOM     28  C   UNL     1       5.709   5.907  -5.356  0.00  0.00    +0.026 A 
ATOM     29  C   UNL     1       6.267   6.249  -6.572  0.00  0.00    +0.034 A 
ATOM     30  C   UNL     1       7.457   6.952  -6.616  0.00  0.00    +0.128 A 
ATOM     31  C   UNL     1       8.093   7.315  -5.443  0.00  0.00    +0.054 A 
ATOM     32  C   UNL     1       7.538   6.981  -4.222  0.00  0.00    +0.064 A 
ATOM     33 CL   UNL     1       8.332   7.444  -2.750  0.00  0.00    -0.082 Cl
BRANCH  30  34
ATOM     34  N   UNL     1       8.052   7.317  -7.921  0.00  0.00    +0.056 N 
ATOM     35  O   UNL     1       7.493   6.998  -8.956  0.00  0.00    -0.126 OA
ATOM     36  O   UNL     1       9.100   7.936  -7.962  0.00  0.00    -0.126 OA
ENDBRANCH  30  34
ENDBRANCH  25  27
ENDBRANCH  24  25
ENDBRANCH  23  24
ENDBRANCH  20  23
ENDBRANCH  19  20
ENDBRANCH   3  19
TORSDOF 11
