REMARK  Name = ZINC09108611
REMARK  6 active torsions:
REMARK  status: ('A' for Active; 'I' for Inactive)
REMARK    1  A    between atoms: C_4  and  C_7
REMARK    2  A    between atoms: C_8  and  C_9
REMARK    3  A    between atoms: C_15  and  S_17
REMARK    4  A    between atoms: S_17  and  C_18
REMARK    5  A    between atoms: C_18  and  C_19
REMARK    6  A    between atoms: C_19  and  C_21
REMARK                            x       y       z     vdW  Elec       q    Type
REMARK                         _______ _______ _______ _____ _____    ______ ____
ROOT
ATOM      1  C   UNL     1       0.295  -2.909  -0.017  0.00  0.00    +0.243 C 
ATOM      2  O   UNL     1      -0.840  -2.468  -0.003  0.00  0.00    -0.270 OA
ATOM      3  N   UNL     1       1.346  -2.065  -0.022  0.00  0.00    -0.260 N 
ATOM      4  C   UNL     1       1.134  -0.690  -0.013  0.00  0.00    +0.189 A 
ATOM      5  N   UNL     1       0.002  -0.004   0.002  0.00  0.00    -0.125 NA
ATOM      6  N   UNL     1      -0.015   1.257   0.009  0.00  0.00    -0.133 NA
ATOM      7  C   UNL     1       1.100   1.973   0.002  0.00  0.00    +0.160 A 
ATOM      8  S   UNL     1       2.314   0.657  -0.017  0.00  0.00    -0.024 S 
ATOM      9  H   UNL     1       2.371  -2.463  -0.035  0.00  0.00    +0.157 HD
ENDROOT
BRANCH   1  11
ATOM     10  C   UNL     1      -0.533  -5.200  -0.021  0.00  0.00    +0.013 C 
ATOM     11  C   UNL     1       0.518  -4.355  -0.027  0.00  0.00    +0.068 C 
BRANCH  10  15
ATOM     12  C   UNL     1       0.114  -9.392  -0.053  0.00  0.00    +0.000 A 
ATOM     13  C   UNL     1      -1.178  -8.895  -0.036  0.00  0.00    +0.001 A 
ATOM     14  C   UNL     1      -1.396  -7.534  -0.026  0.00  0.00    +0.008 A 
ATOM     15  C   UNL     1      -0.308  -6.654  -0.032  0.00  0.00    -0.025 A 
ATOM     16  C   UNL     1       0.994  -7.165  -0.053  0.00  0.00    +0.008 A 
ATOM     17  C   UNL     1       1.196  -8.529  -0.058  0.00  0.00    +0.001 A 
ENDBRANCH  10  15
ENDBRANCH   1  11
BRANCH   7  18
ATOM     18  S   UNL     1       1.324   3.720   0.009  0.00  0.00    -0.089 S 
BRANCH  18  19
ATOM     19  C   UNL     1      -0.366   4.380   0.029  0.00  0.00    +0.156 C 
BRANCH  19  20
ATOM     20  C   UNL     1      -0.317   5.886   0.036  0.00  0.00    +0.173 C 
ATOM     21  O   UNL     1       0.752   6.458   0.029  0.00  0.00    -0.291 OA
BRANCH  20  22
ATOM     22  C   UNL     1      -1.566   6.661   0.052  0.00  0.00    +0.019 A 
ATOM     23  C   UNL     1      -2.802   6.004   0.061  0.00  0.00    +0.012 A 
ATOM     24  C   UNL     1      -3.962   6.722   0.076  0.00  0.00    +0.009 A 
ATOM     25  C   UNL     1      -3.927   8.120   0.084  0.00  0.00    -0.014 A 
ATOM     26  C   UNL     1      -2.697   8.779   0.075  0.00  0.00    -0.035 A 
ATOM     27  C   UNL     1      -1.524   8.061   0.065  0.00  0.00    +0.016 A 
ATOM     28  C   UNL     1      -2.975  10.262   0.087  0.00  0.00    +0.071 C 
ATOM     29  C   UNL     1      -4.478  10.404   0.103  0.00  0.00    -0.035 A 
ATOM     30  C   UNL     1      -5.021   9.121   0.101  0.00  0.00    -0.014 A 
ATOM     31  C   UNL     1      -6.409   8.966   0.114  0.00  0.00    +0.009 A 
ATOM     32  C   UNL     1      -7.226  10.076   0.129  0.00  0.00    +0.001 A 
ATOM     33  C   UNL     1      -6.677  11.346   0.132  0.00  0.00    +0.000 A 
ATOM     34  C   UNL     1      -5.303  11.508   0.119  0.00  0.00    +0.004 A 
ENDBRANCH  20  22
ENDBRANCH  19  20
ENDBRANCH  18  19
ENDBRANCH   7  18
TORSDOF 6
