REMARK  Name = ZINC44714349
REMARK  9 active torsions:
REMARK  status: ('A' for Active; 'I' for Inactive)
REMARK    1  A    between atoms: C_1  and  C_2
REMARK    2  A    between atoms: C_4  and  C_8
REMARK    3  A    between atoms: N_6  and  C_7
REMARK    4  A    between atoms: C_12  and  C_21
REMARK    5  A    between atoms: N_23  and  C_24
REMARK    6  A    between atoms: C_24  and  C_26
REMARK    7  A    between atoms: C_24  and  C_27
REMARK    8  A    between atoms: C_28  and  C_34
REMARK    9  A    between atoms: C_32  and  C_33
REMARK                            x       y       z     vdW  Elec       q    Type
REMARK                         _______ _______ _______ _____ _____    ______ ____
ROOT
ATOM      1  C   UNL     1       0.095  -3.368  -1.332  0.00  0.00    +0.267 C 
ATOM      2  O   UNL     1       0.108  -3.310  -2.546  0.00  0.00    -0.268 OA
ATOM      3  N   UNL     1       0.107  -4.566  -0.715  0.00  0.00    -0.295 N 
ATOM      4  C   UNL     1       0.088  -4.837   0.742  0.00  0.00    +0.121 C 
ATOM      5  C   UNL     1      -0.840  -6.063   0.899  0.00  0.00    +0.100 C 
ATOM      6  C   UNL     1      -0.798  -6.764  -0.469  0.00  0.00    -0.004 C 
ATOM      7  C   UNL     1       0.136  -5.910  -1.339  0.00  0.00    +0.115 C 
ATOM      8  C   UNL     1      -2.194  -6.803  -1.085  0.00  0.00    -0.010 C 
ATOM      9  C   UNL     1      -2.137  -7.554  -2.418  0.00  0.00    -0.082 C 
ATOM     10  N   UNL     1      -1.641  -8.917  -2.193  0.00  0.00    +0.379 N 
ATOM     11  C   UNL     1      -0.264  -8.872  -1.688  0.00  0.00    -0.082 C 
ATOM     12  C   UNL     1      -0.241  -8.176  -0.324  0.00  0.00    -0.010 C 
ATOM     13  H   UNL     1      -2.231  -9.381  -1.518  0.00  0.00    -0.086 HD
ATOM     14  H   UNL     1      -1.663  -9.429  -3.062  0.00  0.00    -0.086 HD
ENDROOT
BRANCH   1  18
ATOM     15  C   UNL     1       0.002   1.504   0.060  0.00  0.00    +0.065 C 
ATOM     16  C   UNL     1       0.025  -0.002   0.057  0.00  0.00    +0.037 A 
ATOM     17  C   UNL     1       0.051  -0.802  -1.034  0.00  0.00    +0.057 A 
ATOM     18  C   UNL     1       0.066  -2.126  -0.533  0.00  0.00    +0.147 A 
ATOM     19  N   UNL     1       0.049  -2.039   0.782  0.00  0.00    -0.167 NA
ATOM     20  N   UNL     1       0.030  -0.806   1.142  0.00  0.00    -0.271 N 
ATOM     21  C   UNL     1       0.012  -0.339   2.531  0.00  0.00    +0.172 C 
ENDBRANCH   1  18
BRANCH   5  22
ATOM     22  C   UNL     1      -2.243  -5.621   1.223  0.00  0.00    +0.219 C 
ATOM     23  O   UNL     1      -2.624  -4.518   0.890  0.00  0.00    -0.275 OA
ATOM     24  N   UNL     1      -3.076  -6.451   1.881  0.00  0.00    -0.308 N 
ATOM     25  H   UNL     1      -2.772  -7.333   2.147  0.00  0.00    +0.149 HD
BRANCH  24  26
ATOM     26  C   UNL     1      -4.441  -6.021   2.196  0.00  0.00    +0.104 C 
ATOM     27  C   UNL     1      -4.419  -5.116   3.429  0.00  0.00    +0.033 C 
BRANCH  26  28
ATOM     28  C   UNL     1      -5.297  -7.230   2.475  0.00  0.00    +0.015 A 
ATOM     29  C   UNL     1      -6.510  -7.488   1.935  0.00  0.00    +0.038 A 
ATOM     30  N   UNL     1      -6.943  -8.663   2.438  0.00  0.00    -0.281 N 
ATOM     31  H   UNL     1      -7.784  -9.099   2.228  0.00  0.00    +0.189 HD
ATOM     32  N   UNL     1      -5.963  -9.143   3.317  0.00  0.00    -0.179 NA
ATOM     33  C   UNL     1      -4.974  -8.286   3.334  0.00  0.00    +0.065 A 
ATOM     34  C   UNL     1      -3.709  -8.412   4.142  0.00  0.00    +0.068 C 
ATOM     35  C   UNL     1      -7.246  -6.620   0.947  0.00  0.00    +0.065 C 
ENDBRANCH  26  28
ENDBRANCH  24  26
ENDBRANCH   5  22
TORSDOF 4
