REMARK  Name = ZINC12431378
REMARK  12 active torsions:
REMARK  status: ('A' for Active; 'I' for Inactive)
REMARK    1  A    between atoms: C_1  and  C_2
REMARK    2  A    between atoms: C_5  and  C_9
REMARK    3  A    between atoms: C_6  and  C_8
REMARK    4  A    between atoms: N_11  and  C_12
REMARK    5  A    between atoms: N_11  and  C_18
REMARK    6  A    between atoms: C_12  and  C_13
REMARK    7  A    between atoms: C_13  and  C_14
REMARK    8  A    between atoms: C_14  and  N_15
REMARK    9  A    between atoms: N_15  and  C_16
REMARK   10  A    between atoms: N_15  and  C_17
REMARK   11  A    between atoms: C_18  and  C_19
REMARK   12  A    between atoms: N_22  and  C_25
REMARK                            x       y       z     vdW  Elec       q    Type
REMARK                         _______ _______ _______ _____ _____    ______ ____
ROOT
ATOM      1  C   UNL     1       0.075  -4.274  -0.015  0.00  0.00    +0.247 C 
ATOM      2  O   UNL     1       0.183  -4.876   1.036  0.00  0.00    -0.270 OA
ATOM      3  N   UNL     1      -0.008  -4.955  -1.175  0.00  0.00    -0.297 N 
ENDROOT
BRANCH   1   8
ATOM      4  C   UNL     1      -0.076   1.478  -0.035  0.00  0.00    +0.044 C 
ATOM      5  C   UNL     1      -0.037  -0.028  -0.029  0.00  0.00    -0.050 A 
ATOM      6  C   UNL     1      -1.059  -0.747  -0.624  0.00  0.00    +0.004 A 
ATOM      7  C   UNL     1      -1.029  -2.126  -0.623  0.00  0.00    +0.013 A 
ATOM      8  C   UNL     1       0.036  -2.797  -0.020  0.00  0.00    +0.040 A 
ATOM      9  C   UNL     1       1.064  -2.066   0.578  0.00  0.00    -0.038 A 
ATOM     10  C   UNL     1       1.024  -0.687   0.565  0.00  0.00    +0.007 A 
ATOM     11  C   UNL     1       2.219  -2.782   1.231  0.00  0.00    +0.044 C 
ENDBRANCH   1   8
BRANCH   3  12
ATOM     12  C   UNL     1      -0.014  -4.232  -2.449  0.00  0.00    +0.106 C 
BRANCH  12  13
ATOM     13  C   UNL     1       1.426  -3.954  -2.884  0.00  0.00    +0.000 C 
BRANCH  13  14
ATOM     14  C   UNL     1       1.420  -3.199  -4.215  0.00  0.00    -0.078 C 
BRANCH  14  15
ATOM     15  N   UNL     1       2.803  -2.931  -4.632  0.00  0.00    +0.376 N 
ATOM     16  C   UNL     1       2.801  -2.314  -5.965  0.00  0.00    -0.097 C 
ATOM     17  C   UNL     1       3.436  -2.019  -3.671  0.00  0.00    -0.097 C 
ATOM     18  H   UNL     1       3.318  -3.798  -4.664  0.00  0.00    -0.083 HD
ENDBRANCH  14  15
ENDBRANCH  13  14
ENDBRANCH  12  13
ENDBRANCH   3  12
BRANCH   3  19
ATOM     19  C   UNL     1      -0.093  -6.418  -1.162  0.00  0.00    +0.111 C 
BRANCH  19  20
ATOM     20  C   UNL     1      -1.562  -6.843  -1.103  0.00  0.00    +0.003 C 
ATOM     21  C   UNL     1      -2.171  -6.399   0.231  0.00  0.00    -0.014 C 
ATOM     22  C   UNL     1      -3.615  -6.896   0.317  0.00  0.00    -0.078 C 
ATOM     23  N   UNL     1      -3.638  -8.361   0.230  0.00  0.00    +0.382 N 
ATOM     24  C   UNL     1      -3.123  -8.791  -1.075  0.00  0.00    -0.078 C 
ATOM     25  C   UNL     1      -1.659  -8.367  -1.214  0.00  0.00    -0.014 C 
ATOM     26  H   UNL     1      -3.063  -8.749   0.962  0.00  0.00    -0.081 HD
BRANCH  23  27
ATOM     27  C   UNL     1      -5.019  -8.838   0.391  0.00  0.00    -0.060 C 
ATOM     28  C   UNL     1      -5.530  -8.565   1.821  0.00  0.00    +0.020 C 
ATOM     29  C   UNL     1      -6.418  -9.744   2.156  0.00  0.00    -0.046 A 
ATOM     30  C   UNL     1      -7.376  -9.894   3.145  0.00  0.00    +0.004 A 
ATOM     31  C   UNL     1      -8.073 -11.080   3.263  0.00  0.00    +0.000 A 
ATOM     32  C   UNL     1      -7.815 -12.122   2.392  0.00  0.00    +0.000 A 
ATOM     33  C   UNL     1      -6.860 -11.974   1.405  0.00  0.00    +0.004 A 
ATOM     34  C   UNL     1      -6.160 -10.785   1.285  0.00  0.00    -0.046 A 
ATOM     35  C   UNL     1      -5.081 -10.377   0.305  0.00  0.00    +0.020 C 
ENDBRANCH  23  27
ENDBRANCH  19  20
ENDBRANCH   3  19
TORSDOF 8
