REMARK  Name = ZINC08654247
REMARK  5 active torsions:
REMARK  status: ('A' for Active; 'I' for Inactive)
REMARK    1  A    between atoms: C_1  and  C_2
REMARK    2  A    between atoms: C_2  and  N_3
REMARK    3  A    between atoms: C_7  and  C_22
REMARK    4  A    between atoms: N_16  and  C_21
REMARK    5  A    between atoms: N_19  and  C_20
REMARK                            x       y       z     vdW  Elec       q    Type
REMARK                         _______ _______ _______ _____ _____    ______ ____
ROOT
ATOM      1  N   UNL     1      -1.284  -0.843  -0.044  0.00  0.00    -0.298 N 
ATOM      2  C   UNL     1      -1.873  -1.183   1.158  0.00  0.00    +0.041 A 
ATOM      3  C   UNL     1      -1.101  -1.388   2.296  0.00  0.00    +0.024 A 
ATOM      4  C   UNL     1      -1.709  -1.727   3.486  0.00  0.00    +0.005 A 
ATOM      5  C   UNL     1      -3.087  -1.867   3.563  0.00  0.00    -0.050 A 
ATOM      6  C   UNL     1      -3.871  -1.669   2.448  0.00  0.00    +0.013 A 
ATOM      7  C   UNL     1      -3.271  -1.324   1.233  0.00  0.00    -0.003 A 
ATOM      8  C   UNL     1      -4.077  -1.106   0.029  0.00  0.00    +0.011 C 
ATOM      9  C   UNL     1      -3.453  -0.774  -1.127  0.00  0.00    +0.026 C 
ATOM     10  C   UNL     1      -2.050  -0.635  -1.164  0.00  0.00    +0.061 C 
ATOM     11  C   UNL     1      -1.429  -0.287  -2.362  0.00  0.00    +0.120 C 
ATOM     12  C   UNL     1      -0.316  -0.910  -2.946  0.00  0.00    +0.268 C 
ATOM     13  O   UNL     1       0.296  -1.866  -2.497  0.00  0.00    -0.268 OA
ATOM     14  N   UNL     1      -0.047  -0.259  -4.094  0.00  0.00    -0.251 N 
ATOM     15  C   UNL     1      -0.931   0.739  -4.264  0.00  0.00    +0.146 C 
ATOM     16  S   UNL     1      -0.958   1.820  -5.591  0.00  0.00    -0.018 S 
ATOM     17  N   UNL     1      -1.796   0.755  -3.232  0.00  0.00    -0.280 N 
ATOM     18  C   UNL     1      -2.912   1.686  -3.048  0.00  0.00    +0.137 C 
ATOM     19  C   UNL     1       1.043  -0.588  -5.017  0.00  0.00    +0.140 C 
ATOM     20  C   UNL     1      -3.731  -2.239   4.874  0.00  0.00    +0.044 C 
ENDROOT
BRANCH   1  22
ATOM     21  C   UNL     1       0.573   0.690   0.385  0.00  0.00    +0.024 C 
ATOM     22  C   UNL     1       0.171  -0.696  -0.123  0.00  0.00    +0.108 C 
ENDBRANCH   1  22
TORSDOF 1
