REMARK  Name = ZINC43284736
REMARK  8 active torsions:
REMARK  status: ('A' for Active; 'I' for Inactive)
REMARK    1  A    between atoms: C_1  and  C_2
REMARK    2  A    between atoms: C_2  and  C_4
REMARK    3  A    between atoms: C_2  and  N_22
REMARK    4  A    between atoms: C_4  and  C_6
REMARK    5  A    between atoms: C_4  and  N_12
REMARK    6  A    between atoms: C_17  and  C_19
REMARK    7  A    between atoms: C_19  and  C_20
REMARK    8  A    between atoms: C_20  and  O_21
REMARK                            x       y       z     vdW  Elec       q    Type
REMARK                         _______ _______ _______ _____ _____    ______ ____
ROOT
ATOM      1  C   UNL     1       0.613  -0.252   1.224  0.00  0.00    +0.079 C 
ENDROOT
BRANCH   1   2
ATOM      2  C   UNL     1       1.056  -1.682   1.045  0.00  0.00    +0.006 A 
ATOM      3  C   UNL     1       2.132  -2.164   0.376  0.00  0.00    +0.028 A 
ATOM      4  C   UNL     1       2.343  -3.530   0.344  0.00  0.00    +0.025 A 
ATOM      5  C   UNL     1       1.468  -4.346   0.982  0.00  0.00    +0.060 A 
ATOM      6  S   UNL     1       0.304  -3.178   1.664  0.00  0.00    -0.099 S 
ATOM      7 BR   UNL     1       3.830  -4.250  -0.577  0.00  0.00    -0.050 Br
ENDBRANCH   1   2
BRANCH   1   8
ATOM      8  N   UNL     1       0.344   0.002   2.646  0.00  0.00    -0.294 NA
ATOM      9  C   UNL     1      -0.833  -0.748   3.101  0.00  0.00    +0.085 C 
ATOM     10  C   UNL     1      -1.169  -0.348   4.540  0.00  0.00    +0.015 C 
ATOM     11  C   UNL     1       0.031  -0.649   5.441  0.00  0.00    +0.003 C 
ATOM     12  C   UNL     1       1.255   0.106   4.917  0.00  0.00    +0.019 C 
ATOM     13  C   UNL     1       1.521  -0.307   3.468  0.00  0.00    +0.059 C 
BRANCH  13  14
ATOM     14  C   UNL     1       2.732   0.460   2.933  0.00  0.00    +0.046 C 
BRANCH  14  15
ATOM     15  C   UNL     1       3.976   0.075   3.737  0.00  0.00    +0.157 C 
BRANCH  15  16
ATOM     16  O   UNL     1       5.126   0.698   3.162  0.00  0.00    -0.395 OA
ATOM     17  H   UNL     1       5.953   0.497   3.622  0.00  0.00    +0.209 HD
ENDBRANCH  15  16
ENDBRANCH  14  15
ENDBRANCH  13  14
ENDBRANCH   1   8
BRANCH   1  19
ATOM     18  C   UNL     1      -1.110   1.444   0.594  0.00  0.00    -0.012 C 
ATOM     19  C   UNL     1      -0.660  -0.007   0.412  0.00  0.00    -0.056 C 
BRANCH  19  20
ATOM     20  N   UNL     1      -0.391  -0.262  -1.009  0.00  0.00    +0.381 N 
ATOM     21  H   UNL     1       0.337   0.359  -1.330  0.00  0.00    -0.090 HD
ATOM     22  H   UNL     1      -0.095  -1.219  -1.129  0.00  0.00    -0.090 HD
ATOM     23  H   UNL     1      -1.231  -0.100  -1.545  0.00  0.00    -0.090 HD
ENDBRANCH  19  20
ENDBRANCH   1  19
TORSDOF 7
