REMARK  Name = ZINC08185976
REMARK  6 active torsions:
REMARK  status: ('A' for Active; 'I' for Inactive)
REMARK    1  A    between atoms: C_1  and  C_2
REMARK    2  A    between atoms: C_2  and  C_4
REMARK    3  A    between atoms: C_2  and  N_49
REMARK    4  A    between atoms: N_6  and  C_7
REMARK    5  A    between atoms: C_8  and  C_15
REMARK    6  A    between atoms: C_21  and  C_23
REMARK                            x       y       z     vdW  Elec       q    Type
REMARK                         _______ _______ _______ _____ _____    ______ ____
ROOT
ATOM      1  C   UNL     1       2.881   5.777  -3.102  0.00  0.00    +0.204 C 
ATOM      2  O   UNL     1       3.958   5.433  -2.663  0.00  0.00    -0.277 OA
ATOM      3  N   UNL     1       2.773   6.179  -4.384  0.00  0.00    -0.281 N 
ATOM      4  H   UNL     1       1.912   6.455  -4.735  0.00  0.00    +0.155 HD
ENDROOT
BRANCH   3   5
ATOM      5  C   UNL     1       3.893   6.199  -5.201  0.00  0.00    +0.084 A 
ATOM      6  C   UNL     1       3.982   6.576  -6.530  0.00  0.00    +0.068 A 
ATOM      7  C   UNL     1       5.295   6.503  -7.169  0.00  0.00    -0.023 A 
ATOM      8  C   UNL     1       6.293   6.070  -6.376  0.00  0.00    -0.004 A 
ATOM      9  S   UNL     1       5.521   5.765  -4.806  0.00  0.00    -0.077 S 
ATOM     10  C   UNL     1       7.611   6.026  -7.101  0.00  0.00    +0.043 C 
ATOM     11  C   UNL     1       7.395   6.903  -8.354  0.00  0.00    +0.010 C 
ATOM     12  C   UNL     1       5.871   6.794  -8.556  0.00  0.00    +0.037 C 
BRANCH   6  13
ATOM     13  C   UNL     1       2.801   7.031  -7.271  0.00  0.00    +0.244 C 
ATOM     14  O   UNL     1       2.510   8.213  -7.285  0.00  0.00    -0.270 OA
ATOM     15  N   UNL     1       2.039   6.141  -7.938  0.00  0.00    -0.325 N 
ATOM     16  H   UNL     1       2.272   5.199  -7.927  0.00  0.00    +0.145 HD
ATOM     17  H   UNL     1       1.258   6.442  -8.428  0.00  0.00    +0.145 HD
ENDBRANCH   6  13
ENDBRANCH   3   5
BRANCH   1  19
ATOM     18  C   UNL     1       1.084   7.168  -2.111  0.00  0.00    -0.004 C 
ATOM     19  C   UNL     1       1.664   5.756  -2.214  0.00  0.00    +0.017 C 
BRANCH  19  24
ATOM     20  C   UNL     1       2.928   6.253  -0.204  0.00  0.00    -0.077 C 
ATOM     21  C   UNL     1       2.256   6.638   1.131  0.00  0.00    -0.020 C 
ATOM     22  C   UNL     1       1.308   5.440   1.403  0.00  0.00    -0.012 C 
ATOM     23  C   UNL     1       0.848   5.073  -0.030  0.00  0.00    -0.030 C 
ATOM     24  N   UNL     1       2.051   5.272  -0.863  0.00  0.00    +0.392 N 
ATOM     25  H   UNL     1       2.550   4.379  -0.958  0.00  0.00    -0.080 HD
BRANCH  23  26
ATOM     26  C   UNL     1       0.412   3.632  -0.088  0.00  0.00    -0.024 A 
ATOM     27  C   UNL     1      -0.842   3.121  -0.146  0.00  0.00    +0.009 A 
ATOM     28  C   UNL     1      -1.006   1.749  -0.199  0.00  0.00    +0.008 A 
ATOM     29  C   UNL     1       0.093   0.955  -0.180  0.00  0.00    +0.045 A 
ATOM     30  S   UNL     1       1.414   2.154  -0.100  0.00  0.00    -0.103 S 
ENDBRANCH  23  26
ENDBRANCH  19  24
ENDBRANCH   1  19
TORSDOF 5
