REMARK  Name = ZINC66924885
REMARK  5 active torsions:
REMARK  status: ('A' for Active; 'I' for Inactive)
REMARK    1  A    between atoms: C_5  and  C_7
REMARK    2  A    between atoms: C_7  and  C_8
REMARK    3  A    between atoms: N_10  and  N_11
REMARK    4  A    between atoms: N_14  and  C_15
REMARK    5  A    between atoms: C_15  and  C_16
REMARK                            x       y       z     vdW  Elec       q    Type
REMARK                         _______ _______ _______ _____ _____    ______ ____
ROOT
ATOM      1  N   UNL     1       1.612  -4.496   2.937  0.00  0.00    -0.218 N 
ATOM      2  C   UNL     1       1.625  -5.822   3.176  0.00  0.00    +0.316 C 
ATOM      3  O   UNL     1       1.722  -6.234   4.316  0.00  0.00    -0.251 OA
ATOM      4  N   UNL     1       1.532  -6.692   2.151  0.00  0.00    -0.294 N 
ATOM      5  H   UNL     1       1.679  -3.870   3.675  0.00  0.00    +0.174 HD
ATOM      6  H   UNL     1       1.456  -6.364   1.241  0.00  0.00    +0.151 HD
ENDROOT
BRANCH   1   9
ATOM      7  C   UNL     1       1.487  -2.695   1.385  0.00  0.00    +0.234 C 
ATOM      8  O   UNL     1       1.571  -1.912   2.307  0.00  0.00    -0.274 OA
ATOM      9  N   UNL     1       1.501  -4.022   1.623  0.00  0.00    -0.233 N 
ATOM     10  H   UNL     1       1.434  -4.648   0.886  0.00  0.00    +0.173 HD
BRANCH   7  11
ATOM     11  C   UNL     1       1.368  -2.185  -0.028  0.00  0.00    +0.135 C 
BRANCH  11  16
ATOM     12  C   UNL     1       0.191   1.402  -0.012  0.00  0.00    +0.000 A 
ATOM     13  C   UNL     1       1.391   2.088  -0.007  0.00  0.00    +0.003 A 
ATOM     14  C   UNL     1       2.585   1.392  -0.009  0.00  0.00    +0.038 A 
ATOM     15  C   UNL     1       2.579   0.007  -0.016  0.00  0.00    +0.127 A 
ATOM     16  C   UNL     1       1.376  -0.678  -0.021  0.00  0.00    -0.003 A 
ATOM     17  C   UNL     1       0.183   0.020  -0.019  0.00  0.00    +0.007 A 
ATOM     18  F   UNL     1       3.745  -0.674  -0.018  0.00  0.00    -0.205 F 
ENDBRANCH  11  16
ENDBRANCH   7  11
ENDBRANCH   1   9
BRANCH   4  19
ATOM     19  C   UNL     1       1.547  -8.134   2.410  0.00  0.00    +0.142 C 
BRANCH  19  20
ATOM     20  C   UNL     1       1.431  -8.880   1.106  0.00  0.00    -0.014 A 
ATOM     21  C   UNL     1       0.182  -9.217   0.600  0.00  0.00    +0.010 A 
ATOM     22  C   UNL     1       0.119  -9.902  -0.600  0.00  0.00    +0.042 A 
ATOM     23  C   UNL     1       1.303 -10.229  -1.255  0.00  0.00    +0.099 A 
ATOM     24  N   UNL     1       2.474  -9.891  -0.740  0.00  0.00    -0.349 N 
ATOM     25  C   UNL     1       2.564  -9.232   0.401  0.00  0.00    +0.089 A 
ATOM     26  N   UNL     1       1.254 -10.918  -2.462  0.00  0.00    -0.317 N 
ATOM     27  C   UNL     1       2.480 -11.159  -3.235  0.00  0.00    +0.106 C 
ATOM     28  C   UNL     1       2.592 -12.659  -3.526  0.00  0.00    +0.019 C 
ATOM     29  C   UNL     1       1.310 -13.139  -4.212  0.00  0.00    +0.003 C 
ATOM     30  C   UNL     1       0.117 -12.915  -3.281  0.00  0.00    +0.019 C 
ATOM     31  C   UNL     1      -0.022 -11.423  -2.985  0.00  0.00    +0.106 C 
ATOM     32  H   UNL     1       3.286 -10.129  -1.213  0.00  0.00    +0.167 HD
ENDBRANCH  19  20
ENDBRANCH   4  19
TORSDOF 5
