REMARK  Name = ZINC54266362
REMARK  7 active torsions:
REMARK  status: ('A' for Active; 'I' for Inactive)
REMARK    1  A    between atoms: C_1  and  C_2
REMARK    2  A    between atoms: C_2  and  N_3
REMARK    3  A    between atoms: N_3  and  C_4
REMARK    4  A    between atoms: C_4  and  C_5
REMARK    5  A    between atoms: C_5  and  N_6
REMARK    6  A    between atoms: N_6  and  S_7
REMARK    7  A    between atoms: S_7  and  C_10
REMARK                            x       y       z     vdW  Elec       q    Type
REMARK                         _______ _______ _______ _____ _____    ______ ____
ROOT
ATOM      1  S   UNL     1       2.527  -4.751   3.415  0.00  0.00    +0.062 S 
ATOM      2  O   UNL     1       2.292  -6.135   3.197  0.00  0.00    -0.153 OA
ATOM      3  O   UNL     1       3.808  -4.160   3.247  0.00  0.00    -0.153 OA
ENDROOT
BRANCH   1   4
ATOM      4  C   UNL     1       2.030  -4.411   5.071  0.00  0.00    +0.154 A 
ATOM      5  C   UNL     1       2.561  -3.323   5.744  0.00  0.00    +0.153 A 
ATOM      6  C   UNL     1       2.170  -3.056   7.045  0.00  0.00    +0.078 A 
ATOM      7  C   UNL     1       1.249  -3.877   7.672  0.00  0.00    +0.127 A 
ATOM      8  C   UNL     1       0.719  -4.965   6.999  0.00  0.00    +0.055 A 
ATOM      9  C   UNL     1       1.106  -5.228   5.697  0.00  0.00    +0.050 A 
ATOM     10 BR   UNL     1       0.376  -6.709   4.775  0.00  0.00    -0.048 Br
ATOM     11  F   UNL     1       0.867  -3.618   8.942  0.00  0.00    -0.205 F 
ATOM     12  F   UNL     1       3.460  -2.522   5.131  0.00  0.00    -0.203 F 
ENDBRANCH   1   4
BRANCH   1  13
ATOM     13  N   UNL     1       1.492  -3.931   2.416  0.00  0.00    -0.192 NA
ATOM     14  H   UNL     1       0.899  -4.421   1.825  0.00  0.00    +0.148 HD
BRANCH  13  15
ATOM     15  C   UNL     1       1.472  -2.466   2.424  0.00  0.00    +0.087 C 
BRANCH  15  16
ATOM     16  C   UNL     1       0.733  -1.960   1.184  0.00  0.00    -0.066 C 
BRANCH  16  17
ATOM     17  N   UNL     1       0.713  -0.491   1.192  0.00  0.00    +0.380 N 
ATOM     18  H   UNL     1       1.659  -0.141   1.185  0.00  0.00    -0.086 HD
ATOM     19  H   UNL     1       0.240  -0.165   2.022  0.00  0.00    -0.086 HD
BRANCH  17  21
ATOM     20  C   UNL     1      -0.019   1.526   0.010  0.00  0.00    -0.017 C 
ATOM     21  C   UNL     1       0.002  -0.004   0.002  0.00  0.00    -0.086 C 
ENDBRANCH  17  21
ENDBRANCH  16  17
ENDBRANCH  15  16
ENDBRANCH  13  15
ENDBRANCH   1  13
TORSDOF 6
