REMARK  Name = ZINC39916064
REMARK  4 active torsions:
REMARK  status: ('A' for Active; 'I' for Inactive)
REMARK    1  A    between atoms: C_4  and  C_7
REMARK    2  A    between atoms: C_7  and  S_8
REMARK    3  A    between atoms: S_8  and  C_9
REMARK    4  A    between atoms: C_17  and  C_21
REMARK                            x       y       z     vdW  Elec       q    Type
REMARK                         _______ _______ _______ _____ _____    ______ ____
ROOT
ATOM      1  C   UNL     1       5.831  -1.891   1.472  0.00  0.00    +0.199 C 
ATOM      2  N   UNL     1       5.621  -3.148   0.707  0.00  0.00    -0.260 NA
ATOM      3  C   UNL     1       6.385  -2.979  -0.535  0.00  0.00    +0.231 C 
ATOM      4  N   UNL     1       7.030  -4.192  -1.030  0.00  0.00    -0.318 N 
ATOM      5  C   UNL     1       8.029  -4.007  -1.961  0.00  0.00    +0.014 C 
ATOM      6  C   UNL     1       8.589  -2.790  -2.148  0.00  0.00    +0.034 C 
ATOM      7  C   UNL     1       8.157  -1.587  -1.329  0.00  0.00    +0.139 C 
ATOM      8  N   UNL     1       7.489  -2.058  -0.128  0.00  0.00    -0.196 NA
ATOM      9  N   UNL     1       6.783  -1.068   0.675  0.00  0.00    -0.224 NA
ATOM     10  C   UNL     1       9.599  -2.599  -3.104  0.00  0.00    +0.163 C 
ATOM     11  O   UNL     1      10.076  -1.491  -3.255  0.00  0.00    -0.292 OA
ATOM     12  C   UNL     1      10.099  -3.741  -3.946  0.00  0.00    +0.080 C 
ATOM     13  C   UNL     1       9.940  -5.046  -3.160  0.00  0.00    +0.014 C 
ATOM     14  C   UNL     1       8.468  -5.201  -2.769  0.00  0.00    +0.051 C 
ATOM     15  H   UNL     1       5.951  -3.947   1.228  0.00  0.00    +0.127 HD
ATOM     16  H   UNL     1       6.771  -5.074  -0.721  0.00  0.00    +0.149 HD
ATOM     17  H   UNL     1       6.290  -0.412   0.088  0.00  0.00    +0.143 HD
ENDROOT
BRANCH   7  18
ATOM     18  C   UNL     1       9.364  -0.766  -0.955  0.00  0.00    -0.026 C 
ATOM     19  C   UNL     1       9.640   0.478  -1.343  0.00  0.00    +0.020 C 
ATOM     20  C   UNL     1      10.910   0.903  -0.753  0.00  0.00    +0.078 C 
ATOM     21  N   UNL     1      11.418  -0.033  -0.022  0.00  0.00    -0.386 N 
ATOM     22  C   UNL     1      10.508  -1.185  -0.058  0.00  0.00    +0.145 C 
ATOM     23  H   UNL     1      12.254   0.018   0.468  0.00  0.00    +0.159 HD
ENDBRANCH   7  18
BRANCH   1  24
ATOM     24  S   UNL     1       4.257  -1.011   1.666  0.00  0.00    -0.121 S 
BRANCH  24  25
ATOM     25  C   UNL     1       3.711  -0.707  -0.038  0.00  0.00    +0.107 C 
BRANCH  25  29
ATOM     26  C   UNL     1      -0.017   1.378   0.010  0.00  0.00    +0.000 A 
ATOM     27  C   UNL     1       1.171   2.086   0.002  0.00  0.00    +0.000 A 
ATOM     28  C   UNL     1       2.377   1.411  -0.013  0.00  0.00    +0.004 A 
ATOM     29  C   UNL     1       2.396   0.029  -0.020  0.00  0.00    -0.037 A 
ATOM     30  C   UNL     1       1.208  -0.679  -0.012  0.00  0.00    +0.004 A 
ATOM     31  C   UNL     1       0.002  -0.004   0.002  0.00  0.00    +0.000 A 
ENDBRANCH  25  29
ENDBRANCH  24  25
ENDBRANCH   1  24
TORSDOF 4
