REMARK  Name = ZINC44533624
REMARK  8 active torsions:
REMARK  status: ('A' for Active; 'I' for Inactive)
REMARK    1  A    between atoms: C_1  and  C_2
REMARK    2  A    between atoms: C_2  and  C_4
REMARK    3  A    between atoms: C_2  and  N_14
REMARK    4  A    between atoms: C_7  and  S_10
REMARK    5  A    between atoms: S_10  and  N_13
REMARK    6  A    between atoms: N_14  and  C_15
REMARK    7  A    between atoms: C_15  and  C_16
REMARK    8  A    between atoms: N_21  and  C_23
REMARK                            x       y       z     vdW  Elec       q    Type
REMARK                         _______ _______ _______ _____ _____    ______ ____
ROOT
ATOM      1  C   UNL     1      -0.019   1.526   0.010  0.00  0.00    +0.029 C 
ATOM      2  C   UNL     1       0.002  -0.004   0.002  0.00  0.00    +0.081 C 
ENDROOT
BRANCH   2   3
ATOM      3  C   UNL     1       0.731  -0.503   1.223  0.00  0.00    -0.031 A 
ATOM      4  C   UNL     1       2.113  -0.514   1.247  0.00  0.00    +0.007 A 
ATOM      5  C   UNL     1       2.782  -0.972   2.366  0.00  0.00    +0.029 A 
ATOM      6  C   UNL     1       2.068  -1.419   3.463  0.00  0.00    +0.105 A 
ATOM      7  C   UNL     1       0.686  -1.407   3.439  0.00  0.00    +0.029 A 
ATOM      8  C   UNL     1       0.017  -0.945   2.321  0.00  0.00    +0.007 A 
BRANCH   6   9
ATOM      9  S   UNL     1       2.920  -2.003   4.890  0.00  0.00    +0.056 S 
ATOM     10  O   UNL     1       2.026  -2.874   5.569  0.00  0.00    -0.153 OA
ATOM     11  O   UNL     1       4.206  -2.422   4.452  0.00  0.00    -0.153 OA
BRANCH   9  12
ATOM     12  N   UNL     1       3.159  -0.702   5.885  0.00  0.00    -0.204 NA
ATOM     13  H   UNL     1       3.198  -0.827   6.846  0.00  0.00    +0.144 HD
ATOM     14  H   UNL     1       3.261   0.186   5.507  0.00  0.00    +0.144 HD
ENDBRANCH   9  12
ENDBRANCH   6   9
ENDBRANCH   2   3
BRANCH   2  15
ATOM     15  N   UNL     1       0.690  -0.478  -1.207  0.00  0.00    -0.309 NA
ATOM     16  H   UNL     1       1.485   0.104  -1.422  0.00  0.00    +0.123 HD
BRANCH  15  17
ATOM     17  C   UNL     1      -0.235  -0.547  -2.346  0.00  0.00    +0.083 C 
BRANCH  17  18
ATOM     18  C   UNL     1       0.515  -1.043  -3.583  0.00  0.00    -0.014 C 
ATOM     19  C   UNL     1       1.574  -0.013  -3.986  0.00  0.00    +0.001 C 
ATOM     20  C   UNL     1       2.266  -0.482  -5.269  0.00  0.00    -0.018 C 
ATOM     21  C   UNL     1       1.215  -0.691  -6.362  0.00  0.00    -0.079 C 
ATOM     22  N   UNL     1       0.247  -1.705  -5.927  0.00  0.00    +0.378 N 
ATOM     23  C   UNL     1      -0.471  -1.232  -4.737  0.00  0.00    -0.075 C 
ATOM     24  C   UNL     1      -0.714  -1.958  -7.009  0.00  0.00    -0.096 C 
ATOM     25  H   UNL     1       0.735  -2.560  -5.706  0.00  0.00    -0.082 HD
ENDBRANCH  17  18
ENDBRANCH  15  17
ENDBRANCH   2  15
TORSDOF 6
