REMARK  Name = ZINC54804950
REMARK  12 active torsions:
REMARK  status: ('A' for Active; 'I' for Inactive)
REMARK    1  A    between atoms: C_1  and  C_2
REMARK    2  A    between atoms: C_4  and  C_29
REMARK    3  A    between atoms: C_5  and  N_9
REMARK    4  A    between atoms: C_6  and  C_8
REMARK    5  A    between atoms: C_10  and  C_12
REMARK    6  A    between atoms: C_12  and  N_13
REMARK    7  A    between atoms: N_16  and  C_17
REMARK    8  A    between atoms: C_17  and  C_18
REMARK    9  A    between atoms: C_18  and  C_19
REMARK   10  A    between atoms: C_18  and  C_20
REMARK   11  A    between atoms: C_18  and  N_21
REMARK   12  A    between atoms: C_25  and  C_28
REMARK                            x       y       z     vdW  Elec       q    Type
REMARK                         _______ _______ _______ _____ _____    ______ ____
ROOT
ATOM      1  N   UNL     1       0.536  -6.934   2.503  0.00  0.00    -0.291 N 
ATOM      2  C   UNL     1       0.796  -8.252   2.602  0.00  0.00    +0.300 C 
ATOM      3  O   UNL     1       0.587  -8.986   1.654  0.00  0.00    -0.253 OA
ATOM      4  N   UNL     1       1.288  -8.758   3.750  0.00  0.00    -0.301 N 
ATOM      5  H   UNL     1       0.703  -6.349   3.259  0.00  0.00    +0.151 HD
ATOM      6  H   UNL     1       1.454  -8.174   4.506  0.00  0.00    +0.150 HD
ENDROOT
BRANCH   1   7
ATOM      7  C   UNL     1       0.002  -6.383   1.255  0.00  0.00    +0.202 C 
BRANCH   7   9
ATOM      8  N   UNL     1      -0.685  -4.175   0.377  0.00  0.00    -0.284 N 
ATOM      9  C   UNL     1      -0.199  -4.898   1.406  0.00  0.00    +0.234 C 
ATOM     10  O   UNL     1       0.078  -4.352   2.453  0.00  0.00    -0.274 OA
ATOM     11  H   UNL     1      -0.984  -4.622  -0.430  0.00  0.00    +0.155 HD
BRANCH   8  16
ATOM     12  C   UNL     1      -0.982   1.477   0.768  0.00  0.00    +0.044 C 
ATOM     13  C   UNL     1      -0.903  -0.025   0.664  0.00  0.00    -0.050 A 
ATOM     14  C   UNL     1      -0.196  -0.608  -0.371  0.00  0.00    +0.008 A 
ATOM     15  C   UNL     1      -0.121  -1.984  -0.469  0.00  0.00    -0.029 A 
ATOM     16  C   UNL     1      -0.757  -2.781   0.474  0.00  0.00    +0.039 A 
ATOM     17  C   UNL     1      -1.467  -2.192   1.512  0.00  0.00    -0.029 A 
ATOM     18  C   UNL     1      -1.533  -0.816   1.607  0.00  0.00    +0.008 A 
ATOM     19  C   UNL     1      -2.159  -3.053   2.537  0.00  0.00    +0.045 C 
ATOM     20  C   UNL     1       0.649  -2.619  -1.597  0.00  0.00    +0.045 C 
ENDBRANCH   8  16
ENDBRANCH   7   9
ENDBRANCH   1   7
BRANCH   4  21
ATOM     21  C   UNL     1       1.570 -10.192   3.857  0.00  0.00    +0.093 C 
BRANCH  21  22
ATOM     22  C   UNL     1       2.232 -10.482   5.206  0.00  0.00    -0.055 C 
ATOM     23  C   UNL     1       1.252 -10.156   6.335  0.00  0.00    -0.008 C 
ATOM     24  C   UNL     1       2.617 -11.961   5.277  0.00  0.00    -0.008 C 
BRANCH  22  25
ATOM     25  N   UNL     1       3.437  -9.654   5.348  0.00  0.00    +0.384 N 
ATOM     26  C   UNL     1       4.345  -9.917   4.225  0.00  0.00    -0.078 C 
ATOM     27  C   UNL     1       5.564  -8.998   4.325  0.00  0.00    -0.018 C 
ATOM     28  C   UNL     1       6.292  -9.267   5.646  0.00  0.00    -0.001 C 
ATOM     29  C   UNL     1       5.315  -9.062   6.807  0.00  0.00    -0.031 C 
ATOM     30  C   UNL     1       4.104  -9.978   6.615  0.00  0.00    -0.075 C 
ATOM     31  C   UNL     1       6.011  -9.403   8.126  0.00  0.00    +0.005 C 
ATOM     32  H   UNL     1       3.176  -8.679   5.347  0.00  0.00    -0.081 HD
ENDBRANCH  22  25
ENDBRANCH  21  22
ENDBRANCH   4  21
TORSDOF 6
