REMARK  Name = ZINC20690047
REMARK  10 active torsions:
REMARK  status: ('A' for Active; 'I' for Inactive)
REMARK    1  A    between atoms: C_1  and  C_2
REMARK    2  A    between atoms: C_2  and  C_4
REMARK    3  A    between atoms: C_2  and  N_16
REMARK    4  A    between atoms: N_6  and  C_7
REMARK    5  A    between atoms: C_10  and  C_13
REMARK    6  A    between atoms: C_13  and  C_15
REMARK    7  A    between atoms: N_19  and  C_22
REMARK    8  A    between atoms: C_22  and  C_23
REMARK    9  A    between atoms: N_25  and  C_26
REMARK   10  A    between atoms: C_31  and  C_32
REMARK                            x       y       z     vdW  Elec       q    Type
REMARK                         _______ _______ _______ _____ _____    ______ ____
ROOT
ATOM      1  N   UNL     1       5.051   0.980   0.855  0.00  0.00    -0.295 NA
ATOM      2  C   UNL     1       5.519   1.661  -0.360  0.00  0.00    +0.066 C 
ATOM      3  C   UNL     1       4.877   3.048  -0.444  0.00  0.00    -0.063 C 
ATOM      4  N   UNL     1       3.414   2.908  -0.452  0.00  0.00    +0.387 N 
ATOM      5  C   UNL     1       2.946   2.226   0.763  0.00  0.00    -0.063 C 
ATOM      6  C   UNL     1       3.589   0.840   0.847  0.00  0.00    +0.066 C 
ATOM      7  H   UNL     1       3.137   2.288  -1.317  0.00  0.00    -0.081 HD
ENDROOT
BRANCH   1   9
ATOM      8  C   UNL     1       5.210  -0.995   2.295  0.00  0.00    +0.034 C 
ATOM      9  C   UNL     1       5.705  -0.327   1.010  0.00  0.00    +0.140 C 
BRANCH   9  10
ATOM     10  C   UNL     1       5.369  -1.200  -0.171  0.00  0.00    +0.234 C 
ATOM     11  O   UNL     1       4.582  -0.811  -1.008  0.00  0.00    -0.274 OA
ATOM     12  N   UNL     1       5.944  -2.413  -0.297  0.00  0.00    -0.284 N 
ATOM     13  H   UNL     1       6.719  -2.731   0.414  0.00  0.00    +0.155 HD
BRANCH  12  14
ATOM     14  C   UNL     1       5.554  -3.264  -1.330  0.00  0.00    +0.033 A 
ATOM     15  C   UNL     1       6.500  -4.069  -1.959  0.00  0.00    +0.024 A 
ATOM     16  C   UNL     1       6.120  -4.911  -2.972  0.00  0.00    +0.013 A 
ATOM     17  C   UNL     1       4.782  -4.953  -3.381  0.00  0.00    +0.017 A 
ATOM     18  C   UNL     1       3.835  -4.137  -2.749  0.00  0.00    +0.013 A 
ATOM     19  C   UNL     1       4.223  -3.301  -1.733  0.00  0.00    +0.024 A 
BRANCH  17  20
ATOM     20  C   UNL     1       4.372  -5.850  -4.469  0.00  0.00    +0.160 C 
ATOM     21  O   UNL     1       3.212  -5.885  -4.821  0.00  0.00    -0.292 OA
ATOM     22  C   UNL     1       5.392  -6.727  -5.147  0.00  0.00    +0.091 C 
ENDBRANCH  17  20
ENDBRANCH  12  14
ENDBRANCH   9  10
ENDBRANCH   1   9
BRANCH   4  23
ATOM     23  C   UNL     1       2.761   4.214  -0.608  0.00  0.00    +0.019 C 
BRANCH  23  24
ATOM     24  C   UNL     1       1.289   4.013  -0.858  0.00  0.00    +0.201 C 
ATOM     25  O   UNL     1       0.829   2.892  -0.902  0.00  0.00    -0.278 OA
ATOM     26  N   UNL     1       0.484   5.079  -1.038  0.00  0.00    -0.287 N 
ATOM     27  H   UNL     1       0.886   6.097  -0.926  0.00  0.00    +0.155 HD
BRANCH  26  28
ATOM     28  C   UNL     1      -0.863   4.892  -1.366  0.00  0.00    +0.045 A 
ATOM     29  C   UNL     1      -1.547   3.780  -0.891  0.00  0.00    +0.024 A 
ATOM     30  C   UNL     1      -2.877   3.600  -1.214  0.00  0.00    +0.002 A 
ATOM     31  C   UNL     1      -3.526   4.520  -2.018  0.00  0.00    +0.001 A 
ATOM     32  C   UNL     1      -2.847   5.625  -2.496  0.00  0.00    +0.014 A 
ATOM     33  C   UNL     1      -1.517   5.813  -2.173  0.00  0.00    +0.076 A 
BRANCH  33  34
ATOM     34  C   UNL     1      -0.777   7.017  -2.696  0.00  0.00    +0.419 C 
ATOM     35  F   UNL     1      -1.641   7.792  -3.478  0.00  0.00    -0.166 F 
ATOM     36  F   UNL     1      -0.311   7.781  -1.620  0.00  0.00    -0.166 F 
ATOM     37  F   UNL     1       0.307   6.597  -3.474  0.00  0.00    -0.166 F 
ENDBRANCH  33  34
ENDBRANCH  26  28
ENDBRANCH  23  24
ENDBRANCH   4  23
TORSDOF 8
