REMARK  Name = ZINC52803798
REMARK  7 active torsions:
REMARK  status: ('A' for Active; 'I' for Inactive)
REMARK    1  A    between atoms: C_3  and  N_11
REMARK    2  A    between atoms: C_5  and  S_7
REMARK    3  A    between atoms: S_7  and  N_10
REMARK    4  A    between atoms: C_12  and  C_14
REMARK    5  A    between atoms: C_14  and  C_15
REMARK    6  A    between atoms: C_15  and  N_16
REMARK    7  A    between atoms: C_20  and  C_22
REMARK                            x       y       z     vdW  Elec       q    Type
REMARK                         _______ _______ _______ _____ _____    ______ ____
ROOT
ATOM      1  N   UNL     1       3.584   2.123  -0.021  0.00  0.00    -0.285 N 
ATOM      2  C   UNL     1       3.569   3.468  -0.116  0.00  0.00    +0.215 C 
ATOM      3  O   UNL     1       2.513   4.065  -0.103  0.00  0.00    -0.276 OA
ATOM      4  H   UNL     1       4.429   1.652   0.045  0.00  0.00    +0.155 HD
ENDROOT
BRANCH   1   7
ATOM      5  C   UNL     1       0.112   1.159  -0.752  0.00  0.00    +0.004 A 
ATOM      6  C   UNL     1       1.298   1.867  -0.756  0.00  0.00    +0.023 A 
ATOM      7  C   UNL     1       2.381   1.409  -0.019  0.00  0.00    +0.035 A 
ATOM      8  C   UNL     1       2.269   0.238   0.720  0.00  0.00    +0.051 A 
ATOM      9  C   UNL     1       1.081  -0.466   0.720  0.00  0.00    +0.107 A 
ATOM     10  C   UNL     1       0.003  -0.006  -0.015  0.00  0.00    +0.028 A 
BRANCH   9  11
ATOM     11  S   UNL     1       0.937  -1.951   1.657  0.00  0.00    +0.056 S 
ATOM     12  O   UNL     1      -0.102  -2.711   1.056  0.00  0.00    -0.153 OA
ATOM     13  O   UNL     1       2.255  -2.457   1.820  0.00  0.00    -0.153 OA
BRANCH  11  14
ATOM     14  N   UNL     1       0.402  -1.528   3.166  0.00  0.00    -0.204 NA
ATOM     15  H   UNL     1      -0.141  -2.147   3.679  0.00  0.00    +0.144 HD
ATOM     16  H   UNL     1       0.633  -0.662   3.537  0.00  0.00    +0.144 HD
ENDBRANCH  11  14
ENDBRANCH   9  11
ENDBRANCH   1   7
BRANCH   2  17
ATOM     17  C   UNL     1       4.863   4.229  -0.238  0.00  0.00    +0.077 C 
BRANCH  17  18
ATOM     18  C   UNL     1       4.567   5.728  -0.329  0.00  0.00    -0.069 C 
BRANCH  18  19
ATOM     19  N   UNL     1       5.829   6.470  -0.449  0.00  0.00    +0.385 N 
ATOM     20  C   UNL     1       6.480   6.142  -1.735  0.00  0.00    -0.078 C 
ATOM     21  C   UNL     1       6.042   7.272  -2.699  0.00  0.00    -0.020 C 
ATOM     22  C   UNL     1       6.043   8.505  -1.758  0.00  0.00    -0.013 C 
ATOM     23  C   UNL     1       5.557   7.919  -0.416  0.00  0.00    -0.037 C 
ATOM     24  H   UNL     1       6.443   6.222   0.313  0.00  0.00    -0.081 HD
BRANCH  23  25
ATOM     25  C   UNL     1       6.309   8.556   0.724  0.00  0.00    -0.054 A 
ATOM     26  C   UNL     1       5.716   9.540   1.492  0.00  0.00    +0.009 A 
ATOM     27  C   UNL     1       6.420  10.092   2.511  0.00  0.00    +0.045 A 
ATOM     28  S   UNL     1       7.972   9.216   2.405  0.00  0.00    -0.105 S 
ATOM     29  C   UNL     1       7.575   8.168   1.015  0.00  0.00    +0.047 A 
ENDBRANCH  23  25
ENDBRANCH  18  19
ENDBRANCH  17  18
ENDBRANCH   2  17
TORSDOF 7
