REMARK  Name = ZINC64055366
REMARK  8 active torsions:
REMARK  status: ('A' for Active; 'I' for Inactive)
REMARK    1  A    between atoms: C_1  and  C_2
REMARK    2  A    between atoms: C_2  and  C_4
REMARK    3  A    between atoms: C_2  and  S_21
REMARK    4  A    between atoms: N_6  and  C_7
REMARK    5  A    between atoms: C_10  and  S_13
REMARK    6  A    between atoms: S_13  and  N_16
REMARK    7  A    between atoms: S_21  and  C_22
REMARK    8  A    between atoms: C_26  and  C_28
REMARK                            x       y       z     vdW  Elec       q    Type
REMARK                         _______ _______ _______ _____ _____    ______ ____
ROOT
ATOM      1  C   UNL     1      -0.007   1.532   0.016  0.00  0.00    +0.029 C 
ATOM      2  C   UNL     1       0.003   0.002   0.004  0.00  0.00    +0.134 C 
ENDROOT
BRANCH   2   3
ATOM      3  C   UNL     1       0.730  -0.505   1.222  0.00  0.00    +0.230 C 
ATOM      4  O   UNL     1       1.909  -0.785   1.153  0.00  0.00    -0.274 OA
ATOM      5  N   UNL     1       0.071  -0.647   2.389  0.00  0.00    -0.285 N 
ATOM      6  H   UNL     1      -0.852  -0.361   2.463  0.00  0.00    +0.155 HD
BRANCH   5   7
ATOM      7  C   UNL     1       0.720  -1.209   3.495  0.00  0.00    +0.034 A 
ATOM      8  C   UNL     1       0.015  -2.013   4.381  0.00  0.00    +0.025 A 
ATOM      9  C   UNL     1       0.658  -2.566   5.471  0.00  0.00    +0.030 A 
ATOM     10  C   UNL     1       2.002  -2.319   5.681  0.00  0.00    +0.106 A 
ATOM     11  C   UNL     1       2.707  -1.518   4.801  0.00  0.00    +0.030 A 
ATOM     12  C   UNL     1       2.071  -0.968   3.706  0.00  0.00    +0.025 A 
BRANCH  10  13
ATOM     13  S   UNL     1       2.819  -3.026   7.073  0.00  0.00    +0.061 S 
ATOM     14  O   UNL     1       3.943  -2.201   7.346  0.00  0.00    -0.153 OA
ATOM     15  O   UNL     1       1.814  -3.289   8.043  0.00  0.00    -0.153 OA
BRANCH  13  16
ATOM     16  N   UNL     1       3.414  -4.496   6.597  0.00  0.00    -0.177 NA
ATOM     17  C   UNL     1       2.699  -5.778   6.679  0.00  0.00    +0.109 C 
ATOM     18  C   UNL     1       3.652  -6.869   6.149  0.00  0.00    +0.018 C 
ATOM     19  C   UNL     1       5.052  -6.224   6.326  0.00  0.00    +0.018 C 
ATOM     20  C   UNL     1       4.748  -4.735   6.015  0.00  0.00    +0.109 C 
ENDBRANCH  13  16
ENDBRANCH  10  13
ENDBRANCH   5   7
ENDBRANCH   2   3
BRANCH   2  21
ATOM     21  S   UNL     1       0.847  -0.585  -1.491  0.00  0.00    -0.084 S 
BRANCH  21  22
ATOM     22  C   UNL     1      -0.223  -0.026  -2.846  0.00  0.00    +0.340 C 
ATOM     23  N   UNL     1      -0.380   1.438  -2.807  0.00  0.00    -0.219 N 
ATOM     24  N   UNL     1      -1.752   1.664  -2.622  0.00  0.00    -0.145 NA
ATOM     25  C   UNL     1      -2.389   0.525  -2.552  0.00  0.00    +0.238 C 
ATOM     26  O   UNL     1      -1.552  -0.537  -2.678  0.00  0.00    -0.443 OA
ATOM     27  H   UNL     1       0.319   2.106  -2.890  0.00  0.00    +0.173 HD
BRANCH  25  28
ATOM     28  C   UNL     1      -3.775   0.413  -2.370  0.00  0.00    +0.043 C 
ATOM     29  C   UNL     1      -4.696   1.454  -2.241  0.00  0.00    +0.008 A 
ATOM     30  C   UNL     1      -4.555   2.858  -2.249  0.00  0.00    +0.010 A 
ATOM     31  C   UNL     1      -5.651   3.646  -2.099  0.00  0.00    +0.001 A 
ATOM     32  C   UNL     1      -6.926   3.101  -1.935  0.00  0.00    +0.002 A 
ATOM     33  C   UNL     1      -7.135   1.761  -1.918  0.00  0.00    +0.026 A 
ATOM     34  C   UNL     1      -6.038   0.874  -2.069  0.00  0.00    +0.043 A 
ATOM     35  N   UNL     1      -5.977  -0.443  -2.087  0.00  0.00    -0.380 N 
ATOM     36  C   UNL     1      -4.585  -0.861  -2.279  0.00  0.00    +0.154 C 
ATOM     37  H   UNL     1      -6.735  -1.041  -1.992  0.00  0.00    +0.160 HD
ENDBRANCH  25  28
ENDBRANCH  21  22
ENDBRANCH   2  21
TORSDOF 7
