REMARK  Name = ZINC39631271
REMARK  11 active torsions:
REMARK  status: ('A' for Active; 'I' for Inactive)
REMARK    1  A    between atoms: C_1  and  C_2
REMARK    2  A    between atoms: C_2  and  C_4
REMARK    3  A    between atoms: C_2  and  N_11
REMARK    4  A    between atoms: C_4  and  C_5
REMARK    5  A    between atoms: C_5  and  C_6
REMARK    6  A    between atoms: C_6  and  C_7
REMARK    7  A    between atoms: C_7  and  C_8
REMARK    8  A    between atoms: C_7  and  C_9
REMARK    9  A    between atoms: C_7  and  O_10
REMARK   10  A    between atoms: C_12  and  C_14
REMARK   11  A    between atoms: C_25  and  C_27
REMARK                            x       y       z     vdW  Elec       q    Type
REMARK                         _______ _______ _______ _____ _____    ______ ____
ROOT
ATOM      1  C   UNL     1       2.625  -1.016   2.854  0.00  0.00    +0.100 C 
ATOM      2  C   UNL     1       2.530  -2.552   2.991  0.00  0.00    +0.121 C 
ATOM      3  N   UNL     1       3.872  -3.046   2.603  0.00  0.00    -0.296 N 
ATOM      4  C   UNL     1       4.812  -2.064   3.194  0.00  0.00    +0.115 C 
ATOM      5  C   UNL     1       4.124  -0.699   2.992  0.00  0.00    -0.004 C 
ATOM      6  C   UNL     1       4.366   0.199   4.201  0.00  0.00    -0.010 C 
ATOM      7  C   UNL     1       5.854   0.547   4.283  0.00  0.00    -0.082 C 
ATOM      8  N   UNL     1       6.267   1.231   3.051  0.00  0.00    +0.379 N 
ATOM      9  C   UNL     1       6.119   0.327   1.904  0.00  0.00    -0.082 C 
ATOM     10  C   UNL     1       4.641  -0.031   1.721  0.00  0.00    -0.010 C 
ATOM     11  C   UNL     1       4.171  -4.142   1.877  0.00  0.00    +0.252 C 
ATOM     12  O   UNL     1       5.332  -4.468   1.718  0.00  0.00    -0.270 OA
ATOM     13  H   UNL     1       5.691   2.047   2.911  0.00  0.00    -0.086 HD
ATOM     14  H   UNL     1       7.232   1.514   3.132  0.00  0.00    -0.086 HD
ENDROOT
BRANCH  11  15
ATOM     15  C   UNL     1       3.090  -4.945   1.275  0.00  0.00    +0.107 A 
ATOM     16  C   UNL     1       2.710  -4.731  -0.054  0.00  0.00    +0.138 A 
ATOM     17  C   UNL     1       1.697  -5.489  -0.611  0.00  0.00    +0.039 A 
ATOM     18  C   UNL     1       1.058  -6.456   0.143  0.00  0.00    +0.006 A 
ATOM     19  C   UNL     1       1.426  -6.674   1.459  0.00  0.00    +0.039 A 
ATOM     20  C   UNL     1       2.442  -5.930   2.029  0.00  0.00    +0.138 A 
ATOM     21  F   UNL     1       2.804  -6.149   3.312  0.00  0.00    -0.205 F 
ATOM     22  F   UNL     1       3.333  -3.786  -0.792  0.00  0.00    -0.205 F 
ENDBRANCH  11  15
BRANCH   1  24
ATOM     23  N   UNL     1       1.643   0.673   1.338  0.00  0.00    -0.312 N 
ATOM     24  C   UNL     1       2.118  -0.577   1.505  0.00  0.00    +0.218 C 
ATOM     25  O   UNL     1       2.136  -1.349   0.570  0.00  0.00    -0.275 OA
ATOM     26  H   UNL     1       1.701   1.315   2.063  0.00  0.00    +0.149 HD
BRANCH  23  28
ATOM     27  C   UNL     1       2.140   1.500  -0.910  0.00  0.00    +0.028 C 
ATOM     28  C   UNL     1       1.040   1.063   0.061  0.00  0.00    +0.070 C 
BRANCH  28  29
ATOM     29  C   UNL     1       0.070   2.224   0.288  0.00  0.00    +0.022 C 
BRANCH  29  30
ATOM     30  C   UNL     1      -1.086   1.756   1.175  0.00  0.00    +0.005 C 
BRANCH  30  31
ATOM     31  C   UNL     1      -2.119   2.878   1.301  0.00  0.00    +0.034 C 
BRANCH  31  32
ATOM     32  C   UNL     1      -3.314   2.381   2.116  0.00  0.00    +0.061 C 
ATOM     33  C   UNL     1      -2.838   1.935   3.500  0.00  0.00    +0.041 C 
ATOM     34  C   UNL     1      -4.333   3.512   2.268  0.00  0.00    +0.041 C 
BRANCH  32  35
ATOM     35  O   UNL     1      -3.924   1.277   1.443  0.00  0.00    -0.389 OA
ATOM     36  H   UNL     1      -4.250   1.488   0.558  0.00  0.00    +0.210 HD
ENDBRANCH  32  35
ENDBRANCH  31  32
ENDBRANCH  30  31
ENDBRANCH  29  30
ENDBRANCH  28  29
ENDBRANCH  23  28
ENDBRANCH   1  24
TORSDOF 8
