REMARK  Name = ZINC00229724
REMARK  3 active torsions:
REMARK  status: ('A' for Active; 'I' for Inactive)
REMARK    1  A    between atoms: C_14  and  C_15
REMARK    2  A    between atoms: N_17  and  N_18
REMARK    3  A    between atoms: C_19  and  C_20
REMARK                            x       y       z     vdW  Elec       q    Type
REMARK                         _______ _______ _______ _____ _____    ______ ____
ROOT
ATOM      1  C   UNL     1      -7.744  13.662   0.191  0.00  0.00    +0.000 A 
ATOM      2  C   UNL     1      -8.647  12.647   0.453  0.00  0.00    +0.001 A 
ATOM      3  C   UNL     1      -8.236  11.329   0.400  0.00  0.00    +0.010 A 
ATOM      4  C   UNL     1      -6.915  11.035   0.085  0.00  0.00    +0.003 A 
ATOM      5  C   UNL     1      -6.008  12.059  -0.210  0.00  0.00    -0.038 A 
ATOM      6  C   UNL     1      -6.434  13.371  -0.141  0.00  0.00    +0.004 A 
ATOM      7  C   UNL     1      -4.591  11.749  -0.606  0.00  0.00    +0.040 C 
ATOM      8  C   UNL     1      -4.031  10.526   0.119  0.00  0.00    +0.044 C 
ATOM      9  C   UNL     1      -5.042   9.417   0.098  0.00  0.00    +0.010 A 
ATOM     10  C   UNL     1      -6.398   9.653   0.100  0.00  0.00    +0.070 A 
ATOM     11  N   UNL     1      -7.008   8.452   0.110  0.00  0.00    -0.276 N 
ATOM     12  H   UNL     1      -7.998   8.309   0.127  0.00  0.00    +0.189 HD
ATOM     13  N   UNL     1      -6.122   7.514   0.092  0.00  0.00    -0.168 NA
ATOM     14  C   UNL     1      -4.901   8.028   0.089  0.00  0.00    +0.152 A 
ENDROOT
BRANCH  14  15
ATOM     15  C   UNL     1      -3.631   7.275   0.074  0.00  0.00    +0.284 C 
ATOM     16  O   UNL     1      -2.571   7.871   0.067  0.00  0.00    -0.267 OA
ATOM     17  N   UNL     1      -3.646   5.927   0.067  0.00  0.00    -0.202 N 
ATOM     18  H   UNL     1      -4.492   5.452   0.073  0.00  0.00    +0.178 HD
BRANCH  17  19
ATOM     19  N   UNL     1      -2.441   5.213   0.052  0.00  0.00    -0.186 NA
ATOM     20  C   UNL     1      -2.457   3.915   0.046  0.00  0.00    +0.158 C 
BRANCH  20  21
ATOM     21  C   UNL     1      -1.189   3.163   0.030  0.00  0.00    +0.083 A 
ATOM     22  C   UNL     1      -1.211   1.766   0.017  0.00  0.00    +0.029 A 
ATOM     23  C   UNL     1      -0.013   1.076   0.008  0.00  0.00    +0.004 A 
ATOM     24  C   UNL     1       1.171   1.802   0.001  0.00  0.00    +0.020 A 
ATOM     25  C   UNL     1       1.121   3.183   0.009  0.00  0.00    +0.111 A 
ATOM     26  N   UNL     1      -0.033   3.819   0.022  0.00  0.00    -0.254 NA
ENDBRANCH  20  21
ENDBRANCH  17  19
ENDBRANCH  14  15
TORSDOF 3
