REMARK  Name = ZINC12330106
REMARK  8 active torsions:
REMARK  status: ('A' for Active; 'I' for Inactive)
REMARK    1  A    between atoms: C_1  and  O_2
REMARK    2  A    between atoms: O_2  and  C_3
REMARK    3  A    between atoms: C_7  and  C_9
REMARK    4  A    between atoms: C_9  and  C_11
REMARK    5  A    between atoms: C_9  and  O_29
REMARK    6  A    between atoms: C_11  and  N_55
REMARK    7  A    between atoms: C_18  and  O_28
REMARK    8  A    between atoms: C_22  and  O_27
REMARK                            x       y       z     vdW  Elec       q    Type
REMARK                         _______ _______ _______ _____ _____    ______ ____
ROOT
ATOM      1  C   UNL     1       0.049  -4.697  -0.589  0.00  0.00    -0.075 C 
ATOM      2  C   UNL     1       0.109  -6.226  -0.608  0.00  0.00    +0.029 C 
ATOM      3  C   UNL     1      -0.202  -6.729  -2.019  0.00  0.00    +0.110 C 
ATOM      4  C   UNL     1       0.787  -6.110  -3.009  0.00  0.00    +0.029 C 
ATOM      5  C   UNL     1       0.706  -4.585  -2.919  0.00  0.00    -0.075 C 
ATOM      6  C   UNL     1      -0.076  -8.256  -2.057  0.00  0.00    +0.084 C 
ATOM      7  C   UNL     1      -0.994  -8.841  -0.980  0.00  0.00    +0.152 C 
ATOM      8  C   UNL     1      -2.359  -8.209  -1.078  0.00  0.00    +0.026 A 
ATOM      9  C   UNL     1      -3.429  -8.840  -0.466  0.00  0.00    +0.055 A 
ATOM     10  C   UNL     1      -4.697  -8.284  -0.530  0.00  0.00    +0.117 A 
ATOM     11  C   UNL     1      -4.895  -7.092  -1.210  0.00  0.00    +0.049 A 
ATOM     12  C   UNL     1      -3.830  -6.463  -1.821  0.00  0.00    +0.049 A 
ATOM     13  C   UNL     1      -2.557  -7.020  -1.758  0.00  0.00    +0.127 A 
ATOM     14  O   UNL     1      -1.535  -6.371  -2.378  0.00  0.00    -0.485 OA
ATOM     15  N   UNL     1       1.047  -4.167  -1.542  0.00  0.00    +0.382 N 
ATOM     16  H   UNL     1       1.971  -4.542  -1.300  0.00  0.00    -0.082 HD
ENDROOT
BRANCH  10  17
ATOM     17  O   UNL     1      -5.745  -8.907   0.073  0.00  0.00    -0.507 OA
ATOM     18  H   UNL     1      -6.208  -9.538  -0.495  0.00  0.00    +0.292 HD
ENDBRANCH  10  17
BRANCH   7  19
ATOM     19  O   UNL     1      -1.108 -10.253  -1.170  0.00  0.00    -0.387 OA
ATOM     20  H   UNL     1      -1.674 -10.692  -0.520  0.00  0.00    +0.210 HD
ENDBRANCH   7  19
BRANCH  15  21
ATOM     21  C   UNL     1       1.091  -2.692  -1.459  0.00  0.00    -0.042 C 
BRANCH  21  22
ATOM     22  C   UNL     1       2.281  -2.188  -2.277  0.00  0.00    +0.128 C 
BRANCH  22  27
ATOM     23  C   UNL     1       1.857   1.488  -3.043  0.00  0.00    +0.120 A 
ATOM     24  C   UNL     1       2.518   2.070  -1.971  0.00  0.00    +0.045 A 
ATOM     25  C   UNL     1       3.098   1.272  -1.004  0.00  0.00    +0.004 A 
ATOM     26  C   UNL     1       3.020  -0.105  -1.103  0.00  0.00    +0.006 A 
ATOM     27  C   UNL     1       2.363  -0.687  -2.171  0.00  0.00    -0.017 A 
ATOM     28  C   UNL     1       1.781   0.107  -3.141  0.00  0.00    +0.051 A 
BRANCH  23  30
ATOM     29  C   UNL     1       1.403   3.685  -3.830  0.00  0.00    +0.277 C 
ATOM     30  O   UNL     1       1.285   2.271  -3.996  0.00  0.00    -0.495 OA
ENDBRANCH  23  30
ENDBRANCH  22  27
BRANCH  22  31
ATOM     31  O   UNL     1       3.486  -2.768  -1.773  0.00  0.00    -0.389 OA
ATOM     32  H   UNL     1       3.666  -2.556  -0.847  0.00  0.00    +0.210 HD
ENDBRANCH  22  31
ENDBRANCH  21  22
ENDBRANCH  15  21
TORSDOF 7
