REMARK  Name = ZINC44929785
REMARK  4 active torsions:
REMARK  status: ('A' for Active; 'I' for Inactive)
REMARK    1  A    between atoms: C_1  and  C_2
REMARK    2  A    between atoms: C_2  and  N_9
REMARK    3  A    between atoms: N_9  and  C_10
REMARK    4  A    between atoms: C_17  and  O_19
REMARK                            x       y       z     vdW  Elec       q    Type
REMARK                         _______ _______ _______ _____ _____    ______ ____
ROOT
ATOM      1  N   UNL     1       0.741  -0.471  -1.060  0.00  0.00    +0.387 N 
ATOM      2  H   UNL     1       0.916  -1.464  -1.080  0.00  0.00    -0.085 HD
ATOM      3  H   UNL     1       0.170  -0.246  -0.258  0.00  0.00    -0.085 HD
ENDROOT
BRANCH   1   5
ATOM      4  C   UNL     1       1.846   1.629  -1.611  0.00  0.00    -0.009 C 
ATOM      5  C   UNL     1       2.017   0.250  -0.970  0.00  0.00    -0.050 C 
ATOM      6  C   UNL     1       2.367   0.437   0.506  0.00  0.00    +0.011 C 
ATOM      7  C   UNL     1       3.211  -0.764   1.016  0.00  0.00    +0.164 C 
ATOM      8  S   UNL     1       4.289  -1.031  -0.459  0.00  0.00    -0.032 S 
ATOM      9  O   UNL     1       5.359  -0.097  -0.432  0.00  0.00    -0.174 OA
ATOM     10  O   UNL     1       4.570  -2.418  -0.588  0.00  0.00    -0.174 OA
ATOM     11  C   UNL     1       3.084  -0.533  -1.759  0.00  0.00    +0.153 C 
ENDBRANCH   1   5
BRANCH   1  12
ATOM     12  C   UNL     1       0.039  -0.072  -2.287  0.00  0.00    -0.042 C 
ATOM     13  C   UNL     1      -1.381  -0.566  -2.218  0.00  0.00    -0.013 C 
ATOM     14  C   UNL     1      -2.293   0.469  -2.908  0.00  0.00    -0.001 C 
ATOM     15  C   UNL     1      -2.273   0.347  -4.358  0.00  0.00    +0.000 C 
ATOM     16  C   UNL     1      -0.871   0.598  -4.950  0.00  0.00    +0.002 C 
ATOM     17  C   UNL     1      -0.052  -0.653  -4.786  0.00  0.00    +0.030 C 
ATOM     18  C   UNL     1       0.799  -0.637  -3.502  0.00  0.00    +0.101 C 
BRANCH  18  19
ATOM     19  O   UNL     1       1.213  -1.973  -3.206  0.00  0.00    -0.393 OA
ATOM     20  H   UNL     1       1.700  -2.401  -3.923  0.00  0.00    +0.210 HD
ENDBRANCH  18  19
ENDBRANCH   1  12
TORSDOF 3
