REMARK  Name = ZINC32071251
REMARK  12 active torsions:
REMARK  status: ('A' for Active; 'I' for Inactive)
REMARK    1  A    between atoms: C_1  and  C_2
REMARK    2  A    between atoms: C_5  and  O_9
REMARK    3  A    between atoms: C_7  and  C_8
REMARK    4  A    between atoms: O_9  and  C_10
REMARK    5  A    between atoms: C_13  and  C_16
REMARK    6  A    between atoms: C_16  and  C_18
REMARK    7  A    between atoms: C_16  and  N_20
REMARK    8  A    between atoms: C_18  and  N_19
REMARK    9  A    between atoms: N_20  and  C_21
REMARK   10  A    between atoms: N_20  and  C_22
REMARK   11  A    between atoms: C_22  and  C_23
REMARK   12  A    between atoms: C_23  and  O_24
REMARK                            x       y       z     vdW  Elec       q    Type
REMARK                         _______ _______ _______ _____ _____    ______ ____
ROOT
ATOM      1  C   UNL     1      -1.348  -3.165   2.470  0.00  0.00    +0.128 A 
ATOM      2  C   UNL     1      -1.171  -2.408   3.619  0.00  0.00    +0.046 A 
ATOM      3  C   UNL     1      -1.060  -1.034   3.530  0.00  0.00    +0.009 A 
ATOM      4  C   UNL     1      -1.125  -0.413   2.296  0.00  0.00    -0.032 A 
ATOM      5  C   UNL     1      -1.306  -1.165   1.150  0.00  0.00    +0.009 A 
ATOM      6  C   UNL     1      -1.412  -2.540   1.233  0.00  0.00    +0.046 A 
ENDROOT
BRANCH   1   7
ATOM      7  O   UNL     1      -1.458  -4.517   2.556  0.00  0.00    -0.456 OA
BRANCH   7  12
ATOM      8  C   UNL     1      -1.700  -7.460  -2.240  0.00  0.00    +0.044 C 
ATOM      9  C   UNL     1      -1.635  -6.673  -0.957  0.00  0.00    -0.047 A 
ATOM     10  C   UNL     1      -2.792  -6.426  -0.239  0.00  0.00    +0.007 A 
ATOM     11  C   UNL     1      -2.734  -5.708   0.939  0.00  0.00    +0.046 A 
ATOM     12  C   UNL     1      -1.516  -5.227   1.398  0.00  0.00    +0.129 A 
ATOM     13  C   UNL     1      -0.358  -5.476   0.677  0.00  0.00    +0.050 A 
ATOM     14  C   UNL     1      -0.420  -6.199  -0.499  0.00  0.00    -0.044 A 
ATOM     15  C   UNL     1       0.838  -6.469  -1.284  0.00  0.00    +0.044 C 
ENDBRANCH   7  12
ENDBRANCH   1   7
BRANCH   4  16
ATOM     16  C   UNL     1      -1.004   1.086   2.201  0.00  0.00    +0.069 C 
BRANCH  16  17
ATOM     17  N   UNL     1      -1.592   1.545   0.936  0.00  0.00    -0.298 NA
ATOM     18  C   UNL     1      -0.624   1.436  -0.164  0.00  0.00    +0.105 C 
BRANCH  17  19
ATOM     19  C   UNL     1      -2.097   2.920   1.058  0.00  0.00    +0.112 C 
BRANCH  19  20
ATOM     20  C   UNL     1      -3.136   3.180  -0.034  0.00  0.00    +0.171 C 
BRANCH  20  21
ATOM     21  O   UNL     1      -4.272   2.340   0.179  0.00  0.00    -0.394 OA
ATOM     22  H   UNL     1      -5.127   2.386  -0.511  0.00  0.00    +0.209 HD
ENDBRANCH  20  21
ENDBRANCH  19  20
ENDBRANCH  17  19
ENDBRANCH  16  17
BRANCH  16  23
ATOM     23  C   UNL     1       0.473   1.483   2.252  0.00  0.00    -0.063 C 
BRANCH  23  24
ATOM     24  N   UNL     1       0.589   2.946   2.188  0.00  0.00    +0.379 N 
ATOM     25  H   UNL     1       1.651   3.231   2.224  0.00  0.00    -0.090 HD
ATOM     26  H   UNL     1       0.059   3.393   3.042  0.00  0.00    -0.090 HD
ATOM     27  H   UNL     1       0.144   3.308   1.249  0.00  0.00    -0.090 HD
ENDBRANCH  23  24
ENDBRANCH  16  23
ENDBRANCH   4  16
TORSDOF 9
