REMARK  Name = ZINC01748444
REMARK  13 active torsions:
REMARK  status: ('A' for Active; 'I' for Inactive)
REMARK    1  A    between atoms: C_1  and  C_2
REMARK    2  A    between atoms: C_5  and  S_8
REMARK    3  A    between atoms: S_8  and  N_11
REMARK    4  A    between atoms: N_11  and  C_12
REMARK    5  A    between atoms: N_11  and  C_24
REMARK    6  A    between atoms: C_12  and  C_13
REMARK    7  A    between atoms: C_13  and  C_14
REMARK    8  A    between atoms: C_14  and  C_15
REMARK    9  A    between atoms: C_16  and  C_23
REMARK   10  A    between atoms: C_18  and  N_22
REMARK   11  A    between atoms: C_20  and  O_21
REMARK   12  A    between atoms: C_24  and  C_25
REMARK   13  A    between atoms: C_29  and  N_31
REMARK                            x       y       z     vdW  Elec       q    Type
REMARK                         _______ _______ _______ _____ _____    ______ ____
ROOT
ATOM      1  N   UNL     1       1.660  -5.005   0.114  0.00  0.00    -0.172 NA
ENDROOT
BRANCH   1   2
ATOM      2  S   UNL     1       0.105  -4.443   0.016  0.00  0.00    +0.061 S 
ATOM      3  O   UNL     1       0.010  -3.719  -1.203  0.00  0.00    -0.153 OA
ATOM      4  O   UNL     1      -0.195  -3.858   1.276  0.00  0.00    -0.153 OA
BRANCH   2   9
ATOM      5  C   UNL     1      -3.498  -9.250  -0.551  0.00  0.00    +0.044 C 
ATOM      6  C   UNL     1      -2.598  -8.050  -0.410  0.00  0.00    -0.050 A 
ATOM      7  C   UNL     1      -2.377  -7.495   0.837  0.00  0.00    +0.005 A 
ATOM      8  C   UNL     1      -1.551  -6.394   0.967  0.00  0.00    +0.029 A 
ATOM      9  C   UNL     1      -0.946  -5.848  -0.149  0.00  0.00    +0.106 A 
ATOM     10  C   UNL     1      -1.167  -6.403  -1.396  0.00  0.00    +0.029 A 
ATOM     11  C   UNL     1      -1.989  -7.506  -1.526  0.00  0.00    +0.005 A 
ENDBRANCH   2   9
ENDBRANCH   1   2
BRANCH   1  12
ATOM     12  C   UNL     1       2.232  -5.355   1.416  0.00  0.00    +0.110 C 
BRANCH  12  13
ATOM     13  C   UNL     1       2.063  -6.855   1.661  0.00  0.00    +0.022 C 
BRANCH  13  14
ATOM     14  C   UNL     1       2.660  -7.221   3.021  0.00  0.00    +0.042 C 
BRANCH  14  15
ATOM     15  C   UNL     1       2.493  -8.699   3.262  0.00  0.00    +0.013 A 
ATOM     16  C   UNL     1       1.362  -9.180   3.886  0.00  0.00    +0.021 A 
ATOM     17  N   UNL     1       1.204 -10.473   4.102  0.00  0.00    -0.347 N 
ATOM     18  C   UNL     1       2.119 -11.358   3.733  0.00  0.00    +0.097 A 
ATOM     19  C   UNL     1       3.285 -10.950   3.100  0.00  0.00    +0.087 A 
ATOM     20  C   UNL     1       3.479  -9.596   2.853  0.00  0.00    +0.125 A 
ATOM     21  C   UNL     1       0.290  -8.217   4.326  0.00  0.00    +0.064 C 
ATOM     22  H   UNL     1       0.398 -10.783   4.543  0.00  0.00    +0.167 HD
BRANCH  18  23
ATOM     23  N   UNL     1       1.909 -12.710   3.983  0.00  0.00    -0.345 N 
ATOM     24  H   UNL     1       1.096 -13.000   4.426  0.00  0.00    +0.144 HD
ATOM     25  H   UNL     1       2.575 -13.362   3.716  0.00  0.00    +0.144 HD
ENDBRANCH  18  23
BRANCH  20  26
ATOM     26  O   UNL     1       4.603  -9.157   2.231  0.00  0.00    -0.506 OA
ATOM     27  H   UNL     1       5.330  -8.948   2.834  0.00  0.00    +0.292 HD
ENDBRANCH  20  26
ENDBRANCH  14  15
ENDBRANCH  13  14
ENDBRANCH  12  13
ENDBRANCH   1  12
BRANCH   1  28
ATOM     28  C   UNL     1       2.463  -5.151  -1.103  0.00  0.00    +0.144 C 
BRANCH  28  29
ATOM     29  C   UNL     1       3.324  -3.928  -1.287  0.00  0.00    -0.030 A 
ATOM     30  C   UNL     1       2.895  -2.897  -2.102  0.00  0.00    +0.005 A 
ATOM     31  C   UNL     1       3.682  -1.774  -2.274  0.00  0.00    +0.002 A 
ATOM     32  C   UNL     1       4.900  -1.677  -1.631  0.00  0.00    +0.023 A 
ATOM     33  C   UNL     1       5.334  -2.710  -0.811  0.00  0.00    +0.025 A 
ATOM     34  C   UNL     1       4.539  -3.836  -0.636  0.00  0.00    +0.027 A 
BRANCH  33  35
ATOM     35  N   UNL     1       6.566  -2.616  -0.159  0.00  0.00    -0.358 N 
ATOM     36  H   UNL     1       7.119  -1.828  -0.278  0.00  0.00    +0.142 HD
ATOM     37  H   UNL     1       6.868  -3.338   0.414  0.00  0.00    +0.142 HD
ENDBRANCH  33  35
ENDBRANCH  28  29
ENDBRANCH   1  28
TORSDOF 11
