REMARK  Name = ZINC39533857
REMARK  9 active torsions:
REMARK  status: ('A' for Active; 'I' for Inactive)
REMARK    1  A    between atoms: C_1  and  C_2
REMARK    2  A    between atoms: C_2  and  O_3
REMARK    3  A    between atoms: O_3  and  C_4
REMARK    4  A    between atoms: N_7  and  C_11
REMARK    5  A    between atoms: C_11  and  C_13
REMARK    6  A    between atoms: C_11  and  C_16
REMARK    7  A    between atoms: C_13  and  N_14
REMARK    8  A    between atoms: N_14  and  O_15
REMARK    9  A    between atoms: C_19  and  C_22
REMARK                            x       y       z     vdW  Elec       q    Type
REMARK                         _______ _______ _______ _____ _____    ______ ____
ROOT
ATOM      1  C   UNL     1       1.813  -4.100  -4.118  0.00  0.00    -0.021 C 
ENDROOT
BRANCH   1   4
ATOM      2  C   UNL     1      -0.240  -2.015  -1.767  0.00  0.00    +0.169 C 
ATOM      3  C   UNL     1       0.644  -2.348  -2.971  0.00  0.00    -0.030 C 
ATOM      4  N   UNL     1       0.979  -3.778  -2.953  0.00  0.00    +0.388 N 
ATOM      5  C   UNL     1       1.715  -4.095  -1.722  0.00  0.00    -0.062 C 
ATOM      6  C   UNL     1       0.839  -3.777  -0.508  0.00  0.00    +0.065 C 
ATOM      7  N   UNL     1       0.475  -2.353  -0.529  0.00  0.00    -0.295 NA
ATOM      8  H   UNL     1       1.290  -1.770  -0.411  0.00  0.00    +0.124 HD
ATOM      9  H   UNL     1       0.130  -4.322  -2.987  0.00  0.00    -0.081 HD
BRANCH   2  10
ATOM     10  O   UNL     1      -0.550  -0.621  -1.774  0.00  0.00    -0.364 OA
BRANCH  10  12
ATOM     11  C   UNL     1      -1.800   1.264  -0.920  0.00  0.00    +0.034 C 
ATOM     12  C   UNL     1      -1.550  -0.243  -0.826  0.00  0.00    +0.158 C 
ENDBRANCH  10  12
ENDBRANCH   2  10
ENDBRANCH   1   4
BRANCH   1  13
ATOM     13  C   UNL     1       1.122  -3.635  -5.375  0.00  0.00    -0.060 A 
ATOM     14  C   UNL     1      -0.246  -3.789  -5.505  0.00  0.00    +0.002 A 
ATOM     15  C   UNL     1      -0.884  -3.366  -6.653  0.00  0.00    +0.009 A 
ATOM     16  C   UNL     1      -0.147  -2.783  -7.682  0.00  0.00    -0.018 A 
ATOM     17  C   UNL     1       1.231  -2.631  -7.545  0.00  0.00    +0.009 A 
ATOM     18  C   UNL     1       1.858  -3.052  -6.390  0.00  0.00    +0.002 A 
BRANCH  16  19
ATOM     19  C   UNL     1      -0.828  -2.326  -8.919  0.00  0.00    -0.018 A 
ATOM     20  C   UNL     1      -2.207  -2.473  -9.054  0.00  0.00    +0.008 A 
ATOM     21  C   UNL     1      -2.834  -2.046 -10.207  0.00  0.00    +0.001 A 
ATOM     22  C   UNL     1      -2.097  -1.473 -11.227  0.00  0.00    +0.000 A 
ATOM     23  C   UNL     1      -0.728  -1.325 -11.099  0.00  0.00    +0.001 A 
ATOM     24  C   UNL     1      -0.091  -1.743  -9.948  0.00  0.00    +0.008 A 
ENDBRANCH  16  19
ENDBRANCH   1  13
BRANCH   1  25
ATOM     25  C   UNL     1       2.033  -5.612  -4.186  0.00  0.00    +0.100 C 
BRANCH  25  26
ATOM     26  N   UNL     1       2.853  -6.040  -3.045  0.00  0.00    -0.205 NA
ATOM     27  H   UNL     1       3.726  -5.535  -3.018  0.00  0.00    +0.153 HD
BRANCH  26  28
ATOM     28  O   UNL     1       3.083  -7.484  -3.077  0.00  0.00    -0.315 OA
ATOM     29  H   UNL     1       3.620  -7.813  -2.343  0.00  0.00    +0.236 HD
ENDBRANCH  26  28
ENDBRANCH  25  26
ENDBRANCH   1  25
TORSDOF 8
