REMARK  Name = ZINC08747276
REMARK  9 active torsions:
REMARK  status: ('A' for Active; 'I' for Inactive)
REMARK    1  A    between atoms: C_1  and  C_2
REMARK    2  A    between atoms: C_4  and  C_30
REMARK    3  A    between atoms: C_5  and  N_9
REMARK    4  A    between atoms: C_6  and  C_8
REMARK    5  A    between atoms: C_10  and  C_12
REMARK    6  A    between atoms: C_12  and  N_62
REMARK    7  A    between atoms: C_13  and  N_62
REMARK    8  A    between atoms: C_14  and  C_15
REMARK    9  A    between atoms: C_14  and  N_62
REMARK                            x       y       z     vdW  Elec       q    Type
REMARK                         _______ _______ _______ _____ _____    ______ ____
ROOT
ATOM      1  C   UNL     1      -2.603   3.730   1.833  0.00  0.00    -0.001 C 
ENDROOT
BRANCH   1   2
ATOM      2  C   UNL     1      -2.546   4.734   2.955  0.00  0.00    +0.116 A 
ATOM      3  N   UNL     1      -2.812   4.340   4.188  0.00  0.00    -0.219 NA
ATOM      4  C   UNL     1      -2.775   5.171   5.217  0.00  0.00    +0.128 A 
ATOM      5  C   UNL     1      -2.448   6.537   4.990  0.00  0.00    +0.051 A 
ATOM      6  C   UNL     1      -2.350   7.627   5.968  0.00  0.00    -0.025 A 
ATOM      7  C   UNL     1      -2.026   8.844   5.488  0.00  0.00    -0.004 A 
ATOM      8  S   UNL     1      -1.827   8.617   3.739  0.00  0.00    -0.073 S 
ATOM      9  C   UNL     1      -2.184   6.883   3.651  0.00  0.00    +0.114 A 
ATOM     10  N   UNL     1      -2.239   5.988   2.684  0.00  0.00    -0.227 NA
ATOM     11  C   UNL     1      -1.878  10.122   6.253  0.00  0.00    +0.043 C 
ATOM     12  C   UNL     1      -0.987   9.881   7.479  0.00  0.00    +0.005 C 
ATOM     13  C   UNL     1      -1.878   9.462   8.644  0.00  0.00    +0.001 C 
ATOM     14  C   UNL     1      -3.071   8.660   8.127  0.00  0.00    +0.005 C 
ATOM     15  C   UNL     1      -2.599   7.378   7.453  0.00  0.00    +0.037 C 
ATOM     16  N   UNL     1      -3.054   4.719   6.494  0.00  0.00    -0.343 N 
ATOM     17  H   UNL     1      -3.631   3.950   6.621  0.00  0.00    +0.144 HD
ATOM     18  H   UNL     1      -2.673   5.172   7.263  0.00  0.00    +0.144 HD
ENDBRANCH   1   2
BRANCH   1  20
ATOM     19  C   UNL     1      -0.297   4.105   1.194  0.00  0.00    -0.095 C 
ATOM     20  N   UNL     1      -1.271   3.106   1.684  0.00  0.00    +0.388 N 
ATOM     21  H   UNL     1      -0.961   2.759   2.599  0.00  0.00    -0.081 HD
BRANCH  20  22
ATOM     22  C   UNL     1      -1.347   1.971   0.741  0.00  0.00    +0.019 C 
BRANCH  22  24
ATOM     23  N   UNL     1       0.129   0.126   0.009  0.00  0.00    -0.287 N 
ATOM     24  C   UNL     1      -0.041   1.221   0.776  0.00  0.00    +0.201 C 
ATOM     25  O   UNL     1       0.861   1.606   1.491  0.00  0.00    -0.278 OA
ATOM     26  H   UNL     1      -0.614  -0.223  -0.509  0.00  0.00    +0.155 HD
BRANCH  23  31
ATOM     27  C   UNL     1       5.184  -2.442  -0.192  0.00  0.00    +0.044 C 
ATOM     28  C   UNL     1       3.841  -1.760  -0.138  0.00  0.00    -0.050 A 
ATOM     29  C   UNL     1       3.748  -0.399  -0.368  0.00  0.00    +0.008 A 
ATOM     30  C   UNL     1       2.519   0.229  -0.320  0.00  0.00    -0.029 A 
ATOM     31  C   UNL     1       1.375  -0.507  -0.041  0.00  0.00    +0.039 A 
ATOM     32  C   UNL     1       1.472  -1.873   0.194  0.00  0.00    -0.029 A 
ATOM     33  C   UNL     1       2.704  -2.496   0.140  0.00  0.00    +0.008 A 
ATOM     34  C   UNL     1       0.234  -2.675   0.503  0.00  0.00    +0.045 C 
ATOM     35  C   UNL     1       2.419   1.712  -0.571  0.00  0.00    +0.045 C 
ENDBRANCH  23  31
ENDBRANCH  22  24
ENDBRANCH  20  22
ENDBRANCH   1  20
TORSDOF 5
