REMARK  Name = ZINC20504940
REMARK  7 active torsions:
REMARK  status: ('A' for Active; 'I' for Inactive)
REMARK    1  A    between atoms: C_1  and  C_2
REMARK    2  A    between atoms: C_2  and  C_4
REMARK    3  A    between atoms: C_2  and  N_8
REMARK    4  A    between atoms: C_4  and  O_6
REMARK    5  A    between atoms: O_6  and  C_7
REMARK    6  A    between atoms: C_9  and  C_11
REMARK    7  A    between atoms: C_18  and  C_20
REMARK                            x       y       z     vdW  Elec       q    Type
REMARK                         _______ _______ _______ _____ _____    ______ ____
ROOT
ATOM      1  C   UNL     1       3.559   1.966   1.106  0.00  0.00    +0.176 C 
ATOM      2  C   UNL     1       3.528   0.443   0.941  0.00  0.00    +0.113 C 
ATOM      3  N   UNL     1       3.058  -0.172   2.190  0.00  0.00    -0.312 NA
ATOM      4  C   UNL     1       1.680   0.234   2.497  0.00  0.00    +0.100 C 
ATOM      5  C   UNL     1       1.638   1.752   2.729  0.00  0.00    +0.123 C 
ATOM      6  N   UNL     1       2.233   2.414   1.559  0.00  0.00    -0.287 N 
ATOM      7  C   UNL     1       1.584   3.409   0.922  0.00  0.00    +0.219 C 
ATOM      8  O   UNL     1       2.171   4.431   0.637  0.00  0.00    -0.275 OA
ATOM      9  H   UNL     1       3.087  -1.267   2.093  0.00  0.00    +0.122 HD
ENDROOT
BRANCH   7  10
ATOM     10  C   UNL     1       0.129   3.251   0.564  0.00  0.00    +0.072 C 
ATOM     11  C   UNL     1      -0.727   3.404   1.824  0.00  0.00    -0.007 C 
ATOM     12  C   UNL     1      -2.207   3.303   1.443  0.00  0.00    -0.082 C 
ATOM     13  N   UNL     1      -2.538   4.354   0.473  0.00  0.00    +0.379 N 
ATOM     14  C   UNL     1      -1.761   4.200  -0.763  0.00  0.00    -0.082 C 
ATOM     15  C   UNL     1      -0.269   4.329  -0.449  0.00  0.00    -0.007 C 
ATOM     16  H   UNL     1      -3.608   4.300   0.224  0.00  0.00    -0.086 HD
ATOM     17  H   UNL     1      -2.312   5.339   0.909  0.00  0.00    -0.086 HD
ENDBRANCH   7  10
BRANCH   1  19
ATOM     18  N   UNL     1       5.112   3.132  -0.426  0.00  0.00    -0.301 N 
ATOM     19  C   UNL     1       3.887   2.612  -0.216  0.00  0.00    +0.235 C 
ATOM     20  O   UNL     1       3.048   2.663  -1.091  0.00  0.00    -0.274 OA
ATOM     21  H   UNL     1       5.873   3.086   0.367  0.00  0.00    +0.150 HD
BRANCH  18  23
ATOM     22  C   UNL     1       5.877   2.686  -2.706  0.00  0.00    +0.040 C 
ATOM     23  C   UNL     1       5.431   3.760  -1.711  0.00  0.00    +0.179 C 
BRANCH  23  24
ATOM     24  C   UNL     1       6.542   4.760  -1.520  0.00  0.00    +0.327 C 
ATOM     25  O   UNL     1       7.019   4.931  -0.423  0.00  0.00    -0.249 OA
BRANCH  24  26
ATOM     26  O   UNL     1       7.002   5.460  -2.568  0.00  0.00    -0.467 OA
ATOM     27  C   UNL     1       8.073   6.406  -2.310  0.00  0.00    +0.280 C 
ENDBRANCH  24  26
ENDBRANCH  23  24
ENDBRANCH  18  23
ENDBRANCH   1  19
TORSDOF 5
