REMARK  Name = ZINC29991957
REMARK  10 active torsions:
REMARK  status: ('A' for Active; 'I' for Inactive)
REMARK    1  A    between atoms: C_1  and  C_2
REMARK    2  A    between atoms: C_3  and  C_29
REMARK    3  A    between atoms: N_4  and  C_23
REMARK    4  A    between atoms: C_5  and  S_7
REMARK    5  A    between atoms: S_7  and  C_8
REMARK    6  A    between atoms: C_8  and  C_9
REMARK    7  A    between atoms: N_11  and  C_12
REMARK    8  A    between atoms: C_17  and  S_18
REMARK    9  A    between atoms: S_18  and  C_19
REMARK   10  A    between atoms: C_19  and  C_20
REMARK                            x       y       z     vdW  Elec       q    Type
REMARK                         _______ _______ _______ _____ _____    ______ ____
ROOT
ATOM      1  C   UNL     1       0.085  -3.839   4.466  0.00  0.00    +0.228 C 
ATOM      2  O   UNL     1       0.096  -4.998   4.108  0.00  0.00    -0.275 OA
ATOM      3  N   UNL     1       0.080  -3.539   5.780  0.00  0.00    -0.284 N 
ATOM      4  H   UNL     1       0.137  -2.614   6.066  0.00  0.00    +0.155 HD
ENDROOT
BRANCH   3   5
ATOM      5  C   UNL     1      -0.007  -4.564   6.732  0.00  0.00    +0.047 A 
ATOM      6  C   UNL     1       0.600  -5.788   6.494  0.00  0.00    +0.024 A 
ATOM      7  C   UNL     1       0.513  -6.797   7.434  0.00  0.00    +0.002 A 
ATOM      8  C   UNL     1      -0.178  -6.591   8.615  0.00  0.00    +0.001 A 
ATOM      9  C   UNL     1      -0.785  -5.374   8.861  0.00  0.00    +0.016 A 
ATOM     10  C   UNL     1      -0.698  -4.353   7.925  0.00  0.00    +0.030 A 
BRANCH  10  11
ATOM     11  S   UNL     1      -1.466  -2.799   8.239  0.00  0.00    -0.114 S 
BRANCH  11  12
ATOM     12  C   UNL     1      -2.221  -3.005   9.876  0.00  0.00    +0.169 C 
BRANCH  12  13
ATOM     13  C   UNL     1      -2.921  -1.730  10.270  0.00  0.00    +0.221 C 
ATOM     14  O   UNL     1      -2.911  -0.776   9.521  0.00  0.00    -0.275 OA
ATOM     15  N   UNL     1      -3.558  -1.650  11.456  0.00  0.00    -0.329 N 
ATOM     16  H   UNL     1      -3.566  -2.413  12.055  0.00  0.00    +0.145 HD
ATOM     17  H   UNL     1      -4.008  -0.829  11.710  0.00  0.00    +0.145 HD
ENDBRANCH  12  13
ENDBRANCH  11  12
ENDBRANCH  10  11
ENDBRANCH   3   5
BRANCH   1  18
ATOM     18  C   UNL     1       0.076  -2.734   3.441  0.00  0.00    +0.173 C 
BRANCH  18  19
ATOM     19  S   UNL     1       0.085  -3.454   1.776  0.00  0.00    -0.080 S 
BRANCH  19  24
ATOM     20  C   UNL     1       0.043   1.501   0.008  0.00  0.00    +0.065 C 
ATOM     21  C   UNL     1       0.056  -0.006   0.001  0.00  0.00    +0.034 A 
ATOM     22  C   UNL     1       0.064  -0.787  -1.093  0.00  0.00    +0.037 A 
ATOM     23  N   UNL     1       0.075  -2.092  -0.654  0.00  0.00    -0.321 N 
ATOM     24  C   UNL     1       0.073  -2.054   0.706  0.00  0.00    +0.148 A 
ATOM     25  N   UNL     1       0.067  -0.798   1.086  0.00  0.00    -0.338 N 
ATOM     26  C   UNL     1       0.061  -0.323  -2.527  0.00  0.00    +0.065 C 
ATOM     27  H   UNL     1       0.067  -0.489   2.006  0.00  0.00    +0.168 HD
BRANCH  23  28
ATOM     28  C   UNL     1       0.087  -3.293  -1.493  0.00  0.00    +0.089 C 
ATOM     29  C   UNL     1      -1.155  -4.135  -1.195  0.00  0.00    +0.025 C 
ATOM     30  C   UNL     1      -1.143  -5.390  -2.071  0.00  0.00    +0.002 C 
ATOM     31  C   UNL     1       0.114  -6.210  -1.770  0.00  0.00    +0.000 C 
ATOM     32  C   UNL     1       1.355  -5.367  -2.068  0.00  0.00    +0.002 C 
ATOM     33  C   UNL     1       1.343  -4.113  -1.192  0.00  0.00    +0.025 C 
ENDBRANCH  23  28
ENDBRANCH  19  24
ENDBRANCH  18  19
ENDBRANCH   1  18
TORSDOF 8
