REMARK  Name = ZINC02638564
REMARK  10 active torsions:
REMARK  status: ('A' for Active; 'I' for Inactive)
REMARK    1  A    between atoms: C_1  and  C_2
REMARK    2  A    between atoms: C_2  and  C_4
REMARK    3  A    between atoms: C_2  and  O_11
REMARK    4  A    between atoms: O_11  and  C_12
REMARK    5  A    between atoms: C_12  and  C_13
REMARK    6  A    between atoms: C_13  and  C_15
REMARK    7  A    between atoms: C_13  and  O_32
REMARK    8  A    between atoms: C_15  and  N_56
REMARK    9  A    between atoms: N_18  and  S_21
REMARK   10  A    between atoms: S_21  and  C_24
REMARK                            x       y       z     vdW  Elec       q    Type
REMARK                         _______ _______ _______ _____ _____    ______ ____
ROOT
ATOM      1  C   UNL     1      -6.887   1.844   4.697  0.00  0.00    -0.061 C 
ATOM      2  C   UNL     1      -7.624   2.984   5.407  0.00  0.00    +0.091 C 
ATOM      3  N   UNL     1      -8.898   2.465   5.927  0.00  0.00    -0.180 NA
ATOM      4  C   UNL     1      -9.779   1.733   5.004  0.00  0.00    +0.091 C 
ATOM      5  C   UNL     1      -8.957   0.642   4.309  0.00  0.00    -0.061 C 
ATOM      6  N   UNL     1      -7.781   1.269   3.668  0.00  0.00    +0.383 N 
ATOM      7  H   UNL     1      -8.102   2.022   3.048  0.00  0.00    -0.082 HD
ENDROOT
BRANCH   3   8
ATOM      8  S   UNL     1      -9.330   2.697   7.509  0.00  0.00    +0.062 S 
ATOM      9  O   UNL     1     -10.113   1.573   7.886  0.00  0.00    -0.153 OA
ATOM     10  O   UNL     1      -8.146   3.068   8.202  0.00  0.00    -0.153 OA
BRANCH   8  11
ATOM     11  C   UNL     1     -10.400   4.096   7.556  0.00  0.00    +0.125 A 
ATOM     12  C   UNL     1     -11.723   3.941   7.925  0.00  0.00    +0.050 A 
ATOM     13  C   UNL     1     -12.563   5.040   7.967  0.00  0.00    +0.043 A 
ATOM     14  C   UNL     1     -12.080   6.293   7.631  0.00  0.00    +0.021 A 
ATOM     15  C   UNL     1     -10.759   6.447   7.257  0.00  0.00    +0.023 A 
ATOM     16  C   UNL     1      -9.918   5.348   7.220  0.00  0.00    +0.067 A 
ATOM     17 CL   UNL     1      -8.258   5.542   6.751  0.00  0.00    -0.082 Cl
ATOM     18 CL   UNL     1     -14.223   4.847   8.436  0.00  0.00    -0.083 Cl
ENDBRANCH   8  11
ENDBRANCH   3   8
BRANCH   6  19
ATOM     19  C   UNL     1      -7.049   0.267   2.867  0.00  0.00    -0.045 C 
BRANCH  19  20
ATOM     20  C   UNL     1      -5.976   0.983   2.044  0.00  0.00    +0.124 C 
BRANCH  20  21
ATOM     21  O   UNL     1      -6.595   1.951   1.194  0.00  0.00    -0.391 OA
ATOM     22  H   UNL     1      -7.231   1.577   0.570  0.00  0.00    +0.210 HD
ENDBRANCH  20  21
BRANCH  20  23
ATOM     23  C   UNL     1      -5.223  -0.038   1.189  0.00  0.00    +0.190 C 
BRANCH  23  24
ATOM     24  O   UNL     1      -4.146   0.611   0.509  0.00  0.00    -0.370 OA
BRANCH  24  26
ATOM     25  C   UNL     1      -3.973  -0.285  -1.729  0.00  0.00    +0.043 C 
ATOM     26  C   UNL     1      -3.375  -0.259  -0.321  0.00  0.00    +0.145 C 
BRANCH  26  27
ATOM     27  C   UNL     1      -1.954   0.240  -0.388  0.00  0.00    -0.019 A 
ATOM     28  C   UNL     1      -0.908  -0.661  -0.460  0.00  0.00    +0.007 A 
ATOM     29  C   UNL     1       0.395  -0.203  -0.528  0.00  0.00    +0.020 A 
ATOM     30  C   UNL     1       0.651   1.156  -0.518  0.00  0.00    +0.041 A 
ATOM     31  C   UNL     1      -0.396   2.057  -0.441  0.00  0.00    +0.020 A 
ATOM     32  C   UNL     1      -1.698   1.598  -0.373  0.00  0.00    +0.007 A 
ATOM     33 CL   UNL     1       2.287   1.731  -0.604  0.00  0.00    -0.084 Cl
ENDBRANCH  26  27
ENDBRANCH  24  26
ENDBRANCH  23  24
ENDBRANCH  20  23
ENDBRANCH  19  20
ENDBRANCH   6  19
TORSDOF 9
