REMARK  Name = ZINC02136682
REMARK  9 active torsions:
REMARK  status: ('A' for Active; 'I' for Inactive)
REMARK    1  A    between atoms: C_1  and  C_2
REMARK    2  A    between atoms: C_2  and  C_3
REMARK    3  A    between atoms: C_17  and  C_19
REMARK    4  A    between atoms: C_19  and  C_20
REMARK    5  A    between atoms: C_20  and  C_21
REMARK    6  A    between atoms: N_26  and  C_29
REMARK    7  A    between atoms: C_29  and  C_30
REMARK    8  A    between atoms: C_35  and  O_36
REMARK    9  A    between atoms: O_36  and  C_37
REMARK                            x       y       z     vdW  Elec       q    Type
REMARK                         _______ _______ _______ _____ _____    ______ ____
ROOT
ATOM      1  C   UNL     1      -0.348   0.568   4.621  0.00  0.00    -0.026 A 
ATOM      2  C   UNL     1      -0.878  -0.703   4.699  0.00  0.00    +0.005 A 
ATOM      3  C   UNL     1      -1.440  -1.295   3.583  0.00  0.00    +0.001 A 
ATOM      4  C   UNL     1      -1.472  -0.609   2.382  0.00  0.00    +0.004 A 
ATOM      5  C   UNL     1      -0.944   0.660   2.299  0.00  0.00    -0.027 A 
ATOM      6  C   UNL     1      -0.375   1.266   3.416  0.00  0.00    +0.039 A 
ATOM      7  N   UNL     1       0.091   2.541   3.089  0.00  0.00    -0.286 N 
ATOM      8  C   UNL     1      -0.128   2.845   1.795  0.00  0.00    +0.211 C 
ATOM      9  O   UNL     1       0.172   3.877   1.233  0.00  0.00    -0.277 OA
ATOM     10  C   UNL     1      -0.817   1.656   1.182  0.00  0.00    +0.050 C 
ATOM     11  C   UNL     1      -0.013   1.086   0.008  0.00  0.00    +0.088 C 
ATOM     12  C   UNL     1      -0.671   1.685  -1.266  0.00  0.00    +0.073 C 
ATOM     13  C   UNL     1      -1.804   2.591  -0.736  0.00  0.00    -0.057 C 
ATOM     14  C   UNL     1       0.423   2.550  -1.849  0.00  0.00    +0.224 C 
ATOM     15  O   UNL     1       0.331   3.207  -2.864  0.00  0.00    -0.275 OA
ATOM     16  N   UNL     1       1.510   2.477  -1.072  0.00  0.00    -0.237 N 
ATOM     17  C   UNL     1       1.375   1.685  -0.002  0.00  0.00    +0.225 C 
ATOM     18  O   UNL     1       2.233   1.480   0.830  0.00  0.00    -0.275 OA
ATOM     19  H   UNL     1       0.522   3.138   3.720  0.00  0.00    +0.155 HD
ATOM     20  N   UNL     1      -2.100   2.048   0.593  0.00  0.00    +0.394 N 
ATOM     21  H   UNL     1      -2.553   2.762   1.175  0.00  0.00    -0.083 HD
ATOM     22  H   UNL     1      -2.717   1.231   0.512  0.00  0.00    -0.083 HD
ENDROOT
BRANCH   1  24
ATOM     23  C   UNL     1      -0.782   2.077   6.540  0.00  0.00    +0.009 C 
ATOM     24  C   UNL     1       0.263   1.204   5.843  0.00  0.00    +0.033 C 
ENDBRANCH   1  24
BRANCH  13  25
ATOM     25  C   UNL     1      -3.024   2.510  -1.655  0.00  0.00    -0.006 C 
BRANCH  25  26
ATOM     26  C   UNL     1      -4.085   3.506  -1.183  0.00  0.00    +0.094 C 
BRANCH  26  27
ATOM     27  C   UNL     1      -5.287   3.426  -2.089  0.00  0.00    +0.210 C 
ATOM     28  O   UNL     1      -5.294   2.650  -3.020  0.00  0.00    -0.276 OA
ATOM     29  N   UNL     1      -6.354   4.219  -1.864  0.00  0.00    -0.329 N 
ATOM     30  H   UNL     1      -6.348   4.840  -1.119  0.00  0.00    +0.145 HD
ATOM     31  H   UNL     1      -7.128   4.168  -2.447  0.00  0.00    +0.145 HD
ENDBRANCH  26  27
ENDBRANCH  25  26
ENDBRANCH  13  25
BRANCH  16  32
ATOM     32  C   UNL     1       2.746   3.206  -1.368  0.00  0.00    +0.155 C 
BRANCH  32  33
ATOM     33  C   UNL     1       3.639   2.350  -2.228  0.00  0.00    +0.012 A 
ATOM     34  C   UNL     1       4.690   1.656  -1.659  0.00  0.00    +0.009 A 
ATOM     35  C   UNL     1       5.509   0.871  -2.448  0.00  0.00    +0.001 A 
ATOM     36  C   UNL     1       5.280   0.778  -3.809  0.00  0.00    +0.004 A 
ATOM     37  C   UNL     1       4.231   1.469  -4.383  0.00  0.00    +0.046 A 
ATOM     38  C   UNL     1       3.404   2.254  -3.592  0.00  0.00    +0.125 A 
BRANCH  38  39
ATOM     39  O   UNL     1       2.368   2.932  -4.154  0.00  0.00    -0.495 OA
ATOM     40  C   UNL     1       2.186   2.786  -5.564  0.00  0.00    +0.277 C 
ENDBRANCH  38  39
ENDBRANCH  32  33
ENDBRANCH  16  32
TORSDOF 7
