REMARK  Name = ZINC21289699
REMARK  4 active torsions:
REMARK  status: ('A' for Active; 'I' for Inactive)
REMARK    1  A    between atoms: C_1  and  C_2
REMARK    2  A    between atoms: C_2  and  C_3
REMARK    3  A    between atoms: C_9  and  C_11
REMARK    4  A    between atoms: C_12  and  C_22
REMARK                            x       y       z     vdW  Elec       q    Type
REMARK                         _______ _______ _______ _____ _____    ______ ____
ROOT
ATOM      1  C   UNL     1      -7.372  -2.729   0.285  0.00  0.00    +0.092 A 
ATOM      2  C   UNL     1      -8.491  -1.987   0.514  0.00  0.00    +0.117 A 
ATOM      3  O   UNL     1      -9.498  -2.793   0.876  0.00  0.00    -0.441 OA
ATOM      4  C   UNL     1      -9.111  -4.079   0.904  0.00  0.00    +0.235 A 
ATOM      5  C   UNL     1      -7.767  -4.125   0.533  0.00  0.00    +0.116 A 
ATOM      6  C   UNL     1      -7.111  -5.374   0.477  0.00  0.00    +0.263 A 
ATOM      7  O   UNL     1      -5.936  -5.451   0.160  0.00  0.00    -0.267 OA
ATOM      8  N   UNL     1      -7.823  -6.482   0.785  0.00  0.00    -0.313 N 
ATOM      9  H   UNL     1      -7.399  -7.354   0.755  0.00  0.00    +0.170 HD
ATOM     10  C   UNL     1      -9.129  -6.374   1.136  0.00  0.00    +0.203 A 
ATOM     11  N   UNL     1      -9.743  -5.226   1.198  0.00  0.00    -0.202 NA
ATOM     12  C   UNL     1      -8.582  -0.489   0.383  0.00  0.00    +0.087 C 
ENDROOT
BRANCH   1  19
ATOM     13  C   UNL     1      -1.412  -0.526   0.013  0.00  0.00    +0.103 A 
ATOM     14  N   UNL     1      -2.214  -0.819  -0.991  0.00  0.00    -0.145 NA
ATOM     15  N   UNL     1      -3.385  -1.252  -0.811  0.00  0.00    -0.126 NA
ATOM     16  C   UNL     1      -3.882  -1.440   0.404  0.00  0.00    +0.188 A 
ATOM     17  S   UNL     1      -2.478  -0.931   1.393  0.00  0.00    -0.035 S 
ATOM     18  N   UNL     1      -5.132  -1.903   0.797  0.00  0.00    -0.259 N 
ATOM     19  C   UNL     1      -6.049  -2.239  -0.132  0.00  0.00    +0.254 C 
ATOM     20  O   UNL     1      -5.782  -2.137  -1.314  0.00  0.00    -0.270 OA
ATOM     21  H   UNL     1      -5.344  -1.984   1.740  0.00  0.00    +0.157 HD
BRANCH  13  23
ATOM     22  C   UNL     1      -0.019   1.526   0.010  0.00  0.00    +0.011 C 
ATOM     23  C   UNL     1       0.002  -0.004   0.002  0.00  0.00    +0.061 C 
ENDBRANCH  13  23
ENDBRANCH   1  19
TORSDOF 2
