REMARK  Name = ZINC44563400
REMARK  6 active torsions:
REMARK  status: ('A' for Active; 'I' for Inactive)
REMARK    1  A    between atoms: C_1  and  N_2
REMARK    2  A    between atoms: C_7  and  C_9
REMARK    3  A    between atoms: C_9  and  N_10
REMARK    4  A    between atoms: N_10  and  S_11
REMARK    5  A    between atoms: S_11  and  C_14
REMARK    6  A    between atoms: C_17  and  N_21
REMARK                            x       y       z     vdW  Elec       q    Type
REMARK                         _______ _______ _______ _____ _____    ______ ____
ROOT
ATOM      1  S   UNL     1       3.204   2.759   1.702  0.00  0.00    +0.059 S 
ATOM      2  O   UNL     1       2.818   4.126   1.671  0.00  0.00    -0.153 OA
ATOM      3  O   UNL     1       3.744   2.146   2.864  0.00  0.00    -0.153 OA
ENDROOT
BRANCH   1   4
ATOM      4  C   UNL     1       4.391   2.541   0.419  0.00  0.00    +0.119 A 
ATOM      5  C   UNL     1       5.587   1.900   0.687  0.00  0.00    +0.031 A 
ATOM      6  C   UNL     1       6.520   1.728  -0.316  0.00  0.00    +0.025 A 
ATOM      7  C   UNL     1       6.258   2.200  -1.596  0.00  0.00    +0.026 A 
ATOM      8  C   UNL     1       5.056   2.843  -1.863  0.00  0.00    +0.040 A 
ATOM      9  C   UNL     1       4.124   3.007  -0.856  0.00  0.00    +0.046 A 
ATOM     10 BR   UNL     1       2.484   3.876  -1.219  0.00  0.00    -0.048 Br
BRANCH   7  11
ATOM     11  N   UNL     1       7.200   2.028  -2.612  0.00  0.00    -0.358 N 
ATOM     12  H   UNL     1       8.039   1.579  -2.425  0.00  0.00    +0.142 HD
ATOM     13  H   UNL     1       7.016   2.357  -3.506  0.00  0.00    +0.142 HD
ENDBRANCH   7  11
ENDBRANCH   1   4
BRANCH   1  14
ATOM     14  N   UNL     1       1.864   1.880   1.283  0.00  0.00    -0.191 NA
ATOM     15  H   UNL     1       1.028   2.332   1.091  0.00  0.00    +0.148 HD
BRANCH  14  16
ATOM     16  C   UNL     1       1.942   0.419   1.202  0.00  0.00    +0.090 C 
BRANCH  16  23
ATOM     17  C   UNL     1       0.534  -0.056   3.585  0.00  0.00    -0.096 C 
ATOM     18  N   UNL     1      -0.207   0.306   2.369  0.00  0.00    +0.381 N 
ATOM     19  C   UNL     1      -1.538  -0.311   2.406  0.00  0.00    -0.079 C 
ATOM     20  C   UNL     1      -2.343   0.129   1.182  0.00  0.00    -0.019 C 
ATOM     21  C   UNL     1      -1.610  -0.311  -0.089  0.00  0.00    -0.003 C 
ATOM     22  C   UNL     1      -0.197   0.279  -0.081  0.00  0.00    -0.014 C 
ATOM     23  C   UNL     1       0.529  -0.167   1.190  0.00  0.00    -0.053 C 
ATOM     24  H   UNL     1      -0.305   1.310   2.322  0.00  0.00    -0.082 HD
ENDBRANCH  16  23
ENDBRANCH  14  16
ENDBRANCH   1  14
TORSDOF 5
