REMARK  Name = ZINC36160828
REMARK  4 active torsions:
REMARK  status: ('A' for Active; 'I' for Inactive)
REMARK    1  A    between atoms: C_1  and  C_2
REMARK    2  A    between atoms: C_8  and  C_9
REMARK    3  A    between atoms: C_8  and  N_11
REMARK    4  A    between atoms: C_9  and  N_10
REMARK                            x       y       z     vdW  Elec       q    Type
REMARK                         _______ _______ _______ _____ _____    ______ ____
ROOT
ATOM      1  C   UNL     1      -0.285   1.652   0.967  0.00  0.00    +0.009 C 
ATOM      2  C   UNL     1      -0.212   0.218   0.441  0.00  0.00    +0.004 C 
ATOM      3  C   UNL     1      -1.615  -0.391   0.421  0.00  0.00    +0.005 C 
ATOM      4  C   UNL     1      -2.188  -0.397   1.840  0.00  0.00    +0.000 C 
ATOM      5  C   UNL     1      -1.283  -1.229   2.752  0.00  0.00    +0.002 C 
ATOM      6  C   UNL     1       0.120  -0.621   2.771  0.00  0.00    +0.021 C 
ATOM      7  C   UNL     1       0.693  -0.615   1.352  0.00  0.00    +0.009 C 
ENDROOT
BRANCH   7   8
ATOM      8  N   UNL     1       2.041  -0.030   1.370  0.00  0.00    -0.295 NA
ATOM      9  C   UNL     1       2.833  -0.573   2.475  0.00  0.00    +0.107 C 
ATOM     10  C   UNL     1       4.037   0.334   2.748  0.00  0.00    +0.181 C 
ATOM     11  S   UNL     1       5.089   0.362   1.264  0.00  0.00    -0.029 S 
ATOM     12  O   UNL     1       6.012   1.435   1.383  0.00  0.00    -0.174 OA
ATOM     13  O   UNL     1       5.578  -0.952   1.031  0.00  0.00    -0.174 OA
ATOM     14  C   UNL     1       3.884   0.775  -0.035  0.00  0.00    +0.181 C 
ATOM     15  C   UNL     1       2.701  -0.193   0.073  0.00  0.00    +0.107 C 
ENDBRANCH   7   8
BRANCH   7  16
ATOM     16  C   UNL     1       0.766  -2.049   0.825  0.00  0.00    -0.064 C 
BRANCH  16  17
ATOM     17  N   UNL     1       1.323  -2.925   1.865  0.00  0.00    +0.379 N 
ATOM     18  H   UNL     1       1.157  -3.889   1.617  0.00  0.00    -0.090 HD
ATOM     19  H   UNL     1       2.316  -2.764   1.944  0.00  0.00    -0.090 HD
ATOM     20  H   UNL     1       0.877  -2.724   2.748  0.00  0.00    -0.090 HD
ENDBRANCH  16  17
ENDBRANCH   7  16
TORSDOF 3
