REMARK  Name = ZINC21045670
REMARK  11 active torsions:
REMARK  status: ('A' for Active; 'I' for Inactive)
REMARK    1  A    between atoms: C_1  and  C_2
REMARK    2  A    between atoms: C_2  and  C_3
REMARK    3  A    between atoms: C_4  and  C_33
REMARK    4  A    between atoms: N_10  and  C_19
REMARK    5  A    between atoms: C_11  and  C_13
REMARK    6  A    between atoms: C_19  and  C_20
REMARK    7  A    between atoms: N_22  and  C_23
REMARK    8  A    between atoms: C_24  and  C_29
REMARK    9  A    between atoms: C_26  and  C_28
REMARK   10  A    between atoms: C_29  and  O_31
REMARK   11  A    between atoms: O_31  and  C_32
REMARK                            x       y       z     vdW  Elec       q    Type
REMARK                         _______ _______ _______ _____ _____    ______ ____
ROOT
ATOM      1  C   UNL     1      -0.954   2.842   1.653  0.00  0.00    -0.034 A 
ATOM      2  C   UNL     1      -0.718   1.572   1.248  0.00  0.00    -0.010 A 
ATOM      3  S   UNL     1      -1.454   0.621   2.570  0.00  0.00    -0.099 S 
ATOM      4  C   UNL     1      -2.023   1.980   3.553  0.00  0.00    -0.016 A 
ATOM      5  C   UNL     1      -1.635   3.077   2.844  0.00  0.00    -0.037 A 
ATOM      6  C   UNL     1      -1.956   4.469   3.382  0.00  0.00    +0.018 C 
ATOM      7  C   UNL     1      -3.061   4.332   4.432  0.00  0.00    -0.072 C 
ATOM      8  N   UNL     1      -2.689   3.323   5.433  0.00  0.00    +0.393 N 
ATOM      9  C   UNL     1      -2.754   1.967   4.854  0.00  0.00    +0.001 C 
ATOM     10  C   UNL     1      -0.013   1.086   0.008  0.00  0.00    +0.052 C 
ATOM     11  H   UNL     1      -1.652   3.518   5.744  0.00  0.00    -0.080 HD
ENDROOT
BRANCH   9  12
ATOM     12  C   UNL     1      -2.106   0.981   5.792  0.00  0.00    -0.056 A 
ATOM     13  C   UNL     1      -0.958   1.332   6.478  0.00  0.00    +0.002 A 
ATOM     14  C   UNL     1      -0.366   0.430   7.341  0.00  0.00    +0.000 A 
ATOM     15  C   UNL     1      -0.916  -0.827   7.512  0.00  0.00    +0.000 A 
ATOM     16  C   UNL     1      -2.061  -1.179   6.822  0.00  0.00    +0.000 A 
ATOM     17  C   UNL     1      -2.656  -0.276   5.962  0.00  0.00    +0.002 A 
ENDBRANCH   9  12
BRANCH   1  19
ATOM     18  C   UNL     1      -1.578   4.387  -0.184  0.00  0.00    +0.009 C 
ATOM     19  C   UNL     1      -0.482   4.001   0.812  0.00  0.00    +0.033 C 
ENDBRANCH   1  19
BRANCH   8  20
ATOM     20  C   UNL     1      -3.538   3.427   6.627  0.00  0.00    +0.020 C 
BRANCH  20  21
ATOM     21  C   UNL     1      -3.261   4.732   7.328  0.00  0.00    +0.201 C 
ATOM     22  O   UNL     1      -2.438   5.500   6.878  0.00  0.00    -0.278 OA
ATOM     23  N   UNL     1      -3.929   5.046   8.456  0.00  0.00    -0.281 N 
ATOM     24  H   UNL     1      -4.676   4.350   8.865  0.00  0.00    +0.155 HD
BRANCH  23  25
ATOM     25  C   UNL     1      -3.674   6.246   9.101  0.00  0.00    +0.086 A 
ATOM     26  C   UNL     1      -4.255   6.743  10.263  0.00  0.00    +0.088 A 
ATOM     27  C   UNL     1      -3.796   8.034  10.717  0.00  0.00    +0.027 A 
ATOM     28  C   UNL     1      -2.850   8.644   9.980  0.00  0.00    -0.011 A 
ATOM     29  S   UNL     1      -2.551   7.488   8.659  0.00  0.00    -0.078 S 
ATOM     30  C   UNL     1      -2.198   9.981  10.217  0.00  0.00    +0.051 C 
BRANCH  26  31
ATOM     31  C   UNL     1      -5.281   5.993  10.991  0.00  0.00    +0.341 C 
ATOM     32  O   UNL     1      -5.646   4.907  10.581  0.00  0.00    -0.245 OA
BRANCH  31  33
ATOM     33  O   UNL     1      -5.822   6.506  12.115  0.00  0.00    -0.464 OA
ATOM     34  C   UNL     1      -6.833   5.708  12.784  0.00  0.00    +0.280 C 
ENDBRANCH  31  33
ENDBRANCH  26  31
ENDBRANCH  23  25
ENDBRANCH  20  21
ENDBRANCH   8  20
TORSDOF 7
