REMARK  Name = ZINC05164817
REMARK  7 active torsions:
REMARK  status: ('A' for Active; 'I' for Inactive)
REMARK    1  A    between atoms: C_1  and  N_43
REMARK    2  A    between atoms: C_8  and  N_19
REMARK    3  A    between atoms: C_9  and  N_18
REMARK    4  A    between atoms: N_13  and  C_14
REMARK    5  A    between atoms: C_14  and  C_15
REMARK    6  A    between atoms: C_15  and  O_16
REMARK    7  A    between atoms: O_16  and  C_17
REMARK                            x       y       z     vdW  Elec       q    Type
REMARK                         _______ _______ _______ _____ _____    ______ ____
ROOT
ATOM      1  C   UNL     1       4.199  -4.144   7.635  0.00  0.00    -0.096 C 
ATOM      2  C   UNL     1       4.259  -3.992   5.219  0.00  0.00    -0.060 C 
ATOM      3  C   UNL     1       3.527  -3.428   3.998  0.00  0.00    +0.088 C 
ATOM      4  N   UNL     1       2.179  -4.009   3.927  0.00  0.00    -0.317 N 
ATOM      5  C   UNL     1       1.411  -3.701   5.141  0.00  0.00    +0.088 C 
ATOM      6  C   UNL     1       2.143  -4.265   6.361  0.00  0.00    -0.060 C 
ATOM      7  C   UNL     1       1.511  -3.575   2.793  0.00  0.00    +0.159 A 
ATOM      8  C   UNL     1       1.109  -4.485   1.819  0.00  0.00    +0.205 A 
ATOM      9  C   UNL     1       0.441  -4.003   0.698  0.00  0.00    +0.154 A 
ATOM     10  N   UNL     1       0.210  -2.696   0.593  0.00  0.00    -0.197 NA
ATOM     11  C   UNL     1       0.607  -1.859   1.539  0.00  0.00    +0.219 A 
ATOM     12  N   UNL     1       1.250  -2.281   2.618  0.00  0.00    -0.197 NA
ATOM     13  N   UNL     1       0.348  -0.508   1.395  0.00  0.00    -0.311 N 
ATOM     14  H   UNL     1       0.633   0.117   2.080  0.00  0.00    +0.149 HD
ATOM     15  N   UNL     1       3.488  -3.656   6.434  0.00  0.00    +0.380 N 
ATOM     16  H   UNL     1       3.390  -2.636   6.496  0.00  0.00    -0.082 HD
ENDROOT
BRANCH   9  17
ATOM     17  N   UNL     1       0.023  -4.872  -0.298  0.00  0.00    -0.341 N 
ATOM     18  H   UNL     1      -0.442  -4.530  -1.077  0.00  0.00    +0.144 HD
ATOM     19  H   UNL     1       0.195  -5.824  -0.215  0.00  0.00    +0.144 HD
ENDBRANCH   9  17
BRANCH   8  20
ATOM     20  N   UNL     1       1.386  -5.931   1.974  0.00  0.00    +0.063 N 
ATOM     21  O   UNL     1       2.422  -6.402   1.541  0.00  0.00    -0.126 OA
ATOM     22  O   UNL     1       0.577  -6.649   2.533  0.00  0.00    -0.126 OA
ENDBRANCH   8  20
BRANCH  13  23
ATOM     23  C   UNL     1      -0.357  -0.019   0.207  0.00  0.00    +0.132 C 
BRANCH  23  24
ATOM     24  C   UNL     1      -0.513   1.500   0.295  0.00  0.00    +0.178 C 
BRANCH  24  25
ATOM     25  O   UNL     1       0.776   2.115   0.249  0.00  0.00    -0.381 OA
ATOM     26  C   UNL     1       0.743   3.542   0.325  0.00  0.00    +0.194 C 
ENDBRANCH  24  25
ENDBRANCH  23  24
ENDBRANCH  13  23
TORSDOF 5
