REMARK  Name = ZINC62240503
REMARK  10 active torsions:
REMARK  status: ('A' for Active; 'I' for Inactive)
REMARK    1  A    between atoms: C_1  and  C_2
REMARK    2  A    between atoms: C_2  and  C_3
REMARK    3  A    between atoms: C_3  and  C_4
REMARK    4  A    between atoms: C_4  and  N_5
REMARK    5  A    between atoms: C_9  and  C_11
REMARK    6  A    between atoms: C_11  and  C_12
REMARK    7  A    between atoms: C_11  and  N_13
REMARK    8  A    between atoms: N_13  and  C_14
REMARK    9  A    between atoms: C_14  and  C_15
REMARK   10  A    between atoms: C_15  and  C_21
REMARK                            x       y       z     vdW  Elec       q    Type
REMARK                         _______ _______ _______ _____ _____    ______ ____
ROOT
ATOM      1  N   UNL     1      -5.695  -7.985   0.542  0.00  0.00    +0.387 N 
ATOM      2  H   UNL     1      -5.041  -8.343  -0.137  0.00  0.00    -0.085 HD
ATOM      3  H   UNL     1      -5.553  -8.451   1.425  0.00  0.00    -0.085 HD
ENDROOT
BRANCH   1   4
ATOM      4  C   UNL     1      -5.483  -6.541   0.712  0.00  0.00    +0.013 C 
ATOM      5  C   UNL     1      -6.389  -6.020   1.829  0.00  0.00    -0.004 C 
BRANCH   4  10
ATOM      6  N   UNL     1      -1.897  -3.531   1.803  0.00  0.00    -0.299 N 
ATOM      7  C   UNL     1      -2.326  -4.792   1.598  0.00  0.00    +0.306 C 
ATOM      8  O   UNL     1      -1.550  -5.722   1.703  0.00  0.00    -0.252 OA
ATOM      9  N   UNL     1      -3.614  -5.022   1.276  0.00  0.00    -0.242 N 
ATOM     10  C   UNL     1      -4.042  -6.284   1.071  0.00  0.00    +0.206 C 
ATOM     11  O   UNL     1      -3.269  -7.211   1.176  0.00  0.00    -0.277 OA
ATOM     12  H   UNL     1      -2.516  -2.789   1.719  0.00  0.00    +0.150 HD
ATOM     13  H   UNL     1      -4.233  -4.280   1.192  0.00  0.00    +0.159 HD
BRANCH   6  14
ATOM     14  C   UNL     1      -0.497  -3.280   2.153  0.00  0.00    +0.106 C 
BRANCH  14  15
ATOM     15  C   UNL     1      -0.276  -1.777   2.329  0.00  0.00    +0.018 C 
BRANCH  15  17
ATOM     16  C   UNL     1       1.407  -0.012   2.871  0.00  0.00    +0.004 C 
ATOM     17  C   UNL     1       1.187  -1.515   2.694  0.00  0.00    -0.002 C 
ENDBRANCH  15  17
ENDBRANCH  14  15
ENDBRANCH   6  14
ENDBRANCH   4  10
ENDBRANCH   1   4
BRANCH   1  18
ATOM     18  C   UNL     1      -7.067  -8.227   0.075  0.00  0.00    -0.070 C 
BRANCH  18  19
ATOM     19  C   UNL     1      -7.247  -9.716  -0.227  0.00  0.00    -0.015 C 
ATOM     20  C   UNL     1      -8.714  -9.995  -0.570  0.00  0.00    +0.038 C 
ATOM     21  C   UNL     1      -9.585  -9.671   0.647  0.00  0.00    +0.160 C 
ATOM     22  O   UNL     1      -9.149 -10.448   1.764  0.00  0.00    -0.380 OA
ATOM     23  C   UNL     1      -7.799 -10.195   2.159  0.00  0.00    +0.160 C 
ATOM     24  C   UNL     1      -6.856 -10.540   1.004  0.00  0.00    +0.038 C 
BRANCH  19  25
ATOM     25  C   UNL     1      -6.373 -10.103  -1.392  0.00  0.00    -0.043 A 
ATOM     26  C   UNL     1      -5.663  -9.134  -2.075  0.00  0.00    +0.005 A 
ATOM     27  C   UNL     1      -4.861  -9.488  -3.143  0.00  0.00    +0.020 A 
ATOM     28  C   UNL     1      -4.768 -10.814  -3.529  0.00  0.00    +0.041 A 
ATOM     29  C   UNL     1      -5.479 -11.784  -2.844  0.00  0.00    +0.020 A 
ATOM     30  C   UNL     1      -6.277 -11.428  -1.773  0.00  0.00    +0.005 A 
ATOM     31 CL   UNL     1      -3.761 -11.260  -4.870  0.00  0.00    -0.084 Cl
ENDBRANCH  19  25
ENDBRANCH  18  19
ENDBRANCH   1  18
TORSDOF 8
