REMARK  Name = ZINC45960991
REMARK  5 active torsions:
REMARK  status: ('A' for Active; 'I' for Inactive)
REMARK    1  A    between atoms: C_4  and  C_7
REMARK    2  A    between atoms: C_7  and  N_8
REMARK    3  A    between atoms: C_17  and  O_18
REMARK    4  A    between atoms: C_19  and  N_20
REMARK    5  A    between atoms: N_23  and  C_24
REMARK                            x       y       z     vdW  Elec       q    Type
REMARK                         _______ _______ _______ _____ _____    ______ ____
ROOT
ATOM      1  N   UNL     1       5.423  -1.042   0.635  0.00  0.00    -0.378 N 
ATOM      2  C   UNL     1       5.040  -2.040   1.403  0.00  0.00    +0.075 A 
ATOM      3  C   UNL     1       5.511  -2.163   2.801  0.00  0.00    +0.042 A 
ATOM      4  C   UNL     1       6.377  -1.227   3.358  0.00  0.00    +0.013 A 
ATOM      5  C   UNL     1       6.793  -1.377   4.664  0.00  0.00    +0.001 A 
ATOM      6  C   UNL     1       6.351  -2.453   5.418  0.00  0.00    +0.004 A 
ATOM      7  C   UNL     1       5.492  -3.386   4.876  0.00  0.00    +0.047 A 
ATOM      8  C   UNL     1       5.063  -3.252   3.562  0.00  0.00    +0.141 A 
ATOM      9  O   UNL     1       4.222  -4.154   3.014  0.00  0.00    -0.424 OA
ATOM     10  C   UNL     1       3.785  -4.057   1.748  0.00  0.00    +0.309 A 
ATOM     11  C   UNL     1       4.149  -3.044   0.925  0.00  0.00    +0.140 A 
ATOM     12  H   UNL     1       5.926  -0.304   1.014  0.00  0.00    +0.160 HD
ENDROOT
BRANCH  11  13
ATOM     13  N   UNL     1       3.655  -2.987  -0.395  0.00  0.00    -0.262 N 
ATOM     14  C   UNL     1       2.735  -2.062  -0.730  0.00  0.00    +0.308 C 
ATOM     15  O   UNL     1       2.276  -1.323   0.121  0.00  0.00    -0.252 OA
ATOM     16  N   UNL     1       2.322  -1.954  -2.009  0.00  0.00    -0.269 N 
ATOM     17  H   UNL     1       3.977  -3.615  -1.061  0.00  0.00    +0.157 HD
ATOM     18  H   UNL     1       2.638  -2.584  -2.675  0.00  0.00    +0.156 HD
BRANCH  16  19
ATOM     19  C   UNL     1       1.439  -0.932  -2.376  0.00  0.00    +0.036 A 
ATOM     20  C   UNL     1       1.554  -0.327  -3.621  0.00  0.00    +0.023 A 
ATOM     21  C   UNL     1       0.681   0.681  -3.980  0.00  0.00    +0.003 A 
ATOM     22  C   UNL     1      -0.306   1.089  -3.102  0.00  0.00    +0.020 A 
ATOM     23  C   UNL     1      -0.423   0.489  -1.861  0.00  0.00    +0.043 A 
ATOM     24  C   UNL     1       0.444  -0.525  -1.498  0.00  0.00    +0.043 A 
ATOM     25 CL   UNL     1      -1.663   1.005  -0.761  0.00  0.00    -0.083 Cl
ENDBRANCH  16  19
ENDBRANCH  11  13
BRANCH  10  26
ATOM     26  O   UNL     1       2.943  -5.006   1.277  0.00  0.00    -0.479 OA
ATOM     27  H   UNL     1       2.724  -5.693   1.922  0.00  0.00    +0.295 HD
ENDBRANCH  10  26
BRANCH   1  28
ATOM     28  C   UNL     1       5.090  -1.045  -0.791  0.00  0.00    +0.148 C 
BRANCH  28  32
ATOM     29  C   UNL     1       7.853   1.433  -2.906  0.00  0.00    +0.000 A 
ATOM     30  C   UNL     1       8.125   0.090  -2.729  0.00  0.00    +0.000 A 
ATOM     31  C   UNL     1       7.231  -0.712  -2.044  0.00  0.00    +0.005 A 
ATOM     32  C   UNL     1       6.065  -0.170  -1.537  0.00  0.00    -0.028 A 
ATOM     33  C   UNL     1       5.794   1.174  -1.713  0.00  0.00    +0.005 A 
ATOM     34  C   UNL     1       6.687   1.975  -2.399  0.00  0.00    +0.000 A 
ENDBRANCH  28  32
ENDBRANCH   1  28
TORSDOF 5
