REMARK  Name = ZINC36497370
REMARK  13 active torsions:
REMARK  status: ('A' for Active; 'I' for Inactive)
REMARK    1  A    between atoms: C_1  and  C_2
REMARK    2  A    between atoms: C_2  and  C_3
REMARK    3  A    between atoms: C_3  and  C_4
REMARK    4  A    between atoms: C_4  and  N_5
REMARK    5  A    between atoms: C_6  and  C_8
REMARK    6  A    between atoms: C_8  and  C_10
REMARK    7  A    between atoms: C_8  and  N_19
REMARK    8  A    between atoms: C_11  and  O_18
REMARK    9  A    between atoms: C_13  and  O_17
REMARK   10  A    between atoms: C_15  and  O_16
REMARK   11  A    between atoms: N_19  and  C_20
REMARK   12  A    between atoms: C_20  and  C_21
REMARK   13  A    between atoms: C_26  and  C_28
REMARK                            x       y       z     vdW  Elec       q    Type
REMARK                         _______ _______ _______ _____ _____    ______ ____
ROOT
ATOM      1  C   UNL     1      -3.803  -4.490   0.265  0.00  0.00    +0.200 C 
ENDROOT
BRANCH   1   2
ATOM      2  C   UNL     1      -3.995  -3.968   1.665  0.00  0.00    +0.065 A 
ATOM      3  C   UNL     1      -3.428  -4.637   2.739  0.00  0.00    +0.129 A 
ATOM      4  C   UNL     1      -3.606  -4.156   4.028  0.00  0.00    +0.091 A 
ATOM      5  C   UNL     1      -4.349  -3.005   4.242  0.00  0.00    +0.124 A 
ATOM      6  C   UNL     1      -4.916  -2.336   3.168  0.00  0.00    +0.091 A 
ATOM      7  C   UNL     1      -4.735  -2.814   1.879  0.00  0.00    +0.129 A 
BRANCH   7   8
ATOM      8  O   UNL     1      -5.286  -2.155   0.826  0.00  0.00    -0.506 OA
ATOM      9  H   UNL     1      -6.179  -2.450   0.601  0.00  0.00    +0.292 HD
ENDBRANCH   7   8
BRANCH   5  10
ATOM     10  O   UNL     1      -4.524  -2.534   5.505  0.00  0.00    -0.507 OA
ATOM     11  H   UNL     1      -3.843  -1.909   5.789  0.00  0.00    +0.292 HD
ENDBRANCH   5  10
BRANCH   3  12
ATOM     12  O   UNL     1      -2.699  -5.764   2.529  0.00  0.00    -0.506 OA
ATOM     13  H   UNL     1      -1.747  -5.611   2.466  0.00  0.00    +0.292 HD
ENDBRANCH   3  12
ENDBRANCH   1   2
BRANCH   1  15
ATOM     14  N   UNL     1      -1.479  -3.663   0.085  0.00  0.00    -0.313 N 
ATOM     15  C   UNL     1      -2.334  -4.702   0.005  0.00  0.00    +0.238 C 
ATOM     16  O   UNL     1      -1.921  -5.807  -0.276  0.00  0.00    -0.273 OA
ATOM     17  H   UNL     1      -1.809  -2.779   0.310  0.00  0.00    +0.149 HD
BRANCH  14  18
ATOM     18  C   UNL     1      -0.050  -3.869  -0.167  0.00  0.00    +0.104 C 
BRANCH  18  19
ATOM     19  C   UNL     1       0.691  -2.540  -0.012  0.00  0.00    +0.018 C 
BRANCH  19  21
ATOM     20  C   UNL     1       2.925  -1.425  -0.121  0.00  0.00    +0.004 C 
ATOM     21  C   UNL     1       2.183  -2.755  -0.276  0.00  0.00    -0.002 C 
ENDBRANCH  19  21
ENDBRANCH  18  19
ENDBRANCH  14  18
ENDBRANCH   1  15
BRANCH   1  22
ATOM     22  N   UNL     1      -4.513  -5.763   0.117  0.00  0.00    -0.274 N 
ATOM     23  C   UNL     1      -4.338  -6.508  -0.993  0.00  0.00    +0.248 C 
ATOM     24  O   UNL     1      -5.022  -7.496  -1.176  0.00  0.00    -0.270 OA
BRANCH  23  25
ATOM     25  C   UNL     1      -3.314  -6.123  -1.986  0.00  0.00    +0.037 A 
ATOM     26  C   UNL     1      -2.850  -4.807  -2.042  0.00  0.00    +0.014 A 
ATOM     27  C   UNL     1      -1.895  -4.454  -2.971  0.00  0.00    +0.021 A 
ATOM     28  C   UNL     1      -1.394  -5.402  -3.848  0.00  0.00    +0.041 A 
ATOM     29  C   UNL     1      -1.850  -6.709  -3.798  0.00  0.00    +0.021 A 
ATOM     30  C   UNL     1      -2.802  -7.075  -2.870  0.00  0.00    +0.014 A 
ATOM     31 CL   UNL     1      -0.192  -4.950  -5.016  0.00  0.00    -0.084 Cl
ENDBRANCH  23  25
BRANCH  22  32
ATOM     32  C   UNL     1      -5.414  -6.227   1.175  0.00  0.00    +0.183 C 
BRANCH  32  33
ATOM     33  C   UNL     1      -6.833  -5.859   0.824  0.00  0.00    +0.122 A 
ATOM     34  C   UNL     1      -7.725  -6.660   0.214  0.00  0.00    +0.046 A 
ATOM     35  C   UNL     1      -8.920  -5.916   0.082  0.00  0.00    +0.041 A 
ATOM     36  C   UNL     1      -8.686  -4.705   0.618  0.00  0.00    +0.195 A 
ATOM     37  O   UNL     1      -7.422  -4.678   1.071  0.00  0.00    -0.466 OA
ENDBRANCH  32  33
ENDBRANCH  22  32
ENDBRANCH   1  22
TORSDOF 12
