REMARK  Name = ZINC20814595
REMARK  7 active torsions:
REMARK  status: ('A' for Active; 'I' for Inactive)
REMARK    1  A    between atoms: C_1  and  C_2
REMARK    2  A    between atoms: C_2  and  C_32
REMARK    3  A    between atoms: C_6  and  N_23
REMARK    4  A    between atoms: C_10  and  N_22
REMARK    5  A    between atoms: C_11  and  C_13
REMARK    6  A    between atoms: C_13  and  C_15
REMARK    7  A    between atoms: N_30  and  C_31
REMARK                            x       y       z     vdW  Elec       q    Type
REMARK                         _______ _______ _______ _____ _____    ______ ____
ROOT
ATOM      1  C   UNL     1       0.049   1.217   1.169  0.00  0.00    +0.028 C 
ATOM      2  C   UNL     1      -0.033  -0.306   1.045  0.00  0.00    +0.020 C 
ATOM      3  C   UNL     1      -1.467  -0.720   0.710  0.00  0.00    +0.058 C 
ATOM      4  C   UNL     1      -2.359  -0.485   1.899  0.00  0.00    -0.027 A 
ATOM      5  C   UNL     1      -1.868  -0.298   3.149  0.00  0.00    +0.009 A 
ATOM      6  C   UNL     1      -2.747  -0.091   4.222  0.00  0.00    +0.104 A 
ATOM      7  N   UNL     1      -4.056  -0.072   4.028  0.00  0.00    -0.337 N 
ATOM      8  C   UNL     1      -4.569  -0.245   2.829  0.00  0.00    +0.089 A 
ATOM      9  C   UNL     1      -3.765  -0.462   1.688  0.00  0.00    +0.031 A 
ATOM     10  C   UNL     1      -4.494  -0.634   0.442  0.00  0.00    +0.052 A 
ATOM     11  C   UNL     1      -5.875  -0.573   0.478  0.00  0.00    +0.083 A 
ATOM     12  S   UNL     1      -6.229  -0.282   2.200  0.00  0.00    -0.065 S 
ATOM     13  C   UNL     1      -0.387  -0.299   3.430  0.00  0.00    +0.123 C 
ATOM     14  N   UNL     1       0.344  -0.928   2.325  0.00  0.00    -0.296 NA
ATOM     15  C   UNL     1       1.794  -0.850   2.542  0.00  0.00    +0.105 C 
ATOM     16  C   UNL     1       0.913  -0.785  -0.058  0.00  0.00    +0.028 C 
ATOM     17  H   UNL     1      -4.647   0.072   4.783  0.00  0.00    +0.168 HD
ENDROOT
BRANCH   6  18
ATOM     18  N   UNL     1      -2.240   0.096   5.499  0.00  0.00    -0.312 N 
ATOM     19  C   UNL     1      -1.828   1.430   5.963  0.00  0.00    +0.134 C 
ATOM     20  C   UNL     1      -2.492   1.697   7.319  0.00  0.00    +0.178 C 
ATOM     21  O   UNL     1      -2.218   0.605   8.200  0.00  0.00    -0.377 OA
ATOM     22  C   UNL     1      -2.749  -0.648   7.763  0.00  0.00    +0.178 C 
ATOM     23  C   UNL     1      -2.103  -1.034   6.432  0.00  0.00    +0.134 C 
ENDBRANCH   6  18
BRANCH  10  24
ATOM     24  N   UNL     1      -3.823  -0.852  -0.750  0.00  0.00    -0.356 N 
ATOM     25  H   UNL     1      -2.942  -1.258  -0.743  0.00  0.00    +0.142 HD
ATOM     26  H   UNL     1      -4.233  -0.599  -1.591  0.00  0.00    +0.142 HD
ENDBRANCH  10  24
BRANCH  11  27
ATOM     27  C   UNL     1      -6.786  -0.710  -0.592  0.00  0.00    +0.202 C 
ATOM     28  O   UNL     1      -6.384  -1.023  -1.699  0.00  0.00    -0.286 OA
BRANCH  27  29
ATOM     29  C   UNL     1      -8.229  -0.471  -0.370  0.00  0.00    +0.023 A 
ATOM     30  C   UNL     1      -8.652   0.342   0.682  0.00  0.00    +0.013 A 
ATOM     31  C   UNL     1      -9.998   0.560   0.884  0.00  0.00    +0.016 A 
ATOM     32  C   UNL     1     -10.931  -0.026   0.045  0.00  0.00    +0.018 A 
ATOM     33  C   UNL     1     -10.518  -0.835  -1.000  0.00  0.00    +0.016 A 
ATOM     34  C   UNL     1      -9.174  -1.055  -1.216  0.00  0.00    +0.013 A 
ATOM     35 BR   UNL     1     -12.776   0.278   0.329  0.00  0.00    -0.050 Br
ENDBRANCH  27  29
ENDBRANCH  11  27
TORSDOF 4
