REMARK  Name = ZINC20873082
REMARK  10 active torsions:
REMARK  status: ('A' for Active; 'I' for Inactive)
REMARK    1  A    between atoms: C_3  and  N_24
REMARK    2  A    between atoms: C_6  and  N_7
REMARK    3  A    between atoms: N_7  and  C_8
REMARK    4  A    between atoms: C_8  and  C_9
REMARK    5  A    between atoms: C_9  and  N_10
REMARK    6  A    between atoms: N_10  and  C_11
REMARK    7  A    between atoms: C_11  and  C_12
REMARK    8  A    between atoms: C_17  and  O_18
REMARK    9  A    between atoms: O_18  and  C_19
REMARK   10  A    between atoms: C_19  and  C_20
REMARK                            x       y       z     vdW  Elec       q    Type
REMARK                         _______ _______ _______ _____ _____    ______ ____
ROOT
ATOM      1  N   UNL     1       2.981   4.000  -1.370  0.00  0.00    +0.383 N 
ATOM      2  H   UNL     1       2.239   4.491  -2.016  0.00  0.00    -0.085 HD
ATOM      3  H   UNL     1       3.151   2.972  -1.722  0.00  0.00    -0.085 HD
ENDROOT
BRANCH   1   4
ATOM      4  C   UNL     1       4.243   4.749  -1.417  0.00  0.00    -0.063 C 
BRANCH   4   5
ATOM      5  C   UNL     1       4.763   4.782  -2.855  0.00  0.00    +0.082 C 
BRANCH   5   6
ATOM      6  N   UNL     1       6.023   5.529  -2.902  0.00  0.00    -0.346 N 
ATOM      7  H   UNL     1       6.442   5.959  -1.981  0.00  0.00    +0.146 HD
BRANCH   6  13
ATOM      8  C   UNL     1       6.167   5.147  -5.281  0.00  0.00    +0.025 A 
ATOM      9  C   UNL     1       6.828   5.317  -6.482  0.00  0.00    +0.034 A 
ATOM     10  C   UNL     1       8.017   6.022  -6.524  0.00  0.00    +0.126 A 
ATOM     11  C   UNL     1       8.544   6.564  -5.367  0.00  0.00    +0.034 A 
ATOM     12  C   UNL     1       7.886   6.402  -4.164  0.00  0.00    +0.025 A 
ATOM     13  C   UNL     1       6.692   5.694  -4.117  0.00  0.00    +0.027 A 
BRANCH  10  14
ATOM     14  N   UNL     1       8.725   6.198  -7.812  0.00  0.00    +0.056 N 
ATOM     15  O   UNL     1       9.772   6.819  -7.851  0.00  0.00    -0.126 OA
ATOM     16  O   UNL     1       8.261   5.721  -8.832  0.00  0.00    -0.126 OA
ENDBRANCH  10  14
ENDBRANCH   6  13
ENDBRANCH   5   6
ENDBRANCH   4   5
ENDBRANCH   1   4
BRANCH   1  17
ATOM     17  C   UNL     1       2.450   3.947  -0.001  0.00  0.00    -0.043 C 
BRANCH  17  18
ATOM     18  C   UNL     1       1.158   3.173   0.008  0.00  0.00    -0.022 A 
ATOM     19  C   UNL     1      -0.050   3.844   0.023  0.00  0.00    +0.020 A 
ATOM     20  C   UNL     1      -1.237   3.134   0.030  0.00  0.00    +0.018 A 
ATOM     21  C   UNL     1      -1.218   1.751   0.017  0.00  0.00    +0.019 A 
ATOM     22  C   UNL     1      -0.013   1.076   0.008  0.00  0.00    +0.047 A 
ATOM     23  C   UNL     1       1.179   1.786   0.000  0.00  0.00    +0.123 A 
ATOM     24 BR   UNL     1      -2.888   4.055   0.050  0.00  0.00    -0.050 Br
BRANCH  23  25
ATOM     25  O   UNL     1       2.366   1.124  -0.015  0.00  0.00    -0.483 OA
BRANCH  25  26
ATOM     26  C   UNL     1       2.312  -0.304  -0.023  0.00  0.00    +0.324 C 
BRANCH  26  27
ATOM     27  C   UNL     1       3.713  -0.859  -0.040  0.00  0.00    +0.248 C 
ATOM     28  O   UNL     1       4.664  -0.106  -0.044  0.00  0.00    -0.272 OA
ATOM     29  N   UNL     1       3.909  -2.192  -0.049  0.00  0.00    -0.327 N 
ATOM     30  H   UNL     1       4.932  -2.598  -0.061  0.00  0.00    +0.145 HD
ATOM     31  H   UNL     1       3.047  -2.875  -0.045  0.00  0.00    +0.145 HD
ENDBRANCH  26  27
ENDBRANCH  25  26
ENDBRANCH  23  25
ENDBRANCH  17  18
ENDBRANCH   1  17
TORSDOF 10
