REMARK  Name = ZINC43258799
REMARK  7 active torsions:
REMARK  status: ('A' for Active; 'I' for Inactive)
REMARK    1  A    between atoms: C_1  and  C_2
REMARK    2  A    between atoms: C_2  and  C_3
REMARK    3  A    between atoms: C_3  and  C_5
REMARK    4  A    between atoms: C_3  and  N_20
REMARK    5  A    between atoms: C_5  and  C_7
REMARK    6  A    between atoms: C_5  and  N_13
REMARK    7  A    between atoms: C_16  and  O_19
REMARK                            x       y       z     vdW  Elec       q    Type
REMARK                         _______ _______ _______ _____ _____    ______ ____
ROOT
ATOM      1  C   UNL     1       0.750  -2.022  -1.128  0.00  0.00    +0.079 C 
ENDROOT
BRANCH   1   2
ATOM      2  C   UNL     1       1.495  -2.616  -2.295  0.00  0.00    +0.006 A 
ATOM      3  C   UNL     1       1.002  -3.177  -3.426  0.00  0.00    +0.014 A 
ATOM      4  C   UNL     1       1.884  -3.663  -4.373  0.00  0.00    +0.023 A 
ATOM      5  C   UNL     1       3.217  -3.565  -4.141  0.00  0.00    +0.055 A 
ATOM      6  S   UNL     1       3.257  -2.759  -2.549  0.00  0.00    -0.085 S 
ATOM      7 BR   UNL     1       4.659  -4.129  -5.226  0.00  0.00    -0.043 Br
ENDBRANCH   1   2
BRANCH   1   8
ATOM      8  N   UNL     1       1.423  -2.393   0.124  0.00  0.00    -0.296 NA
ATOM      9  C   UNL     1       0.708  -1.852   1.287  0.00  0.00    +0.087 C 
ATOM     10  C   UNL     1       1.512  -2.133   2.558  0.00  0.00    +0.047 C 
ATOM     11  C   UNL     1       1.705  -3.644   2.711  0.00  0.00    +0.117 C 
ATOM     12  C   UNL     1       2.409  -4.190   1.466  0.00  0.00    +0.047 C 
ATOM     13  C   UNL     1       1.578  -3.850   0.226  0.00  0.00    +0.087 C 
BRANCH  11  14
ATOM     14  O   UNL     1       2.504  -3.910   3.866  0.00  0.00    -0.392 OA
ATOM     15  H   UNL     1       2.666  -4.850   4.024  0.00  0.00    +0.210 HD
ENDBRANCH  11  14
ENDBRANCH   1   8
BRANCH   1  16
ATOM     16  C   UNL     1       0.726  -0.498  -1.261  0.00  0.00    -0.053 C 
BRANCH  16  17
ATOM     17  N   UNL     1       2.102   0.008  -1.349  0.00  0.00    +0.381 N 
ATOM     18  H   UNL     1       2.557  -0.393  -2.156  0.00  0.00    -0.090 HD
ATOM     19  H   UNL     1       2.087   1.013  -1.437  0.00  0.00    -0.090 HD
ATOM     20  H   UNL     1       2.609  -0.249  -0.515  0.00  0.00    -0.090 HD
ENDBRANCH  16  17
BRANCH  16  22
ATOM     21  C   UNL     1      -0.194   1.413  -2.582  0.00  0.00    +0.002 C 
ATOM     22  C   UNL     1      -0.042  -0.109  -2.526  0.00  0.00    -0.018 C 
ENDBRANCH  16  22
ENDBRANCH   1  16
TORSDOF 6
