REMARK  Name = ZINC15071855
REMARK  11 active torsions:
REMARK  status: ('A' for Active; 'I' for Inactive)
REMARK    1  A    between atoms: C_1  and  O_2
REMARK    2  A    between atoms: O_2  and  C_3
REMARK    3  A    between atoms: C_5  and  C_21
REMARK    4  A    between atoms: C_8  and  O_9
REMARK    5  A    between atoms: O_9  and  C_10
REMARK    6  A    between atoms: C_10  and  C_11
REMARK    7  A    between atoms: C_11  and  C_13
REMARK    8  A    between atoms: C_11  and  O_20
REMARK    9  A    between atoms: C_13  and  N_61
REMARK   10  A    between atoms: C_16  and  O_19
REMARK   11  A    between atoms: C_21  and  N_63
REMARK                            x       y       z     vdW  Elec       q    Type
REMARK                         _______ _______ _______ _____ _____    ______ ____
ROOT
ATOM      1  C   UNL     1       4.213   0.911   2.272  0.00  0.00    +0.162 A 
ATOM      2  C   UNL     1       5.541   1.287   2.403  0.00  0.00    +0.051 A 
ATOM      3  C   UNL     1       6.100   2.173   1.502  0.00  0.00    -0.060 A 
ATOM      4  C   UNL     1       5.339   2.683   0.466  0.00  0.00    +0.005 A 
ATOM      5  C   UNL     1       4.016   2.308   0.326  0.00  0.00    +0.049 A 
ATOM      6  C   UNL     1       3.449   1.419   1.226  0.00  0.00    +0.162 A 
ENDROOT
BRANCH   1   8
ATOM      7  C   UNL     1       4.504  -0.437   4.210  0.00  0.00    +0.277 C 
ATOM      8  O   UNL     1       3.660   0.043   3.162  0.00  0.00    -0.491 OA
ENDBRANCH   1   8
BRANCH   6   9
ATOM      9  O   UNL     1       2.147   1.049   1.091  0.00  0.00    -0.486 OA
BRANCH   9  10
ATOM     10  C   UNL     1       1.423   1.615  -0.003  0.00  0.00    +0.258 C 
BRANCH  10  11
ATOM     11  C   UNL     1      -0.013   1.086   0.008  0.00  0.00    +0.135 C 
BRANCH  11  12
ATOM     12  O   UNL     1      -0.682   1.547   1.184  0.00  0.00    -0.390 OA
ATOM     13  H   UNL     1      -0.732   2.510   1.256  0.00  0.00    +0.210 HD
ENDBRANCH  11  12
BRANCH  11  14
ATOM     14  C   UNL     1      -0.753   1.593  -1.232  0.00  0.00    -0.044 C 
BRANCH  14  20
ATOM     15  C   UNL     1      -2.154  -0.377  -1.367  0.00  0.00    -0.076 C 
ATOM     16  C   UNL     1      -3.589  -0.884  -1.206  0.00  0.00    +0.013 C 
ATOM     17  C   UNL     1      -4.478  -0.233  -2.269  0.00  0.00    +0.111 C 
ATOM     18  C   UNL     1      -4.398   1.290  -2.126  0.00  0.00    +0.013 C 
ATOM     19  C   UNL     1      -2.940   1.734  -2.260  0.00  0.00    -0.076 C 
ATOM     20  N   UNL     1      -2.142   1.091  -1.194  0.00  0.00    +0.382 N 
ATOM     21  H   UNL     1      -2.556   1.323  -0.283  0.00  0.00    -0.082 HD
BRANCH  17  22
ATOM     22  O   UNL     1      -5.829  -0.659  -2.088  0.00  0.00    -0.392 OA
ATOM     23  H   UNL     1      -5.954  -1.615  -2.166  0.00  0.00    +0.210 HD
ENDBRANCH  17  22
ENDBRANCH  14  20
ENDBRANCH  11  14
ENDBRANCH  10  11
ENDBRANCH   9  10
ENDBRANCH   6   9
BRANCH   3  24
ATOM     24  C   UNL     1       7.542   2.586   1.649  0.00  0.00    -0.042 C 
BRANCH  24  33
ATOM     25  C   UNL     1       8.970   4.370   2.451  0.00  0.00    -0.073 C 
ATOM     26  C   UNL     1       8.903   5.804   3.002  0.00  0.00    +0.024 C 
ATOM     27  C   UNL     1       8.116   5.767   4.272  0.00  0.00    -0.011 A 
ATOM     28  C   UNL     1       7.335   4.743   4.715  0.00  0.00    -0.054 A 
ATOM     29  C   UNL     1       6.694   4.933   5.937  0.00  0.00    +0.009 A 
ATOM     30  C   UNL     1       6.864   6.091   6.617  0.00  0.00    +0.045 A 
ATOM     31  S   UNL     1       7.966   6.995   5.539  0.00  0.00    -0.101 S 
ATOM     32  C   UNL     1       7.206   3.476   3.875  0.00  0.00    -0.042 C 
ATOM     33  N   UNL     1       7.601   3.801   2.484  0.00  0.00    +0.385 N 
ATOM     34  H   UNL     1       6.945   4.496   2.108  0.00  0.00    -0.081 HD
ENDBRANCH  24  33
ENDBRANCH   3  24
TORSDOF 10
