REMARK  Name = ZINC34698009
REMARK  6 active torsions:
REMARK  status: ('A' for Active; 'I' for Inactive)
REMARK    1  A    between atoms: C_3  and  C_11
REMARK    2  A    between atoms: C_5  and  C_7
REMARK    3  A    between atoms: C_16  and  C_18
REMARK    4  A    between atoms: C_18  and  N_19
REMARK    5  A    between atoms: C_25  and  C_27
REMARK    6  A    between atoms: C_31  and  C_33
REMARK                            x       y       z     vdW  Elec       q    Type
REMARK                         _______ _______ _______ _____ _____    ______ ____
ROOT
ATOM      1  C   UNL     1       3.619   2.200   0.004  0.00  0.00    +0.039 C 
ATOM      2  C   UNL     1       3.706   3.155   1.214  0.00  0.00    +0.116 C 
ATOM      3  N   UNL     1       4.395   4.358   0.693  0.00  0.00    -0.297 N 
ATOM      4  C   UNL     1       3.828   4.547  -0.663  0.00  0.00    +0.110 C 
ATOM      5  C   UNL     1       3.701   3.116  -1.235  0.00  0.00    -0.001 C 
ATOM      6  C   UNL     1       5.327   5.111   1.311  0.00  0.00    +0.247 C 
ATOM      7  O   UNL     1       5.645   4.864   2.458  0.00  0.00    -0.270 OA
ENDROOT
BRANCH   1  10
ATOM      8  C   UNL     1      -0.084   1.467   0.037  0.00  0.00    +0.001 A 
ATOM      9  C   UNL     1       1.117   2.152   0.025  0.00  0.00    +0.004 A 
ATOM     10  C   UNL     1       2.310   1.454   0.019  0.00  0.00    -0.042 A 
ATOM     11  C   UNL     1       2.303   0.071   0.025  0.00  0.00    +0.016 A 
ATOM     12  C   UNL     1       1.102  -0.613   0.039  0.00  0.00    +0.055 A 
ATOM     13  C   UNL     1      -0.092   0.085   0.043  0.00  0.00    +0.012 A 
BRANCH  12  14
ATOM     14  C   UNL     1       1.094  -2.120   0.045  0.00  0.00    +0.417 C 
ATOM     15  F   UNL     1       1.103  -2.581   1.366  0.00  0.00    -0.166 F 
ATOM     16  F   UNL     1      -0.057  -2.583  -0.602  0.00  0.00    -0.166 F 
ATOM     17  F   UNL     1       2.228  -2.595  -0.622  0.00  0.00    -0.166 F 
ENDBRANCH  12  14
ENDBRANCH   1  10
BRANCH   6  18
ATOM     18  C   UNL     1       5.963   6.237   0.594  0.00  0.00    +0.037 A 
ATOM     19  C   UNL     1       5.228   6.986  -0.327  0.00  0.00    +0.013 A 
ATOM     20  C   UNL     1       5.827   8.035  -0.992  0.00  0.00    +0.001 A 
ATOM     21  C   UNL     1       7.153   8.346  -0.748  0.00  0.00    +0.012 A 
ATOM     22  C   UNL     1       7.887   7.608   0.164  0.00  0.00    +0.056 A 
ATOM     23  C   UNL     1       7.298   6.559   0.840  0.00  0.00    +0.025 A 
BRANCH  22  24
ATOM     24  C   UNL     1       9.330   7.954   0.422  0.00  0.00    +0.417 C 
ATOM     25  F   UNL     1       9.697   9.047  -0.370  0.00  0.00    -0.166 F 
ATOM     26  F   UNL     1       9.497   8.280   1.773  0.00  0.00    -0.166 F 
ATOM     27  F   UNL     1      10.137   6.856   0.105  0.00  0.00    -0.166 F 
ENDBRANCH  22  24
ENDBRANCH   6  18
BRANCH   5  28
ATOM     28  C   UNL     1       4.931   2.765  -2.075  0.00  0.00    -0.073 C 
BRANCH  28  29
ATOM     29  N   UNL     1       4.926   3.564  -3.308  0.00  0.00    +0.380 N 
ATOM     30  C   UNL     1       3.766   3.190  -4.127  0.00  0.00    -0.079 C 
ATOM     31  C   UNL     1       3.711   4.075  -5.374  0.00  0.00    -0.019 C 
ATOM     32  C   UNL     1       4.995   3.884  -6.186  0.00  0.00    -0.004 C 
ATOM     33  C   UNL     1       6.201   4.205  -5.300  0.00  0.00    -0.019 C 
ATOM     34  C   UNL     1       6.164   3.316  -4.055  0.00  0.00    -0.079 C 
ATOM     35  H   UNL     1       4.867   4.543  -3.073  0.00  0.00    -0.082 HD
ENDBRANCH  28  29
ENDBRANCH   5  28
TORSDOF 6
