REMARK  Name = ZINC04168161
REMARK  14 active torsions:
REMARK  status: ('A' for Active; 'I' for Inactive)
REMARK    1  A    between atoms: C_1  and  O_2
REMARK    2  A    between atoms: O_2  and  C_3
REMARK    3  A    between atoms: C_6  and  O_35
REMARK    4  A    between atoms: C_7  and  C_9
REMARK    5  A    between atoms: C_12  and  C_23
REMARK    6  A    between atoms: C_18  and  N_22
REMARK    7  A    between atoms: C_19  and  C_20
REMARK    8  A    between atoms: C_25  and  O_33
REMARK    9  A    between atoms: C_26  and  O_31
REMARK   10  A    between atoms: C_27  and  O_29
REMARK   11  A    between atoms: O_29  and  C_30
REMARK   12  A    between atoms: O_31  and  C_32
REMARK   13  A    between atoms: O_33  and  C_34
REMARK   14  A    between atoms: O_35  and  C_36
REMARK                            x       y       z     vdW  Elec       q    Type
REMARK                         _______ _______ _______ _____ _____    ______ ____
ROOT
ATOM      1  C   UNL     1       1.293  -4.042  -2.106  0.00  0.00    +0.105 C 
ATOM      2  C   UNL     1       2.017  -4.821  -1.038  0.00  0.00    +0.054 A 
ATOM      3  C   UNL     1       3.380  -4.844  -0.731  0.00  0.00    +0.101 A 
ATOM      4  N   UNL     1       3.554  -5.670   0.283  0.00  0.00    -0.171 NA
ATOM      5  N   UNL     1       2.303  -6.194   0.646  0.00  0.00    -0.246 N 
ATOM      6  H   UNL     1       2.136  -6.827   1.362  0.00  0.00    +0.192 HD
ATOM      7  C   UNL     1       1.375  -5.662  -0.175  0.00  0.00    +0.223 A 
ATOM      8  O   UNL     1       0.034  -5.866  -0.213  0.00  0.00    -0.423 OA
ATOM      9  C   UNL     1      -0.634  -5.430  -1.301  0.00  0.00    +0.200 C 
ATOM     10  C   UNL     1      -0.109  -4.587  -2.219  0.00  0.00    +0.098 C 
ENDROOT
BRANCH   1  15
ATOM     11  C   UNL     1       0.701  -0.867  -0.145  0.00  0.00    +0.121 A 
ATOM     12  C   UNL     1       1.152   0.097  -1.035  0.00  0.00    +0.049 A 
ATOM     13  C   UNL     1       1.647  -0.279  -2.268  0.00  0.00    +0.049 A 
ATOM     14  C   UNL     1       1.694  -1.621  -2.617  0.00  0.00    +0.124 A 
ATOM     15  C   UNL     1       1.243  -2.585  -1.727  0.00  0.00    +0.011 A 
ATOM     16  C   UNL     1       0.752  -2.208  -0.491  0.00  0.00    +0.053 A 
BRANCH  11  18
ATOM     17  C   UNL     1       0.190   0.903   1.359  0.00  0.00    +0.277 C 
ATOM     18  O   UNL     1       0.213  -0.496   1.069  0.00  0.00    -0.495 OA
ENDBRANCH  11  18
BRANCH  14  19
ATOM     19  O   UNL     1       2.180  -1.992  -3.831  0.00  0.00    -0.495 OA
ATOM     20  C   UNL     1       2.518  -0.943  -4.742  0.00  0.00    +0.277 C 
ENDBRANCH  14  19
ENDBRANCH   1  15
BRANCH   3  21
ATOM     21  C   UNL     1       4.444  -4.075  -1.423  0.00  0.00    +0.010 A 
ATOM     22  C   UNL     1       4.445  -3.982  -2.813  0.00  0.00    +0.059 A 
ATOM     23  C   UNL     1       5.439  -3.264  -3.457  0.00  0.00    +0.166 A 
ATOM     24  C   UNL     1       6.436  -2.638  -2.718  0.00  0.00    +0.204 A 
ATOM     25  C   UNL     1       6.436  -2.730  -1.330  0.00  0.00    +0.166 A 
ATOM     26  C   UNL     1       5.440  -3.441  -0.683  0.00  0.00    +0.059 A 
BRANCH  25  27
ATOM     27  O   UNL     1       7.412  -2.117  -0.608  0.00  0.00    -0.491 OA
ATOM     28  C   UNL     1       7.351  -2.254   0.813  0.00  0.00    +0.277 C 
ENDBRANCH  25  27
BRANCH  24  29
ATOM     29  O   UNL     1       7.412  -1.933  -3.352  0.00  0.00    -0.488 OA
ATOM     30  C   UNL     1       7.163  -0.545  -3.585  0.00  0.00    +0.277 C 
ENDBRANCH  24  29
BRANCH  23  31
ATOM     31  O   UNL     1       5.440  -3.173  -4.814  0.00  0.00    -0.491 OA
ATOM     32  C   UNL     1       4.367  -3.812  -5.508  0.00  0.00    +0.277 C 
ENDBRANCH  23  31
ENDBRANCH   3  21
BRANCH   9  33
ATOM     33  N   UNL     1      -1.921  -5.869  -1.487  0.00  0.00    -0.328 N 
ATOM     34  H   UNL     1      -2.325  -6.475  -0.847  0.00  0.00    +0.145 HD
ATOM     35  H   UNL     1      -2.427  -5.573  -2.260  0.00  0.00    +0.145 HD
ENDBRANCH   9  33
BRANCH  10  36
ATOM     36  C   UNL     1      -0.913  -4.197  -3.338  0.00  0.00    +0.101 C 
ATOM     37  N   UNL     1      -1.550  -3.888  -4.226  0.00  0.00    -0.191 NA
ENDBRANCH  10  36
TORSDOF 9
