REMARK  Name = ZINC36513805
REMARK  18 active torsions:
REMARK  status: ('A' for Active; 'I' for Inactive)
REMARK    1  A    between atoms: C_1  and  C_2
REMARK    2  A    between atoms: C_2  and  C_3
REMARK    3  A    between atoms: C_3  and  C_4
REMARK    4  A    between atoms: C_4  and  C_5
REMARK    5  A    between atoms: C_5  and  C_6
REMARK    6  A    between atoms: C_6  and  N_7
REMARK    7  A    between atoms: N_7  and  C_8
REMARK    8  A    between atoms: C_8  and  C_10
REMARK    9  A    between atoms: C_8  and  C_19
REMARK   10  A    between atoms: C_11  and  O_18
REMARK   11  A    between atoms: C_13  and  O_17
REMARK   12  A    between atoms: C_15  and  O_16
REMARK   13  A    between atoms: N_21  and  C_22
REMARK   14  A    between atoms: C_22  and  C_23
REMARK   15  A    between atoms: C_23  and  C_24
REMARK   16  A    between atoms: C_24  and  C_25
REMARK   17  A    between atoms: C_26  and  C_28
REMARK   18  A    between atoms: C_30  and  N_35
REMARK                            x       y       z     vdW  Elec       q    Type
REMARK                         _______ _______ _______ _____ _____    ______ ____
ROOT
ATOM      1  C   UNL     1       3.074  -4.154  -3.784  0.00  0.00    +0.199 C 
ENDROOT
BRANCH   1   2
ATOM      2  C   UNL     1       3.454  -3.288  -4.957  0.00  0.00    +0.065 A 
ATOM      3  C   UNL     1       2.566  -2.333  -5.431  0.00  0.00    +0.129 A 
ATOM      4  C   UNL     1       2.916  -1.537  -6.511  0.00  0.00    +0.091 A 
ATOM      5  C   UNL     1       4.154  -1.694  -7.117  0.00  0.00    +0.124 A 
ATOM      6  C   UNL     1       5.041  -2.648  -6.642  0.00  0.00    +0.091 A 
ATOM      7  C   UNL     1       4.693  -3.442  -5.560  0.00  0.00    +0.129 A 
BRANCH   7   8
ATOM      8  O   UNL     1       5.565  -4.373  -5.092  0.00  0.00    -0.506 OA
ATOM      9  H   UNL     1       5.574  -5.195  -5.602  0.00  0.00    +0.292 HD
ENDBRANCH   7   8
BRANCH   3  10
ATOM     10  O   UNL     1       1.354  -2.179  -4.837  0.00  0.00    -0.506 OA
ATOM     11  H   UNL     1       1.293  -1.403  -4.263  0.00  0.00    +0.292 HD
ENDBRANCH   3  10
BRANCH   5  12
ATOM     12  O   UNL     1       4.496  -0.914  -8.175  0.00  0.00    -0.507 OA
ATOM     13  H   UNL     1       4.941  -0.091  -7.930  0.00  0.00    +0.292 HD
ENDBRANCH   5  12
ENDBRANCH   1   2
BRANCH   1  14
ATOM     14  C   UNL     1       3.216  -5.605  -4.163  0.00  0.00    +0.238 C 
ATOM     15  O   UNL     1       2.237  -6.249  -4.474  0.00  0.00    -0.273 OA
ATOM     16  N   UNL     1       4.432  -6.187  -4.157  0.00  0.00    -0.313 N 
ATOM     17  H   UNL     1       5.219  -5.664  -3.939  0.00  0.00    +0.149 HD
BRANCH  16  18
ATOM     18  C   UNL     1       4.564  -7.610  -4.481  0.00  0.00    +0.104 C 
BRANCH  18  19
ATOM     19  C   UNL     1       6.037  -8.016  -4.403  0.00  0.00    +0.018 C 
BRANCH  19  20
ATOM     20  C   UNL     1       6.176  -9.501  -4.741  0.00  0.00    -0.002 C 
ATOM     21  C   UNL     1       7.649  -9.907  -4.662  0.00  0.00    +0.004 C 
ENDBRANCH  19  20
ENDBRANCH  18  19
ENDBRANCH  16  18
ENDBRANCH   1  14
BRANCH   1  22
ATOM     22  N   UNL     1       1.685  -3.882  -3.406  0.00  0.00    -0.282 N 
ATOM     23  C   UNL     1       0.679  -4.264  -4.216  0.00  0.00    +0.251 C 
ATOM     24  O   UNL     1      -0.363  -4.673  -3.741  0.00  0.00    -0.270 OA
BRANCH  23  25
ATOM     25  C   UNL     1       0.841  -4.188  -5.681  0.00  0.00    +0.086 A 
ATOM     26  C   UNL     1       2.067  -4.509  -6.269  0.00  0.00    +0.049 A 
ATOM     27  C   UNL     1       2.212  -4.436  -7.637  0.00  0.00    +0.127 A 
ATOM     28  C   UNL     1       1.148  -4.044  -8.433  0.00  0.00    +0.036 A 
ATOM     29  C   UNL     1      -0.069  -3.724  -7.865  0.00  0.00    +0.054 A 
ATOM     30  C   UNL     1      -0.235  -3.798  -6.490  0.00  0.00    +0.191 A 
ATOM     31  O   UNL     1      -1.431  -3.489  -5.930  0.00  0.00    -0.287 OA
BRANCH  27  32
ATOM     32  N   UNL     1       3.511  -4.776  -8.260  0.00  0.00    +0.056 N 
ATOM     33  O   UNL     1       4.407  -5.223  -7.582  0.00  0.00    -0.126 OA
ATOM     34  O   UNL     1       3.677  -4.606  -9.445  0.00  0.00    -0.126 OA
ENDBRANCH  27  32
ENDBRANCH  23  25
BRANCH  22  35
ATOM     35  C   UNL     1       1.390  -3.193  -2.146  0.00  0.00    +0.109 C 
BRANCH  35  36
ATOM     36  C   UNL     1       1.087  -1.721  -2.429  0.00  0.00    +0.019 C 
BRANCH  36  37
ATOM     37  C   UNL     1       0.903  -0.975  -1.106  0.00  0.00    +0.002 C 
BRANCH  37  38
ATOM     38  C   UNL     1       0.600   0.498  -1.388  0.00  0.00    -0.000 C 
BRANCH  38  40
ATOM     39  C   UNL     1       0.113   2.717  -0.348  0.00  0.00    +0.004 C 
ATOM     40  C   UNL     1       0.416   1.244  -0.065  0.00  0.00    -0.003 C 
ENDBRANCH  38  40
ENDBRANCH  37  38
ENDBRANCH  36  37
ENDBRANCH  35  36
ENDBRANCH  22  35
ENDBRANCH   1  22
TORSDOF 16
