REMARK  Name = ZINC39631740
REMARK  14 active torsions:
REMARK  status: ('A' for Active; 'I' for Inactive)
REMARK    1  A    between atoms: C_1  and  C_2
REMARK    2  A    between atoms: C_2  and  S_3
REMARK    3  A    between atoms: S_3  and  C_4
REMARK    4  A    between atoms: C_5  and  C_10
REMARK    5  A    between atoms: C_14  and  C_23
REMARK    6  A    between atoms: N_25  and  C_26
REMARK    7  A    between atoms: C_26  and  C_28
REMARK    8  A    between atoms: C_26  and  C_29
REMARK    9  A    between atoms: C_29  and  C_30
REMARK   10  A    between atoms: C_30  and  C_31
REMARK   11  A    between atoms: C_31  and  C_32
REMARK   12  A    between atoms: C_32  and  C_33
REMARK   13  A    between atoms: C_32  and  C_34
REMARK   14  A    between atoms: C_32  and  O_35
REMARK                            x       y       z     vdW  Elec       q    Type
REMARK                         _______ _______ _______ _____ _____    ______ ____
ROOT
ATOM      1  C   UNL     1      -3.833  -2.764   0.093  0.00  0.00    +0.249 C 
ATOM      2  O   UNL     1      -3.931  -1.552   0.122  0.00  0.00    -0.270 OA
ATOM      3  N   UNL     1      -4.934  -3.525  -0.061  0.00  0.00    -0.296 N 
ATOM      4  C   UNL     1      -5.030  -5.003  -0.015  0.00  0.00    +0.121 C 
ATOM      5  C   UNL     1      -6.352  -5.285   0.734  0.00  0.00    +0.100 C 
ATOM      6  C   UNL     1      -7.197  -4.016   0.531  0.00  0.00    -0.004 C 
ATOM      7  C   UNL     1      -6.324  -3.073  -0.310  0.00  0.00    +0.115 C 
ATOM      8  C   UNL     1      -7.513  -3.371   1.877  0.00  0.00    -0.010 C 
ATOM      9  C   UNL     1      -8.401  -2.144   1.654  0.00  0.00    -0.082 C 
ATOM     10  N   UNL     1      -9.640  -2.550   0.979  0.00  0.00    +0.379 N 
ATOM     11  C   UNL     1      -9.333  -3.084  -0.353  0.00  0.00    -0.082 C 
ATOM     12  C   UNL     1      -8.485  -4.351  -0.215  0.00  0.00    -0.010 C 
ATOM     13  H   UNL     1     -10.102  -3.261   1.527  0.00  0.00    -0.086 HD
ATOM     14  H   UNL     1     -10.249  -1.751   0.888  0.00  0.00    -0.086 HD
ENDROOT
BRANCH   1  16
ATOM     15  C   UNL     1      -1.530  -2.844   1.069  0.00  0.00    +0.109 A 
ATOM     16  C   UNL     1      -2.510  -3.400   0.227  0.00  0.00    +0.069 A 
ATOM     17  C   UNL     1      -2.206  -4.568  -0.480  0.00  0.00    +0.017 A 
ATOM     18  C   UNL     1      -0.951  -5.127  -0.320  0.00  0.00    +0.020 A 
ATOM     19  C   UNL     1      -0.039  -4.522   0.527  0.00  0.00    +0.112 A 
ATOM     20  N   UNL     1      -0.341  -3.418   1.181  0.00  0.00    -0.248 NA
BRANCH  15  21
ATOM     21  S   UNL     1      -1.883  -1.373   1.972  0.00  0.00    -0.105 S 
BRANCH  21  23
ATOM     22  C   UNL     1      -0.522   0.226   3.726  0.00  0.00    +0.015 C 
ATOM     23  C   UNL     1      -0.351  -1.043   2.888  0.00  0.00    +0.072 C 
ENDBRANCH  21  23
ENDBRANCH  15  21
ENDBRANCH   1  16
BRANCH   5  24
ATOM     24  C   UNL     1      -7.048  -6.482   0.138  0.00  0.00    +0.218 C 
ATOM     25  O   UNL     1      -6.926  -6.729  -1.043  0.00  0.00    -0.275 OA
ATOM     26  N   UNL     1      -7.807  -7.277   0.918  0.00  0.00    -0.312 N 
ATOM     27  H   UNL     1      -7.905  -7.080   1.862  0.00  0.00    +0.149 HD
BRANCH  26  28
ATOM     28  C   UNL     1      -8.483  -8.441   0.338  0.00  0.00    +0.070 C 
ATOM     29  C   UNL     1      -9.820  -8.005  -0.265  0.00  0.00    +0.028 C 
BRANCH  28  30
ATOM     30  C   UNL     1      -8.732  -9.482   1.431  0.00  0.00    +0.022 C 
BRANCH  30  31
ATOM     31  C   UNL     1      -7.392 -10.009   1.948  0.00  0.00    +0.005 C 
BRANCH  31  32
ATOM     32  C   UNL     1      -7.641 -11.051   3.041  0.00  0.00    +0.034 C 
BRANCH  32  33
ATOM     33  C   UNL     1      -6.301 -11.578   3.558  0.00  0.00    +0.061 C 
ATOM     34  C   UNL     1      -5.485 -10.419   4.134  0.00  0.00    +0.041 C 
ATOM     35  C   UNL     1      -6.550 -12.620   4.651  0.00  0.00    +0.041 C 
BRANCH  33  36
ATOM     36  O   UNL     1      -5.578 -12.180   2.482  0.00  0.00    -0.389 OA
ATOM     37  H   UNL     1      -6.037 -12.924   2.068  0.00  0.00    +0.210 HD
ENDBRANCH  33  36
ENDBRANCH  32  33
ENDBRANCH  31  32
ENDBRANCH  30  31
ENDBRANCH  28  30
ENDBRANCH  26  28
ENDBRANCH   5  24
TORSDOF 10
