REMARK  Name = ZINC59170889
REMARK  6 active torsions:
REMARK  status: ('A' for Active; 'I' for Inactive)
REMARK    1  A    between atoms: C_1  and  C_2
REMARK    2  A    between atoms: C_2  and  O_3
REMARK    3  A    between atoms: O_3  and  C_4
REMARK    4  A    between atoms: N_12  and  C_13
REMARK    5  A    between atoms: C_20  and  C_22
REMARK    6  A    between atoms: C_22  and  N_24
REMARK                            x       y       z     vdW  Elec       q    Type
REMARK                         _______ _______ _______ _____ _____    ______ ____
ROOT
ATOM      1  C   UNL     1       1.153  -1.570  -1.266  0.00  0.00    +0.163 A 
ATOM      2  C   UNL     1       0.433  -2.302  -0.338  0.00  0.00    +0.049 A 
ATOM      3  C   UNL     1       0.189  -3.652  -0.539  0.00  0.00    +0.004 A 
ATOM      4  C   UNL     1       0.662  -4.286  -1.666  0.00  0.00    +0.012 A 
ATOM      5  C   UNL     1       1.395  -3.562  -2.614  0.00  0.00    +0.022 A 
ATOM      6  C   UNL     1       1.634  -2.190  -2.414  0.00  0.00    +0.179 A 
ATOM      7  O   UNL     1       2.332  -1.485  -3.339  0.00  0.00    -0.435 OA
ATOM      8  C   UNL     1       3.228  -2.173  -4.092  0.00  0.00    +0.209 A 
ATOM      9  N   UNL     1       4.405  -1.662  -4.380  0.00  0.00    -0.325 N 
ATOM     10  C   UNL     1       2.840  -3.513  -4.577  0.00  0.00    +0.064 A 
ATOM     11  C   UNL     1       1.915  -4.215  -3.817  0.00  0.00    +0.027 A 
ATOM     12  H   UNL     1       5.071  -2.203  -4.833  0.00  0.00    +0.169 HD
ENDROOT
BRANCH   9  13
ATOM     13  C   UNL     1       4.691  -0.368  -4.042  0.00  0.00    +0.043 A 
ATOM     14  C   UNL     1       3.755   0.642  -4.280  0.00  0.00    +0.026 A 
ATOM     15  C   UNL     1       4.049   1.945  -3.936  0.00  0.00    +0.003 A 
ATOM     16  C   UNL     1       5.268   2.253  -3.357  0.00  0.00    +0.020 A 
ATOM     17  C   UNL     1       6.200   1.258  -3.119  0.00  0.00    +0.043 A 
ATOM     18  C   UNL     1       5.916  -0.052  -3.452  0.00  0.00    +0.045 A 
ATOM     19 CL   UNL     1       7.726   1.656  -2.393  0.00  0.00    -0.083 Cl
ENDBRANCH   9  13
BRANCH  10  20
ATOM     20  C   UNL     1       3.417  -4.082  -5.804  0.00  0.00    +0.082 C 
ATOM     21  S   UNL     1       4.434  -3.126  -6.795  0.00  0.00    -0.035 S 
BRANCH  20  22
ATOM     22  N   UNL     1       3.144  -5.356  -6.149  0.00  0.00    -0.352 N 
ATOM     23  H   UNL     1       2.568  -5.898  -5.588  0.00  0.00    +0.143 HD
ATOM     24  H   UNL     1       3.525  -5.731  -6.958  0.00  0.00    +0.143 HD
ENDBRANCH  20  22
ENDBRANCH  10  20
BRANCH   1  25
ATOM     25  O   UNL     1       1.385  -0.246  -1.058  0.00  0.00    -0.489 OA
BRANCH  25  27
ATOM     26  C   UNL     1       1.220   1.810   0.202  0.00  0.00    +0.048 C 
ATOM     27  C   UNL     1       0.861   0.323   0.143  0.00  0.00    +0.226 C 
ENDBRANCH  25  27
ENDBRANCH   1  25
TORSDOF 5
