REMARK  Name = ZINC32106593
REMARK  18 active torsions:
REMARK  status: ('A' for Active; 'I' for Inactive)
REMARK    1  A    between atoms: C_1  and  C_2
REMARK    2  A    between atoms: C_2  and  C_39
REMARK    3  A    between atoms: C_4  and  N_11
REMARK    4  A    between atoms: C_6  and  C_9
REMARK    5  A    between atoms: C_6  and  C_10
REMARK    6  A    between atoms: N_7  and  O_8
REMARK    7  A    between atoms: N_13  and  C_28
REMARK    8  A    between atoms: N_15  and  C_17
REMARK    9  A    between atoms: C_19  and  C_26
REMARK   10  A    between atoms: C_19  and  C_27
REMARK   11  A    between atoms: N_20  and  O_25
REMARK   12  A    between atoms: C_21  and  C_23
REMARK   13  A    between atoms: C_21  and  C_24
REMARK   14  A    between atoms: C_30  and  C_37
REMARK   15  A    between atoms: C_30  and  C_38
REMARK   16  A    between atoms: N_31  and  O_36
REMARK   17  A    between atoms: C_32  and  C_34
REMARK   18  A    between atoms: C_32  and  C_35
REMARK                            x       y       z     vdW  Elec       q    Type
REMARK                         _______ _______ _______ _____ _____    ______ ____
ROOT
ATOM      1  N   UNL     1      -0.702   1.544   1.221  0.00  0.00    +0.398 N 
ATOM      2  C   UNL     1       0.034   1.144   2.429  0.00  0.00    +0.012 C 
ATOM      3  N   UNL     1      -0.656   1.670   3.615  0.00  0.00    -0.303 NA
ATOM      4  C   UNL     1      -2.038   1.175   3.678  0.00  0.00    +0.168 C 
ATOM      5  N   UNL     1      -2.755   1.574   2.459  0.00  0.00    -0.303 NA
ATOM      6  C   UNL     1      -2.084   1.047   1.262  0.00  0.00    +0.012 C 
ATOM      7  H   UNL     1      -0.736   2.643   1.191  0.00  0.00    -0.078 HD
ENDROOT
BRANCH   1  11
ATOM      8  C   UNL     1       3.453   2.010  -1.356  0.00  0.00    +0.030 C 
ATOM      9  C   UNL     1       2.146   1.191  -1.265  0.00  0.00    +0.040 C 
ATOM     10  C   UNL     1       1.412   1.636  -0.003  0.00  0.00    +0.009 C 
ATOM     11  C   UNL     1      -0.013   1.083   0.008  0.00  0.00    -0.061 C 
ATOM     12  C   UNL     1      -0.749   1.613  -1.222  0.00  0.00    +0.009 C 
ATOM     13  C   UNL     1      -0.042   1.165  -2.498  0.00  0.00    +0.040 C 
ATOM     14  N   UNL     1       1.383   1.422  -2.474  0.00  0.00    -0.180 NA
ATOM     15  C   UNL     1      -0.655   1.960  -3.673  0.00  0.00    +0.030 C 
ATOM     16  C   UNL     1      -0.334  -0.318  -2.752  0.00  0.00    +0.030 C 
ATOM     17  C   UNL     1       2.543  -0.284  -1.134  0.00  0.00    +0.030 C 
BRANCH  14  18
ATOM     18  O   UNL     1       2.059   0.899  -3.662  0.00  0.00    -0.311 OA
ATOM     19  H   UNL     1       1.592   1.005  -4.652  0.00  0.00    +0.237 HD
ENDBRANCH  14  18
ENDBRANCH   1  11
BRANCH   5  20
ATOM     20  C   UNL     1      -4.162   1.144   2.508  0.00  0.00    +0.059 C 
ATOM     21  C   UNL     1      -4.894   1.674   1.276  0.00  0.00    +0.043 C 
ATOM     22  C   UNL     1      -6.363   1.260   1.312  0.00  0.00    +0.043 C 
ATOM     23  N   UNL     1      -7.000   1.547   2.580  0.00  0.00    -0.180 NA
ATOM     24  C   UNL     1      -6.292   1.317   3.822  0.00  0.00    +0.043 C 
ATOM     25  C   UNL     1      -4.824   1.728   3.756  0.00  0.00    +0.043 C 
ATOM     26  C   UNL     1      -6.394  -0.151   4.253  0.00  0.00    +0.030 C 
ATOM     27  C   UNL     1      -6.964   2.165   4.925  0.00  0.00    +0.030 C 
ATOM     28  C   UNL     1      -6.485  -0.226   0.955  0.00  0.00    +0.030 C 
ATOM     29  C   UNL     1      -7.098   2.057   0.211  0.00  0.00    +0.030 C 
BRANCH  23  30
ATOM     30  O   UNL     1      -8.377   1.056   2.630  0.00  0.00    -0.311 OA
ATOM     31  H   UNL     1      -8.982   1.206   3.537  0.00  0.00    +0.237 HD
ENDBRANCH  23  30
ENDBRANCH   5  20
BRANCH   3  32
ATOM     32  C   UNL     1       0.081   1.338   4.845  0.00  0.00    +0.059 C 
ATOM     33  C   UNL     1      -0.610   1.997   6.039  0.00  0.00    +0.043 C 
ATOM     34  C   UNL     1       0.147   1.686   7.328  0.00  0.00    +0.043 C 
ATOM     35  N   UNL     1       1.569   1.935   7.223  0.00  0.00    -0.180 NA
ATOM     36  C   UNL     1       2.286   1.576   6.017  0.00  0.00    +0.043 C 
ATOM     37  C   UNL     1       1.504   1.886   4.743  0.00  0.00    +0.043 C 
ATOM     38  C   UNL     1       2.680   0.094   6.028  0.00  0.00    +0.030 C 
ATOM     39  C   UNL     1       3.594   2.397   5.971  0.00  0.00    +0.030 C 
ATOM     40  C   UNL     1      -0.132   0.238   7.749  0.00  0.00    +0.030 C 
ATOM     41  C   UNL     1      -0.423   2.602   8.434  0.00  0.00    +0.030 C 
BRANCH  35  42
ATOM     42  O   UNL     1       2.291   1.540   8.433  0.00  0.00    -0.311 OA
ATOM     43  H   UNL     1       3.381   1.674   8.491  0.00  0.00    +0.237 HD
ENDBRANCH  35  42
ENDBRANCH   3  32
TORSDOF 6
