REMARK  Name = ZINC20776300
REMARK  14 active torsions:
REMARK  status: ('A' for Active; 'I' for Inactive)
REMARK    1  A    between atoms: C_1  and  C_2
REMARK    2  A    between atoms: C_2  and  C_3
REMARK    3  A    between atoms: C_2  and  C_4
REMARK    4  A    between atoms: C_4  and  N_5
REMARK    5  A    between atoms: C_7  and  N_24
REMARK    6  A    between atoms: C_10  and  C_12
REMARK    7  A    between atoms: N_14  and  C_15
REMARK    8  A    between atoms: C_15  and  C_16
REMARK    9  A    between atoms: C_16  and  C_17
REMARK   10  A    between atoms: N_24  and  C_25
REMARK   11  A    between atoms: C_25  and  C_26
REMARK   12  A    between atoms: C_29  and  O_32
REMARK   13  A    between atoms: O_32  and  C_33
REMARK   14  A    between atoms: C_33  and  C_34
REMARK                            x       y       z     vdW  Elec       q    Type
REMARK                         _______ _______ _______ _____ _____    ______ ____
ROOT
ATOM      1  N   UNL     1       9.435  10.761  -4.038  0.00  0.00    -0.293 NA
ATOM      2  C   UNL     1       8.895   9.386  -3.878  0.00  0.00    +0.069 C 
ATOM      3  C   UNL     1       8.575   9.267  -2.373  0.00  0.00    -0.055 C 
ATOM      4  C   UNL     1       8.373  10.718  -1.890  0.00  0.00    +0.014 C 
ATOM      5  C   UNL     1       8.589  11.591  -3.144  0.00  0.00    +0.142 C 
ENDROOT
BRANCH   5   6
ATOM      6  C   UNL     1       9.303  12.868  -2.782  0.00  0.00    +0.230 C 
ATOM      7  O   UNL     1      10.414  13.086  -3.217  0.00  0.00    -0.274 OA
ATOM      8  N   UNL     1       8.707  13.768  -1.974  0.00  0.00    -0.314 N 
ATOM      9  H   UNL     1       7.699  13.570  -1.580  0.00  0.00    +0.149 HD
BRANCH   8  10
ATOM     10  C   UNL     1       9.401  15.009  -1.622  0.00  0.00    +0.109 C 
BRANCH  10  11
ATOM     11  C   UNL     1       8.511  15.847  -0.702  0.00  0.00    +0.056 C 
BRANCH  11  12
ATOM     12  C   UNL     1       9.226  17.124  -0.339  0.00  0.00    -0.011 A 
ATOM     13  C   UNL     1       8.918  18.299  -0.999  0.00  0.00    +0.006 A 
ATOM     14  C   UNL     1       9.572  19.471  -0.666  0.00  0.00    +0.000 A 
ATOM     15  C   UNL     1      10.535  19.468   0.326  0.00  0.00    +0.003 A 
ATOM     16  C   UNL     1      10.844  18.294   0.987  0.00  0.00    +0.038 A 
ATOM     17  C   UNL     1      10.186  17.121   0.658  0.00  0.00    +0.127 A 
ATOM     18  F   UNL     1      10.483  15.974   1.307  0.00  0.00    -0.205 F 
ENDBRANCH  11  12
ENDBRANCH  10  11
ENDBRANCH   8  10
ENDBRANCH   5   6
BRANCH   3  19
ATOM     19  N   UNL     1       7.346   8.487  -2.173  0.00  0.00    +0.384 N 
ATOM     20  H   UNL     1       6.872   8.786  -1.227  0.00  0.00    -0.085 HD
ATOM     21  H   UNL     1       6.653   8.675  -3.006  0.00  0.00    -0.085 HD
BRANCH  19  22
ATOM     22  C   UNL     1       7.638   7.048  -2.119  0.00  0.00    -0.046 C 
BRANCH  22  23
ATOM     23  C   UNL     1       6.356   6.283  -1.913  0.00  0.00    -0.064 A 
ATOM     24  C   UNL     1       5.623   5.858  -3.006  0.00  0.00    +0.005 A 
ATOM     25  C   UNL     1       4.448   5.156  -2.820  0.00  0.00    +0.046 A 
ATOM     26  C   UNL     1       4.003   4.878  -1.536  0.00  0.00    +0.121 A 
ATOM     27  C   UNL     1       4.738   5.310  -0.441  0.00  0.00    +0.046 A 
ATOM     28  C   UNL     1       5.915   6.007  -0.632  0.00  0.00    +0.005 A 
BRANCH  26  29
ATOM     29  O   UNL     1       2.848   4.187  -1.350  0.00  0.00    -0.487 OA
BRANCH  29  30
ATOM     30  C   UNL     1       2.451   3.937  -0.001  0.00  0.00    +0.264 C 
BRANCH  30  31
ATOM     31  C   UNL     1       1.156   3.165   0.008  0.00  0.00    -0.010 A 
ATOM     32  C   UNL     1       1.175   1.783   0.000  0.00  0.00    +0.007 A 
ATOM     33  C   UNL     1      -0.013   1.076   0.008  0.00  0.00    +0.000 A 
ATOM     34  C   UNL     1      -1.219   1.751   0.017  0.00  0.00    +0.000 A 
ATOM     35  C   UNL     1      -1.238   3.133   0.030  0.00  0.00    +0.000 A 
ATOM     36  C   UNL     1      -0.050   3.840   0.023  0.00  0.00    +0.007 A 
ENDBRANCH  30  31
ENDBRANCH  29  30
ENDBRANCH  26  29
ENDBRANCH  22  23
ENDBRANCH  19  22
ENDBRANCH   3  19
BRANCH   1  37
ATOM     37  C   UNL     1       9.327  11.210  -5.433  0.00  0.00    +0.088 C 
BRANCH  37  39
ATOM     38  C   UNL     1      10.108  10.798  -7.770  0.00  0.00    +0.008 C 
ATOM     39  C   UNL     1      10.308  10.420  -6.301  0.00  0.00    -0.003 C 
ATOM     40  C   UNL     1      11.742  10.750  -5.880  0.00  0.00    +0.008 C 
ENDBRANCH  37  39
ENDBRANCH   1  37
TORSDOF 12
