REMARK  Name = ZINC38018646
REMARK  5 active torsions:
REMARK  status: ('A' for Active; 'I' for Inactive)
REMARK    1  A    between atoms: C_3  and  C_11
REMARK    2  A    between atoms: C_6  and  C_7
REMARK    3  A    between atoms: C_11  and  N_12
REMARK    4  A    between atoms: N_12  and  C_13
REMARK    5  A    between atoms: C_13  and  C_14
REMARK                            x       y       z     vdW  Elec       q    Type
REMARK                         _______ _______ _______ _____ _____    ______ ____
ROOT
ATOM      1  C   UNL     1      -0.017   1.391   0.010  0.00  0.00    +0.013 A 
ATOM      2  C   UNL     1       1.170   2.095   0.002  0.00  0.00    +0.005 A 
ATOM      3  C   UNL     1       2.378   1.422  -0.013  0.00  0.00    -0.029 A 
ATOM      4  C   UNL     1       2.405   0.036  -0.021  0.00  0.00    +0.125 A 
ATOM      5  C   UNL     1       1.223  -0.680  -0.014  0.00  0.00    +0.051 A 
ATOM      6  C   UNL     1       0.002  -0.004   0.002  0.00  0.00    +0.039 A 
ATOM      7  F   UNL     1       3.588  -0.615  -0.036  0.00  0.00    -0.205 F 
ENDROOT
BRANCH   6   8
ATOM      8  C   UNL     1      -1.266  -0.764   0.011  0.00  0.00    +0.242 C 
ATOM      9  O   UNL     1      -2.329  -0.173   0.024  0.00  0.00    -0.270 OA
ATOM     10  N   UNL     1      -1.245  -2.111   0.003  0.00  0.00    -0.325 N 
ATOM     11  H   UNL     1      -0.397  -2.583  -0.008  0.00  0.00    +0.145 HD
ATOM     12  H   UNL     1      -2.077  -2.610   0.009  0.00  0.00    +0.145 HD
ENDBRANCH   6   8
BRANCH   3  13
ATOM     13  C   UNL     1       3.670   2.198  -0.021  0.00  0.00    -0.043 C 
BRANCH  13  14
ATOM     14  N   UNL     1       4.287   2.136   1.310  0.00  0.00    +0.385 N 
ATOM     15  H   UNL     1       3.658   2.535   1.991  0.00  0.00    -0.085 HD
ATOM     16  H   UNL     1       4.474   1.173   1.550  0.00  0.00    -0.085 HD
BRANCH  14  17
ATOM     17  C   UNL     1       5.546   2.892   1.302  0.00  0.00    -0.039 C 
BRANCH  17  18
ATOM     18  C   UNL     1       6.179   2.828   2.669  0.00  0.00    -0.026 A 
ATOM     19  C   UNL     1       7.062   1.925   3.158  0.00  0.00    +0.010 A 
ATOM     20  C   UNL     1       7.515   2.065   4.457  0.00  0.00    +0.023 A 
ATOM     21  C   UNL     1       7.060   3.103   5.203  0.00  0.00    +0.055 A 
ATOM     22  S   UNL     1       5.965   3.927   4.059  0.00  0.00    -0.088 S 
ATOM     23 BR   UNL     1       7.482   3.561   6.988  0.00  0.00    -0.043 Br
ENDBRANCH  17  18
ENDBRANCH  14  17
ENDBRANCH  13  14
ENDBRANCH   3  13
TORSDOF 5
