REMARK  Name = ZINC64044026
REMARK  8 active torsions:
REMARK  status: ('A' for Active; 'I' for Inactive)
REMARK    1  A    between atoms: C_1  and  C_2
REMARK    2  A    between atoms: C_4  and  C_8
REMARK    3  A    between atoms: C_8  and  C_9
REMARK    4  A    between atoms: C_9  and  N_10
REMARK    5  A    between atoms: N_10  and  C_11
REMARK    6  A    between atoms: C_11  and  C_12
REMARK    7  A    between atoms: N_15  and  C_26
REMARK    8  A    between atoms: C_17  and  C_19
REMARK                            x       y       z     vdW  Elec       q    Type
REMARK                         _______ _______ _______ _____ _____    ______ ____
ROOT
ATOM      1  C   UNL     1      -6.434   6.234  -5.457  0.00  0.00    +0.014 C 
ATOM      2  C   UNL     1      -7.461   6.465  -4.323  0.00  0.00    +0.127 C 
ATOM      3  N   UNL     1      -7.993   7.819  -4.546  0.00  0.00    -0.266 N 
ATOM      4  N   UNL     1      -7.453   8.348  -5.689  0.00  0.00    -0.232 NA
ATOM      5  C   UNL     1      -6.134   7.694  -5.893  0.00  0.00    +0.107 C 
ATOM      6  H   UNL     1      -7.352   9.349  -5.612  0.00  0.00    +0.145 HD
ENDROOT
BRANCH   5   7
ATOM      7  C   UNL     1      -5.722   7.750  -7.342  0.00  0.00    -0.010 A 
ATOM      8  C   UNL     1      -4.400   7.979  -7.676  0.00  0.00    +0.006 A 
ATOM      9  C   UNL     1      -4.022   8.030  -9.004  0.00  0.00    +0.000 A 
ATOM     10  C   UNL     1      -4.965   7.852 -10.000  0.00  0.00    +0.001 A 
ATOM     11  C   UNL     1      -6.286   7.623  -9.667  0.00  0.00    +0.020 A 
ATOM     12  C   UNL     1      -6.665   7.566  -8.337  0.00  0.00    +0.046 A 
ATOM     13 CL   UNL     1      -8.323   7.272  -7.918  0.00  0.00    -0.083 Cl
ENDBRANCH   5   7
BRANCH   3  14
ATOM     14  C   UNL     1      -8.912   8.468  -3.716  0.00  0.00    +0.045 A 
ATOM     15  C   UNL     1      -9.389   7.834  -2.576  0.00  0.00    +0.027 A 
ATOM     16  C   UNL     1     -10.297   8.478  -1.758  0.00  0.00    +0.040 A 
ATOM     17  C   UNL     1     -10.731   9.754  -2.073  0.00  0.00    +0.124 A 
ATOM     18  C   UNL     1     -10.256  10.389  -3.208  0.00  0.00    +0.040 A 
ATOM     19  C   UNL     1      -9.345   9.751  -4.027  0.00  0.00    +0.027 A 
ATOM     20  F   UNL     1     -11.619  10.382  -1.271  0.00  0.00    -0.205 F 
ENDBRANCH   3  14
BRANCH   1  21
ATOM     21  C   UNL     1      -5.173   5.548  -4.926  0.00  0.00    -0.076 C 
BRANCH  21  22
ATOM     22  N   UNL     1      -5.470   4.141  -4.626  0.00  0.00    +0.380 N 
ATOM     23  H   UNL     1      -5.778   3.676  -5.467  0.00  0.00    -0.086 HD
ATOM     24  H   UNL     1      -6.199   4.093  -3.929  0.00  0.00    -0.086 HD
BRANCH  22  25
ATOM     25  C   UNL     1      -4.260   3.483  -4.116  0.00  0.00    -0.075 C 
BRANCH  25  26
ATOM     26  C   UNL     1      -4.570   2.018  -3.804  0.00  0.00    +0.055 C 
BRANCH  26  30
ATOM     27  C   UNL     1      -1.355  -0.581  -0.879  0.00  0.00    +0.065 C 
ATOM     28  C   UNL     1      -1.942   0.218  -2.014  0.00  0.00    +0.032 A 
ATOM     29  N   UNL     1      -3.228   0.677  -2.110  0.00  0.00    -0.346 N 
ATOM     30  C   UNL     1      -3.328   1.342  -3.281  0.00  0.00    +0.105 A 
ATOM     31  H   UNL     1      -3.935   0.549  -1.459  0.00  0.00    +0.167 HD
ATOM     32  N   UNL     1      -2.172   1.303  -3.885  0.00  0.00    -0.241 NA
ATOM     33  C   UNL     1      -1.300   0.623  -3.127  0.00  0.00    +0.133 A 
ENDBRANCH  26  30
ENDBRANCH  25  26
ENDBRANCH  22  25
ENDBRANCH  21  22
ENDBRANCH   1  21
TORSDOF 7
