REMARK  Name = ZINC52830784
REMARK  9 active torsions:
REMARK  status: ('A' for Active; 'I' for Inactive)
REMARK    1  A    between atoms: C_1  and  C_2
REMARK    2  A    between atoms: C_9  and  C_11
REMARK    3  A    between atoms: C_14  and  N_17
REMARK    4  A    between atoms: C_18  and  C_20
REMARK    5  A    between atoms: C_20  and  C_22
REMARK    6  A    between atoms: C_20  and  N_23
REMARK    7  A    between atoms: N_23  and  C_24
REMARK    8  A    between atoms: N_23  and  C_25
REMARK    9  A    between atoms: C_25  and  C_26
REMARK                            x       y       z     vdW  Elec       q    Type
REMARK                         _______ _______ _______ _____ _____    ______ ____
ROOT
ATOM      1  C   UNL     1      -0.153  -6.125   1.640  0.00  0.00    +0.007 A 
ATOM      2  C   UNL     1       0.454  -6.627   2.793  0.00  0.00    +0.012 A 
ATOM      3  C   UNL     1       0.429  -7.981   3.050  0.00  0.00    +0.024 A 
ATOM      4  C   UNL     1      -0.201  -8.846   2.162  0.00  0.00    +0.033 A 
ATOM      5  C   UNL     1      -0.806  -8.350   1.013  0.00  0.00    +0.024 A 
ATOM      6  C   UNL     1      -0.790  -6.997   0.754  0.00  0.00    +0.012 A 
ENDROOT
BRANCH   1  15
ATOM      7  C   UNL     1       0.023   1.602   0.225  0.00  0.00    +0.044 C 
ATOM      8  C   UNL     1      -0.168   0.107   0.232  0.00  0.00    -0.049 A 
ATOM      9  C   UNL     1      -0.858  -0.516  -0.799  0.00  0.00    +0.005 A 
ATOM     10  C   UNL     1      -1.047  -1.862  -0.821  0.00  0.00    +0.029 A 
ATOM     11  C   UNL     1      -0.542  -2.683   0.216  0.00  0.00    +0.079 A 
ATOM     12  C   UNL     1       0.156  -2.018   1.253  0.00  0.00    +0.040 A 
ATOM     13  C   UNL     1       0.346  -0.658   1.262  0.00  0.00    +0.020 A 
ATOM     14  S   UNL     1       0.611  -3.361   2.323  0.00  0.00    -0.067 S 
ATOM     15  C   UNL     1      -0.128  -4.674   1.362  0.00  0.00    +0.109 A 
ATOM     16  N   UNL     1      -0.643  -4.020   0.344  0.00  0.00    -0.239 NA
ENDBRANCH   1  15
BRANCH   4  17
ATOM     17  N   UNL     1      -0.224 -10.218   2.425  0.00  0.00    -0.287 N 
ATOM     18  C   UNL     1      -0.280 -10.659   3.697  0.00  0.00    +0.203 C 
ATOM     19  O   UNL     1      -0.397  -9.868   4.609  0.00  0.00    -0.277 OA
ATOM     20  H   UNL     1      -0.201 -10.853   1.692  0.00  0.00    +0.155 HD
BRANCH  18  21
ATOM     21  C   UNL     1      -0.198 -12.136   3.986  0.00  0.00    +0.017 C 
ATOM     22  C   UNL     1       1.269 -12.546   4.135  0.00  0.00    -0.004 C 
BRANCH  21  23
ATOM     23  N   UNL     1      -0.917 -12.432   5.232  0.00  0.00    +0.391 N 
ATOM     24  C   UNL     1      -2.308 -11.973   5.115  0.00  0.00    -0.094 C 
ATOM     25  H   UNL     1      -0.470 -11.955   6.001  0.00  0.00    -0.080 HD
BRANCH  23  26
ATOM     26  C   UNL     1      -0.898 -13.880   5.477  0.00  0.00    +0.019 C 
BRANCH  26  27
ATOM     27  C   UNL     1      -1.528 -14.172   6.815  0.00  0.00    +0.194 C 
ATOM     28  O   UNL     1      -1.952 -13.263   7.497  0.00  0.00    -0.278 OA
ATOM     29  N   UNL     1      -1.621 -15.443   7.253  0.00  0.00    -0.331 N 
ATOM     30  H   UNL     1      -1.283 -16.170   6.707  0.00  0.00    +0.145 HD
ATOM     31  H   UNL     1      -2.027 -15.631   8.114  0.00  0.00    +0.145 HD
ENDBRANCH  26  27
ENDBRANCH  23  26
ENDBRANCH  21  23
ENDBRANCH  18  21
ENDBRANCH   4  17
TORSDOF 6
