REMARK  Name = ZINC08872703
REMARK  9 active torsions:
REMARK  status: ('A' for Active; 'I' for Inactive)
REMARK    1  A    between atoms: C_1  and  C_2
REMARK    2  A    between atoms: C_2  and  C_30
REMARK    3  A    between atoms: N_3  and  N_4
REMARK    4  A    between atoms: N_11  and  C_12
REMARK    5  A    between atoms: C_15  and  O_18
REMARK    6  A    between atoms: O_18  and  C_19
REMARK    7  A    between atoms: N_20  and  C_21
REMARK    8  A    between atoms: C_24  and  N_27
REMARK    9  A    between atoms: C_33  and  N_36
REMARK                            x       y       z     vdW  Elec       q    Type
REMARK                         _______ _______ _______ _____ _____    ______ ____
ROOT
ATOM      1  N   UNL     1       5.906   3.822  -1.017  0.00  0.00    -0.205 N 
ATOM      2  C   UNL     1       4.750   4.578  -1.027  0.00  0.00    +0.241 A 
ATOM      3  N   UNL     1       3.713   4.198  -1.768  0.00  0.00    -0.179 NA
ATOM      4  C   UNL     1       2.603   4.928  -1.781  0.00  0.00    +0.225 A 
ATOM      5  N   UNL     1       2.525   6.034  -1.046  0.00  0.00    -0.181 NA
ATOM      6  C   UNL     1       3.559   6.411  -0.301  0.00  0.00    +0.225 A 
ATOM      7  N   UNL     1       4.672   5.683  -0.292  0.00  0.00    -0.179 NA
ATOM      8  N   UNL     1       3.478   7.559   0.462  0.00  0.00    -0.283 N 
ATOM      9  N   UNL     1       1.527   4.536  -2.555  0.00  0.00    -0.283 N 
ATOM     10  H   UNL     1       5.937   2.977  -1.492  0.00  0.00    +0.177 HD
ATOM     11  H   UNL     1       4.265   7.893   0.920  0.00  0.00    +0.155 HD
ATOM     12  H   UNL     1       0.686   5.016  -2.495  0.00  0.00    +0.155 HD
ENDROOT
BRANCH   8  13
ATOM     13  C   UNL     1       2.260   8.241   0.574  0.00  0.00    +0.034 A 
ATOM     14  C   UNL     1       1.065   7.534   0.578  0.00  0.00    +0.027 A 
ATOM     15  C   UNL     1      -0.135   8.207   0.694  0.00  0.00    +0.047 A 
ATOM     16  C   UNL     1      -0.148   9.590   0.795  0.00  0.00    +0.120 A 
ATOM     17  C   UNL     1       1.045  10.298   0.786  0.00  0.00    +0.047 A 
ATOM     18  C   UNL     1       2.246   9.626   0.675  0.00  0.00    +0.027 A 
BRANCH  16  19
ATOM     19  O   UNL     1      -1.331  10.252   0.904  0.00  0.00    -0.495 OA
ATOM     20  C   UNL     1      -2.520   9.460   0.907  0.00  0.00    +0.277 C 
ENDBRANCH  16  19
ENDBRANCH   8  13
BRANCH   9  21
ATOM     21  C   UNL     1       1.651   3.448  -3.424  0.00  0.00    +0.034 A 
ATOM     22  C   UNL     1       0.555   2.634  -3.680  0.00  0.00    +0.025 A 
ATOM     23  C   UNL     1       0.681   1.560  -4.539  0.00  0.00    +0.034 A 
ATOM     24  C   UNL     1       1.896   1.295  -5.144  0.00  0.00    +0.126 A 
ATOM     25  C   UNL     1       2.989   2.103  -4.891  0.00  0.00    +0.034 A 
ATOM     26  C   UNL     1       2.870   3.178  -4.033  0.00  0.00    +0.025 A 
BRANCH  24  27
ATOM     27  N   UNL     1       2.027   0.143  -6.065  0.00  0.00    +0.056 N 
ATOM     28  O   UNL     1       1.065  -0.571  -6.288  0.00  0.00    -0.126 OA
ATOM     29  O   UNL     1       3.096  -0.092  -6.598  0.00  0.00    -0.126 OA
ENDBRANCH  24  27
ENDBRANCH   9  21
BRANCH   1  32
ATOM     30  C   UNL     1       8.225   2.351  -1.207  0.00  0.00    +0.068 C 
ATOM     31  C   UNL     1       8.145   3.610  -0.382  0.00  0.00    +0.063 C 
ATOM     32  N   UNL     1       7.034   4.276  -0.320  0.00  0.00    -0.184 NA
BRANCH  31  33
ATOM     33  C   UNL     1       9.331   4.084   0.356  0.00  0.00    -0.002 A 
ATOM     34  C   UNL     1      10.561   3.441   0.197  0.00  0.00    +0.012 A 
ATOM     35  C   UNL     1      11.666   3.893   0.886  0.00  0.00    +0.033 A 
ATOM     36  C   UNL     1      11.557   4.974   1.742  0.00  0.00    +0.126 A 
ATOM     37  C   UNL     1      10.341   5.613   1.910  0.00  0.00    +0.033 A 
ATOM     38  C   UNL     1       9.228   5.175   1.223  0.00  0.00    +0.012 A 
BRANCH  36  39
ATOM     39  N   UNL     1      12.747   5.450   2.483  0.00  0.00    +0.056 N 
ATOM     40  O   UNL     1      12.654   6.402   3.238  0.00  0.00    -0.126 OA
ATOM     41  O   UNL     1      13.819   4.891   2.338  0.00  0.00    -0.126 OA
ENDBRANCH  36  39
ENDBRANCH  31  33
ENDBRANCH   1  32
TORSDOF 7
