REMARK  Name = ZINC13502584
REMARK  7 active torsions:
REMARK  status: ('A' for Active; 'I' for Inactive)
REMARK    1  A    between atoms: C_1  and  C_2
REMARK    2  A    between atoms: C_14  and  S_21
REMARK    3  A    between atoms: C_16  and  C_18
REMARK    4  A    between atoms: S_21  and  C_22
REMARK    5  A    between atoms: C_22  and  C_23
REMARK    6  A    between atoms: N_25  and  N_26
REMARK    7  A    between atoms: C_27  and  C_29
REMARK                            x       y       z     vdW  Elec       q    Type
REMARK                         _______ _______ _______ _____ _____    ______ ____
ROOT
ATOM      1  C   UNL     1      -1.753  -3.374  -0.079  0.00  0.00    +0.008 C 
ATOM      2  C   UNL     1      -0.665  -2.341  -0.376  0.00  0.00    -0.009 C 
ATOM      3  C   UNL     1       0.587  -2.657   0.448  0.00  0.00    +0.008 C 
ATOM      4  C   UNL     1       1.754  -1.789  -0.024  0.00  0.00    +0.037 C 
ATOM      5  C   UNL     1       1.316  -0.326  -0.012  0.00  0.00    -0.024 A 
ATOM      6  C   UNL     1       0.002  -0.004   0.002  0.00  0.00    -0.004 A 
ATOM      7  S   UNL     1      -0.022   1.769   0.012  0.00  0.00    -0.073 S 
ATOM      8  C   UNL     1       1.734   2.039  -0.004  0.00  0.00    +0.114 A 
ATOM      9  C   UNL     1       2.254   0.736  -0.016  0.00  0.00    +0.056 A 
ATOM     10  C   UNL     1       3.732   0.658  -0.030  0.00  0.00    +0.173 A 
ATOM     11  N   UNL     1       4.591  -0.330  -0.044  0.00  0.00    -0.128 NA
ATOM     12  N   UNL     1       5.790   0.140  -0.052  0.00  0.00    -0.122 NA
ATOM     13  C   UNL     1       5.765   1.453  -0.044  0.00  0.00    +0.198 A 
ATOM     14  N   UNL     1       4.452   1.833  -0.030  0.00  0.00    -0.257 N 
ATOM     15  C   UNL     1       3.812   3.038  -0.017  0.00  0.00    +0.122 A 
ATOM     16  N   UNL     1       2.512   3.117  -0.005  0.00  0.00    -0.226 NA
ATOM     17  C   UNL     1      -1.166  -0.941   0.008  0.00  0.00    +0.046 C 
ENDROOT
BRANCH  15  18
ATOM     18  C   UNL     1       4.628   4.305  -0.017  0.00  0.00    +0.056 C 
ATOM     19  C   UNL     1       3.884   5.624   0.204  0.00  0.00    +0.012 C 
ATOM     20  C   UNL     1       4.428   5.275  -1.184  0.00  0.00    +0.012 C 
ENDBRANCH  15  18
BRANCH  13  21
ATOM     21  S   UNL     1       7.163   2.525  -0.051  0.00  0.00    -0.076 S 
BRANCH  21  22
ATOM     22  C   UNL     1       8.583   1.396  -0.071  0.00  0.00    +0.174 C 
BRANCH  22  23
ATOM     23  C   UNL     1       9.861   2.195  -0.078  0.00  0.00    +0.239 C 
ATOM     24  O   UNL     1       9.818   3.407  -0.070  0.00  0.00    -0.273 OA
ATOM     25  N   UNL     1      11.051   1.562  -0.093  0.00  0.00    -0.234 N 
ATOM     26  H   UNL     1      11.085   0.593  -0.100  0.00  0.00    +0.173 HD
BRANCH  25  27
ATOM     27  N   UNL     1      12.239   2.305  -0.100  0.00  0.00    -0.234 N 
ATOM     28  C   UNL     1      13.429   1.673  -0.115  0.00  0.00    +0.232 C 
ATOM     29  O   UNL     1      13.471   0.461  -0.123  0.00  0.00    -0.274 OA
ATOM     30  H   UNL     1      12.204   3.274  -0.094  0.00  0.00    +0.173 HD
BRANCH  28  31
ATOM     31  C   UNL     1      14.706   2.471  -0.122  0.00  0.00    +0.076 C 
ATOM     32  C   UNL     1      14.745   3.361  -1.367  0.00  0.00    +0.013 C 
ATOM     33  C   UNL     1      16.042   4.172  -1.374  0.00  0.00    +0.001 C 
ATOM     34  C   UNL     1      17.239   3.220  -1.391  0.00  0.00    +0.000 C 
ATOM     35  C   UNL     1      17.201   2.330  -0.147  0.00  0.00    +0.001 C 
ATOM     36  C   UNL     1      15.903   1.519  -0.140  0.00  0.00    +0.013 C 
ENDBRANCH  28  31
ENDBRANCH  25  27
ENDBRANCH  22  23
ENDBRANCH  21  22
ENDBRANCH  13  21
TORSDOF 6
