REMARK  Name = ZINC04222550
REMARK  12 active torsions:
REMARK  status: ('A' for Active; 'I' for Inactive)
REMARK    1  A    between atoms: C_1  and  C_2
REMARK    2  A    between atoms: C_5  and  O_36
REMARK    3  A    between atoms: C_7  and  C_33
REMARK    4  A    between atoms: C_7  and  C_34
REMARK    5  A    between atoms: N_16  and  C_17
REMARK    6  A    between atoms: C_17  and  C_18
REMARK    7  A    between atoms: C_20  and  C_22
REMARK    8  A    between atoms: C_22  and  C_23
REMARK    9  A    between atoms: N_25  and  C_26
REMARK   10  A    between atoms: C_26  and  C_27
REMARK   11  A    between atoms: C_27  and  N_74
REMARK   12  A    between atoms: C_34  and  O_35
REMARK                            x       y       z     vdW  Elec       q    Type
REMARK                         _______ _______ _______ _____ _____    ______ ____
ROOT
ATOM      1  C   UNL     1       0.211  -1.771   1.916  0.00  0.00    +0.012 C 
ATOM      2  C   UNL     1       0.542  -2.103   0.459  0.00  0.00    -0.019 C 
ATOM      3  C   UNL     1       1.095  -3.529   0.362  0.00  0.00    +0.010 C 
ATOM      4  C   UNL     1       0.056  -4.545   0.786  0.00  0.00    +0.032 C 
ATOM      5  C   UNL     1      -1.163  -4.425  -0.135  0.00  0.00    +0.123 C 
ATOM      6  C   UNL     1      -1.751  -3.023   0.010  0.00  0.00    +0.021 C 
ATOM      7  C   UNL     1      -0.719  -1.967  -0.397  0.00  0.00    +0.011 C 
ATOM      8  C   UNL     1      -1.345  -0.580  -0.149  0.00  0.00    +0.049 C 
ATOM      9  C   UNL     1      -0.274   0.452  -0.198  0.00  0.00    +0.015 A 
ATOM     10  C   UNL     1       1.068   0.258  -0.154  0.00  0.00    +0.058 A 
ATOM     11  N   UNL     1       1.819   1.357  -0.212  0.00  0.00    -0.229 NA
ATOM     12  C   UNL     1       1.294   2.561  -0.306  0.00  0.00    +0.159 A 
ATOM     13  S   UNL     1      -0.410   2.215  -0.322  0.00  0.00    -0.057 S 
ATOM     14  N   UNL     1       1.934   3.789  -0.375  0.00  0.00    -0.320 N 
ATOM     15  C   UNL     1       1.633  -1.150  -0.050  0.00  0.00    +0.054 C 
ATOM     16  C   UNL     1      -2.985  -2.897  -0.886  0.00  0.00    +0.016 C 
ATOM     17  H   UNL     1       2.903   3.832  -0.356  0.00  0.00    +0.148 HD
ENDROOT
BRANCH   5  18
ATOM     18  O   UNL     1      -2.142  -5.396   0.238  0.00  0.00    -0.391 OA
ATOM     19  H   UNL     1      -1.835  -6.311   0.170  0.00  0.00    +0.210 HD
ENDBRANCH   5  18
BRANCH  14  20
ATOM     20  C   UNL     1       1.148   5.021  -0.477  0.00  0.00    +0.130 C 
BRANCH  20  21
ATOM     21  C   UNL     1       2.077   6.206  -0.537  0.00  0.00    -0.016 C 
ATOM     22  C   UNL     1       1.989   7.057  -1.528  0.00  0.00    +0.005 C 
ENDBRANCH  20  21
ENDBRANCH  14  20
BRANCH  15  23
ATOM     23  C   UNL     1       2.811  -1.156   0.926  0.00  0.00    +0.106 C 
BRANCH  23  24
ATOM     24  C   UNL     1       3.956  -0.374   0.336  0.00  0.00    +0.214 C 
ATOM     25  O   UNL     1       3.841   0.137  -0.758  0.00  0.00    -0.276 OA
ATOM     26  N   UNL     1       5.108  -0.244   1.023  0.00  0.00    -0.317 N 
ATOM     27  H   UNL     1       5.200  -0.653   1.897  0.00  0.00    +0.149 HD
BRANCH  26  28
ATOM     28  C   UNL     1       6.221   0.516   0.449  0.00  0.00    +0.085 C 
BRANCH  28  29
ATOM     29  C   UNL     1       7.399   0.510   1.425  0.00  0.00    -0.060 C 
BRANCH  29  35
ATOM     30  C   UNL     1       9.053   0.601  -0.343  0.00  0.00    -0.050 C 
ATOM     31  C   UNL     1      10.172   1.456  -0.943  0.00  0.00    +0.141 C 
ATOM     32  O   UNL     1      11.176   1.685   0.049  0.00  0.00    -0.383 OA
ATOM     33  C   UNL     1      10.687   2.338   1.224  0.00  0.00    +0.141 C 
ATOM     34  C   UNL     1       9.574   1.491   1.846  0.00  0.00    -0.050 C 
ATOM     35  N   UNL     1       8.507   1.297   0.841  0.00  0.00    +0.384 N 
ATOM     36  H   UNL     1       8.149   2.215   0.552  0.00  0.00    -0.082 HD
ENDBRANCH  29  35
ENDBRANCH  28  29
ENDBRANCH  26  28
ENDBRANCH  23  24
ENDBRANCH  15  23
BRANCH   6  37
ATOM     37  C   UNL     1      -2.159  -2.797   1.468  0.00  0.00    +0.165 C 
BRANCH  37  38
ATOM     38  O   UNL     1      -3.237  -3.674   1.802  0.00  0.00    -0.394 OA
ATOM     39  H   UNL     1      -3.547  -3.585   2.714  0.00  0.00    +0.209 HD
ENDBRANCH  37  38
ENDBRANCH   6  37
TORSDOF 10
