REMARK  Name = ZINC39631981
REMARK  13 active torsions:
REMARK  status: ('A' for Active; 'I' for Inactive)
REMARK    1  A    between atoms: C_1  and  C_2
REMARK    2  A    between atoms: C_2  and  C_4
REMARK    3  A    between atoms: C_2  and  N_11
REMARK    4  A    between atoms: C_4  and  C_5
REMARK    5  A    between atoms: C_5  and  C_6
REMARK    6  A    between atoms: C_6  and  C_7
REMARK    7  A    between atoms: C_7  and  C_8
REMARK    8  A    between atoms: C_7  and  C_9
REMARK    9  A    between atoms: C_7  and  O_10
REMARK   10  A    between atoms: C_12  and  C_14
REMARK   11  A    between atoms: C_25  and  C_27
REMARK   12  A    between atoms: C_30  and  O_34
REMARK   13  A    between atoms: O_34  and  C_35
REMARK                            x       y       z     vdW  Elec       q    Type
REMARK                         _______ _______ _______ _____ _____    ______ ____
ROOT
ATOM      1  C   UNL     1       2.799  -0.473   2.245  0.00  0.00    +0.100 C 
ATOM      2  C   UNL     1       2.653   0.273   3.590  0.00  0.00    +0.121 C 
ATOM      3  N   UNL     1       3.984   0.155   4.231  0.00  0.00    -0.296 N 
ATOM      4  C   UNL     1       4.946   0.320   3.115  0.00  0.00    +0.115 C 
ATOM      5  C   UNL     1       4.305  -0.439   1.936  0.00  0.00    -0.004 C 
ATOM      6  C   UNL     1       4.560   0.305   0.629  0.00  0.00    -0.010 C 
ATOM      7  C   UNL     1       6.058   0.275   0.313  0.00  0.00    -0.082 C 
ATOM      8  N   UNL     1       6.509  -1.118   0.203  0.00  0.00    +0.379 N 
ATOM      9  C   UNL     1       6.346  -1.800   1.492  0.00  0.00    -0.082 C 
ATOM     10  C   UNL     1       4.860  -1.858   1.858  0.00  0.00    -0.010 C 
ATOM     11  C   UNL     1       4.258  -0.057   5.533  0.00  0.00    +0.247 C 
ATOM     12  O   UNL     1       3.355  -0.283   6.315  0.00  0.00    -0.270 OA
ATOM     13  H   UNL     1       5.961  -1.593  -0.499  0.00  0.00    -0.086 HD
ATOM     14  H   UNL     1       7.481  -1.135  -0.065  0.00  0.00    -0.086 HD
ENDROOT
BRANCH  11  15
ATOM     15  C   UNL     1       5.654  -0.012   6.010  0.00  0.00    +0.040 A 
ATOM     16  C   UNL     1       6.625   0.669   5.272  0.00  0.00    +0.036 A 
ATOM     17  C   UNL     1       7.928   0.708   5.721  0.00  0.00    +0.085 A 
ATOM     18  C   UNL     1       8.276   0.070   6.906  0.00  0.00    +0.157 A 
ATOM     19  C   UNL     1       7.312  -0.609   7.643  0.00  0.00    +0.085 A 
ATOM     20  C   UNL     1       6.006  -0.647   7.204  0.00  0.00    +0.036 A 
ATOM     21 CL   UNL     1       7.753  -1.405   9.122  0.00  0.00    -0.080 Cl
ATOM     22 CL   UNL     1       9.135   1.555   4.804  0.00  0.00    -0.080 Cl
BRANCH  18  23
ATOM     23  O   UNL     1       9.560   0.110   7.344  0.00  0.00    -0.492 OA
ATOM     24  C   UNL     1       9.920   1.195   8.202  0.00  0.00    +0.277 C 
ENDBRANCH  18  23
ENDBRANCH  11  15
BRANCH   1  26
ATOM     25  N   UNL     1       1.519  -0.461   0.129  0.00  0.00    -0.312 N 
ATOM     26  C   UNL     1       2.025   0.237   1.164  0.00  0.00    +0.218 C 
ATOM     27  O   UNL     1       1.859   1.437   1.226  0.00  0.00    -0.275 OA
ATOM     28  H   UNL     1       1.652  -1.421   0.079  0.00  0.00    +0.149 HD
BRANCH  25  30
ATOM     29  C   UNL     1      -0.695   0.372  -0.493  0.00  0.00    +0.028 C 
ATOM     30  C   UNL     1       0.767   0.229  -0.922  0.00  0.00    +0.070 C 
BRANCH  30  31
ATOM     31  C   UNL     1       0.841  -0.580  -2.218  0.00  0.00    +0.022 C 
BRANCH  31  32
ATOM     32  C   UNL     1       2.288  -0.618  -2.714  0.00  0.00    +0.005 C 
BRANCH  32  33
ATOM     33  C   UNL     1       2.363  -1.427  -4.010  0.00  0.00    +0.034 C 
BRANCH  33  34
ATOM     34  C   UNL     1       3.810  -1.464  -4.506  0.00  0.00    +0.061 C 
ATOM     35  C   UNL     1       3.866  -2.166  -5.864  0.00  0.00    +0.041 C 
ATOM     36  C   UNL     1       4.337  -0.035  -4.648  0.00  0.00    +0.041 C 
BRANCH  34  37
ATOM     37  O   UNL     1       4.617  -2.179  -3.567  0.00  0.00    -0.389 OA
ATOM     38  H   UNL     1       5.548  -2.242  -3.817  0.00  0.00    +0.210 HD
ENDBRANCH  34  37
ENDBRANCH  33  34
ENDBRANCH  32  33
ENDBRANCH  31  32
ENDBRANCH  30  31
ENDBRANCH  25  30
ENDBRANCH   1  26
TORSDOF 9
