REMARK  Name = ZINC39462575
REMARK  5 active torsions:
REMARK  status: ('A' for Active; 'I' for Inactive)
REMARK    1  A    between atoms: C_11  and  C_13
REMARK    2  A    between atoms: C_13  and  S_14
REMARK    3  A    between atoms: S_14  and  C_15
REMARK    4  A    between atoms: C_19  and  N_29
REMARK    5  A    between atoms: N_21  and  C_22
REMARK                            x       y       z     vdW  Elec       q    Type
REMARK                         _______ _______ _______ _____ _____    ______ ____
ROOT
ATOM      1  C   UNL     1       8.137  -2.322  -0.192  0.00  0.00    +0.216 C 
ATOM      2  N   UNL     1       8.088  -3.373  -1.234  0.00  0.00    -0.228 NA
ATOM      3  N   UNL     1       7.206  -4.407  -0.669  0.00  0.00    -0.251 NA
ATOM      4  C   UNL     1       7.569  -4.404   0.773  0.00  0.00    +0.105 C 
ATOM      5  N   UNL     1       7.808  -2.979   1.085  0.00  0.00    -0.304 N 
ATOM      6  H   UNL     1       7.712  -3.010  -2.097  0.00  0.00    +0.143 HD
ATOM      7  H   UNL     1       6.235  -4.164  -0.798  0.00  0.00    +0.140 HD
ENDROOT
BRANCH   5   8
ATOM      8  C   UNL     1       7.735  -2.374   2.342  0.00  0.00    +0.033 A 
ATOM      9  C   UNL     1       7.647  -3.156   3.487  0.00  0.00    +0.023 A 
ATOM     10  C   UNL     1       7.576  -2.555   4.728  0.00  0.00    +0.003 A 
ATOM     11  C   UNL     1       7.592  -1.176   4.833  0.00  0.00    +0.020 A 
ATOM     12  C   UNL     1       7.680  -0.394   3.695  0.00  0.00    +0.043 A 
ATOM     13  C   UNL     1       7.757  -0.990   2.450  0.00  0.00    +0.043 A 
ATOM     14 CL   UNL     1       7.700   1.337   3.832  0.00  0.00    -0.083 Cl
ENDBRANCH   5   8
BRANCH   4  15
ATOM     15  N   UNL     1       6.462  -4.931   1.582  0.00  0.00    +0.401 N 
ATOM     16  C   UNL     1       5.229  -4.138   1.344  0.00  0.00    -0.074 C 
ATOM     17  C   UNL     1       4.098  -5.104   1.776  0.00  0.00    -0.020 C 
ATOM     18  C   UNL     1       4.614  -6.480   1.294  0.00  0.00    -0.020 C 
ATOM     19  C   UNL     1       6.140  -6.313   1.166  0.00  0.00    -0.074 C 
ATOM     20  H   UNL     1       6.706  -4.911   2.561  0.00  0.00    -0.077 HD
ENDBRANCH   4  15
BRANCH   1  21
ATOM     21  S   UNL     1       6.921  -1.027  -0.557  0.00  0.00    -0.114 S 
BRANCH  21  22
ATOM     22  C   UNL     1       5.333  -1.904  -0.557  0.00  0.00    +0.146 C 
BRANCH  22  33
ATOM     23  C   UNL     1       1.687   2.932  -2.596  0.00  0.00    +0.001 A 
ATOM     24  C   UNL     1       3.012   3.334  -2.497  0.00  0.00    +0.002 A 
ATOM     25  C   UNL     1       3.986   2.458  -2.076  0.00  0.00    +0.028 A 
ATOM     26  C   UNL     1       3.639   1.147  -1.742  0.00  0.00    +0.078 A 
ATOM     27  C   UNL     1       2.290   0.741  -1.843  0.00  0.00    +0.065 A 
ATOM     28  C   UNL     1       1.320   1.644  -2.273  0.00  0.00    +0.015 A 
ATOM     29  C   UNL     1       1.957  -0.646  -1.485  0.00  0.00    +0.259 A 
ATOM     30  O   UNL     1       0.814  -1.059  -1.551  0.00  0.00    -0.267 OA
ATOM     31  N   UNL     1       2.972  -1.445  -1.081  0.00  0.00    -0.310 N 
ATOM     32  H   UNL     1       2.790  -2.366  -0.836  0.00  0.00    +0.170 HD
ATOM     33  C   UNL     1       4.243  -0.969  -1.014  0.00  0.00    +0.120 A 
ATOM     34  N   UNL     1       4.566   0.250  -1.323  0.00  0.00    -0.233 NA
ENDBRANCH  22  33
ENDBRANCH  21  22
ENDBRANCH   1  21
TORSDOF 5
