REMARK  Name = ZINC48605091
REMARK  9 active torsions:
REMARK  status: ('A' for Active; 'I' for Inactive)
REMARK    1  A    between atoms: C_1  and  C_2
REMARK    2  A    between atoms: C_2  and  C_25
REMARK    3  A    between atoms: C_4  and  N_10
REMARK    4  A    between atoms: C_6  and  C_8
REMARK    5  A    between atoms: C_6  and  C_9
REMARK    6  A    between atoms: C_11  and  C_13
REMARK    7  A    between atoms: N_15  and  C_16
REMARK    8  A    between atoms: C_19  and  O_23
REMARK    9  A    between atoms: O_23  and  C_24
REMARK                            x       y       z     vdW  Elec       q    Type
REMARK                         _______ _______ _______ _____ _____    ______ ____
ROOT
ATOM      1  N   UNL     1      -3.539  -0.925   1.010  0.00  0.00    -0.305 N 
ATOM      2  C   UNL     1      -4.544  -0.478   1.789  0.00  0.00    +0.300 C 
ATOM      3  O   UNL     1      -4.330   0.374   2.627  0.00  0.00    -0.265 OA
ATOM      4  H   UNL     1      -3.710  -1.605   0.341  0.00  0.00    +0.149 HD
ENDROOT
BRANCH   1   8
ATOM      5  C   UNL     1      -0.007   1.519   0.036  0.00  0.00    -0.010 C 
ATOM      6  C   UNL     1       0.008  -0.013   0.017  0.00  0.00    -0.072 C 
ATOM      7  C   UNL     1      -1.415  -0.541  -0.135  0.00  0.00    +0.009 C 
ATOM      8  C   UNL     1      -2.185  -0.382   1.175  0.00  0.00    +0.071 C 
ATOM      9  C   UNL     1      -1.453  -1.174   2.258  0.00  0.00    +0.009 C 
ATOM     10  C   UNL     1      -0.030  -0.651   2.429  0.00  0.00    -0.072 C 
ATOM     11  N   UNL     1       0.699  -0.548   1.177  0.00  0.00    +0.386 N 
ATOM     12  C   UNL     1       0.725  -1.655   3.332  0.00  0.00    -0.010 C 
ATOM     13  C   UNL     1      -0.056   0.689   3.171  0.00  0.00    -0.010 C 
ATOM     14  C   UNL     1       0.798  -0.443  -1.241  0.00  0.00    -0.010 C 
ATOM     15  H   UNL     1       1.055  -1.479   0.936  0.00  0.00    -0.084 HD
ATOM     16  H   UNL     1       1.538   0.017   1.340  0.00  0.00    -0.084 HD
ENDBRANCH   1   8
BRANCH   2  17
ATOM     17  C   UNL     1      -5.921  -1.030   1.621  0.00  0.00    +0.303 C 
ATOM     18  O   UNL     1      -6.136  -1.882   0.783  0.00  0.00    -0.265 OA
ATOM     19  N   UNL     1      -6.926  -0.583   2.399  0.00  0.00    -0.278 N 
ATOM     20  H   UNL     1      -6.743   0.048   3.113  0.00  0.00    +0.155 HD
BRANCH  19  21
ATOM     21  C   UNL     1      -8.234  -1.029   2.178  0.00  0.00    +0.035 A 
ATOM     22  C   UNL     1      -9.305  -0.165   2.372  0.00  0.00    +0.027 A 
ATOM     23  C   UNL     1     -10.595  -0.606   2.154  0.00  0.00    +0.049 A 
ATOM     24  C   UNL     1     -10.823  -1.910   1.741  0.00  0.00    +0.138 A 
ATOM     25  C   UNL     1      -9.754  -2.775   1.547  0.00  0.00    +0.084 A 
ATOM     26  C   UNL     1      -8.461  -2.334   1.759  0.00  0.00    +0.047 A 
ATOM     27 CL   UNL     1     -10.040  -4.407   1.031  0.00  0.00    -0.080 Cl
BRANCH  24  28
ATOM     28  O   UNL     1     -12.094  -2.343   1.527  0.00  0.00    -0.494 OA
ATOM     29  C   UNL     1     -13.146  -1.401   1.747  0.00  0.00    +0.277 C 
ENDBRANCH  24  28
ENDBRANCH  19  21
ENDBRANCH   2  17
TORSDOF 4
