REMARK  Name = ZINC23259748
REMARK  12 active torsions:
REMARK  status: ('A' for Active; 'I' for Inactive)
REMARK    1  A    between atoms: C_1  and  C_2
REMARK    2  A    between atoms: C_2  and  C_4
REMARK    3  A    between atoms: C_2  and  N_14
REMARK    4  A    between atoms: C_7  and  S_10
REMARK    5  A    between atoms: S_10  and  N_13
REMARK    6  A    between atoms: N_14  and  C_15
REMARK    7  A    between atoms: N_14  and  C_16
REMARK    8  A    between atoms: C_16  and  C_17
REMARK    9  A    between atoms: N_19  and  C_20
REMARK   10  A    between atoms: N_19  and  C_21
REMARK   11  A    between atoms: C_21  and  C_22
REMARK   12  A    between atoms: N_24  and  C_25
REMARK                            x       y       z     vdW  Elec       q    Type
REMARK                         _______ _______ _______ _____ _____    ______ ____
ROOT
ATOM      1  N   UNL     1       1.296   2.804   0.323  0.00  0.00    +0.388 N 
ATOM      2  C   UNL     1       0.663   3.411  -0.855  0.00  0.00    -0.095 C 
ATOM      3  H   UNL     1       0.603   2.908   1.171  0.00  0.00    -0.081 HD
ENDROOT
BRANCH   1   5
ATOM      4  C   UNL     1       3.471   3.522  -0.546  0.00  0.00    -0.008 C 
ATOM      5  C   UNL     1       2.542   3.501   0.670  0.00  0.00    -0.041 C 
BRANCH   5   6
ATOM      6  C   UNL     1       2.227   4.915   1.085  0.00  0.00    -0.061 A 
ATOM      7  C   UNL     1       3.059   5.950   0.701  0.00  0.00    +0.004 A 
ATOM      8  C   UNL     1       2.768   7.248   1.078  0.00  0.00    +0.029 A 
ATOM      9  C   UNL     1       1.649   7.510   1.847  0.00  0.00    +0.105 A 
ATOM     10  C   UNL     1       0.820   6.474   2.235  0.00  0.00    +0.029 A 
ATOM     11  C   UNL     1       1.109   5.177   1.854  0.00  0.00    +0.004 A 
BRANCH   9  12
ATOM     12  S   UNL     1       1.282   9.163   2.333  0.00  0.00    +0.056 S 
ATOM     13  O   UNL     1       1.911  10.014   1.385  0.00  0.00    -0.153 OA
ATOM     14  O   UNL     1      -0.115   9.209   2.590  0.00  0.00    -0.153 OA
BRANCH  12  15
ATOM     15  N   UNL     1       2.038   9.427   3.782  0.00  0.00    -0.204 NA
ATOM     16  H   UNL     1       1.833  10.452   4.122  0.00  0.00    +0.144 HD
ATOM     17  H   UNL     1       3.123   9.292   3.659  0.00  0.00    +0.144 HD
ENDBRANCH  12  15
ENDBRANCH   9  12
ENDBRANCH   5   6
ENDBRANCH   1   5
BRANCH   1  18
ATOM     18  C   UNL     1       1.537   1.370   0.111  0.00  0.00    +0.019 C 
BRANCH  18  19
ATOM     19  C   UNL     1       0.218   0.650   0.001  0.00  0.00    +0.199 C 
ATOM     20  O   UNL     1      -0.820   1.271   0.086  0.00  0.00    -0.278 OA
ATOM     21  N   UNL     1       0.193  -0.683  -0.197  0.00  0.00    -0.297 N 
ATOM     22  C   UNL     1       1.447  -1.431  -0.305  0.00  0.00    +0.132 C 
BRANCH  21  23
ATOM     23  C   UNL     1      -1.090  -1.383  -0.303  0.00  0.00    +0.203 C 
BRANCH  23  24
ATOM     24  C   UNL     1      -1.526  -1.415  -1.745  0.00  0.00    +0.235 C 
ATOM     25  O   UNL     1      -0.835  -0.903  -2.600  0.00  0.00    -0.274 OA
ATOM     26  N   UNL     1      -2.686  -2.012  -2.085  0.00  0.00    -0.283 N 
ATOM     27  H   UNL     1      -3.275  -2.544  -1.323  0.00  0.00    +0.155 HD
BRANCH  26  28
ATOM     28  C   UNL     1      -3.141  -1.955  -3.408  0.00  0.00    +0.052 A 
ATOM     29  C   UNL     1      -2.232  -1.955  -4.457  0.00  0.00    +0.025 A 
ATOM     30  C   UNL     1      -2.684  -1.904  -5.761  0.00  0.00    +0.002 A 
ATOM     31  C   UNL     1      -4.041  -1.843  -6.022  0.00  0.00    +0.002 A 
ATOM     32  C   UNL     1      -4.949  -1.837  -4.980  0.00  0.00    +0.022 A 
ATOM     33  C   UNL     1      -4.503  -1.893  -3.673  0.00  0.00    +0.062 A 
ATOM     34 CL   UNL     1      -5.644  -1.885  -2.365  0.00  0.00    -0.082 Cl
ENDBRANCH  26  28
ENDBRANCH  23  24
ENDBRANCH  21  23
ENDBRANCH  18  19
ENDBRANCH   1  18
TORSDOF 9
