REMARK  Name = ZINC38655002
REMARK  13 active torsions:
REMARK  status: ('A' for Active; 'I' for Inactive)
REMARK    1  A    between atoms: C_1  and  C_2
REMARK    2  A    between atoms: C_2  and  C_4
REMARK    3  A    between atoms: C_2  and  O_30
REMARK    4  A    between atoms: C_4  and  O_6
REMARK    5  A    between atoms: O_6  and  C_7
REMARK    6  A    between atoms: C_14  and  N_29
REMARK    7  A    between atoms: C_15  and  C_27
REMARK    8  A    between atoms: C_16  and  C_18
REMARK    9  A    between atoms: C_21  and  N_24
REMARK   10  A    between atoms: O_30  and  C_31
REMARK   11  A    between atoms: C_34  and  C_37
REMARK   12  A    between atoms: C_37  and  C_38
REMARK   13  A    between atoms: C_37  and  C_39
REMARK                            x       y       z     vdW  Elec       q    Type
REMARK                         _______ _______ _______ _____ _____    ______ ____
ROOT
ATOM      1  C   UNL     1      -3.569  -1.322  -0.307  0.00  0.00    +0.135 A 
ATOM      2  C   UNL     1      -3.678  -1.658   1.035  0.00  0.00    +0.047 A 
ATOM      3  C   UNL     1      -4.800  -2.321   1.492  0.00  0.00    +0.012 A 
ATOM      4  C   UNL     1      -5.818  -2.654   0.616  0.00  0.00    +0.008 A 
ATOM      5  C   UNL     1      -5.715  -2.320  -0.726  0.00  0.00    +0.138 A 
ATOM      6  C   UNL     1      -4.590  -1.648  -1.185  0.00  0.00    +0.093 A 
ATOM      7  O   UNL     1      -6.702  -2.637  -1.599  0.00  0.00    -0.441 OA
ATOM      8  C   UNL     1      -7.934  -2.921  -1.144  0.00  0.00    +0.199 C 
ATOM      9  C   UNL     1      -8.159  -3.278   0.142  0.00  0.00    +0.098 C 
ATOM     10  C   UNL     1      -7.033  -3.378   1.133  0.00  0.00    +0.098 C 
ENDROOT
BRANCH  10  11
ATOM     11  C   UNL     1      -6.692  -4.828   1.357  0.00  0.00    -0.035 A 
ATOM     12  C   UNL     1      -6.256  -5.607   0.302  0.00  0.00    +0.007 A 
ATOM     13  C   UNL     1      -5.943  -6.937   0.507  0.00  0.00    +0.033 A 
ATOM     14  C   UNL     1      -6.066  -7.489   1.769  0.00  0.00    +0.126 A 
ATOM     15  C   UNL     1      -6.501  -6.711   2.825  0.00  0.00    +0.033 A 
ATOM     16  C   UNL     1      -6.810  -5.379   2.620  0.00  0.00    +0.007 A 
BRANCH  14  17
ATOM     17  N   UNL     1      -5.731  -8.915   1.988  0.00  0.00    +0.056 N 
ATOM     18  O   UNL     1      -5.351  -9.596   1.065  0.00  0.00    -0.126 OA
ATOM     19  O   UNL     1      -5.839  -9.397   3.092  0.00  0.00    -0.126 OA
ENDBRANCH  14  17
ENDBRANCH  10  11
BRANCH   8  20
ATOM     20  N   UNL     1      -8.997  -2.845  -2.009  0.00  0.00    -0.328 N 
ATOM     21  H   UNL     1      -8.853  -2.590  -2.934  0.00  0.00    +0.145 HD
ATOM     22  H   UNL     1      -9.893  -3.046  -1.696  0.00  0.00    +0.145 HD
ENDBRANCH   8  20
BRANCH   9  23
ATOM     23  C   UNL     1      -9.495  -3.567   0.568  0.00  0.00    +0.101 C 
ATOM     24  N   UNL     1     -10.556  -3.796   0.905  0.00  0.00    -0.191 NA
ENDBRANCH   9  23
BRANCH   1  25
ATOM     25  O   UNL     1      -2.466  -0.670  -0.758  0.00  0.00    -0.423 OA
BRANCH  25  26
ATOM     26  C   UNL     1      -1.338  -1.379  -0.925  0.00  0.00    +0.353 C 
ATOM     27  O   UNL     1      -1.339  -2.571  -0.725  0.00  0.00    -0.246 OA
BRANCH  26  29
ATOM     28  C   UNL     1       0.379   0.286  -0.272  0.00  0.00    +0.064 C 
ATOM     29  C   UNL     1      -0.071  -0.689  -1.361  0.00  0.00    +0.279 C 
BRANCH  29  30
ATOM     30  O   UNL     1       0.951  -1.664  -1.579  0.00  0.00    -0.478 OA
BRANCH  30  31
ATOM     31  C   UNL     1       1.967  -1.316  -2.412  0.00  0.00    +0.122 A 
ATOM     32  C   UNL     1       2.965  -2.232  -2.712  0.00  0.00    +0.046 A 
ATOM     33  C   UNL     1       3.997  -1.876  -3.558  0.00  0.00    +0.007 A 
ATOM     34  C   UNL     1       4.036  -0.607  -4.106  0.00  0.00    -0.045 A 
ATOM     35  C   UNL     1       3.044   0.308  -3.808  0.00  0.00    +0.007 A 
ATOM     36  C   UNL     1       2.007  -0.045  -2.967  0.00  0.00    +0.046 A 
BRANCH  34  37
ATOM     37  C   UNL     1       5.164  -0.221  -5.029  0.00  0.00    +0.013 C 
ATOM     38  C   UNL     1       4.594   0.165  -6.395  0.00  0.00    +0.012 C 
ATOM     39  C   UNL     1       5.922   0.969  -4.437  0.00  0.00    +0.012 C 
ENDBRANCH  34  37
ENDBRANCH  30  31
ENDBRANCH  29  30
ENDBRANCH  26  29
ENDBRANCH  25  26
ENDBRANCH   1  25
TORSDOF 10
