REMARK  Name = ZINC39654538
REMARK  9 active torsions:
REMARK  status: ('A' for Active; 'I' for Inactive)
REMARK    1  A    between atoms: C_1  and  C_2
REMARK    2  A    between atoms: C_2  and  C_3
REMARK    3  A    between atoms: C_6  and  C_9
REMARK    4  A    between atoms: C_9  and  C_10
REMARK    5  A    between atoms: C_10  and  N_11
REMARK    6  A    between atoms: C_12  and  C_14
REMARK    7  A    between atoms: C_25  and  C_27
REMARK    8  A    between atoms: C_29  and  C_36
REMARK    9  A    between atoms: C_31  and  C_32
REMARK                            x       y       z     vdW  Elec       q    Type
REMARK                         _______ _______ _______ _____ _____    ______ ____
ROOT
ATOM      1  C   UNL     1       5.182  -0.818   8.752  0.00  0.00    +0.100 C 
ATOM      2  C   UNL     1       6.399  -1.703   8.401  0.00  0.00    +0.121 C 
ATOM      3  N   UNL     1       7.548  -0.767   8.379  0.00  0.00    -0.296 N 
ATOM      4  C   UNL     1       7.296   0.152   9.515  0.00  0.00    +0.115 C 
ATOM      5  C   UNL     1       5.774   0.397   9.486  0.00  0.00    -0.004 C 
ATOM      6  C   UNL     1       5.225   0.475  10.907  0.00  0.00    -0.010 C 
ATOM      7  C   UNL     1       5.783   1.723  11.597  0.00  0.00    -0.082 C 
ATOM      8  N   UNL     1       5.400   2.918  10.836  0.00  0.00    +0.379 N 
ATOM      9  C   UNL     1       6.010   2.879   9.502  0.00  0.00    -0.082 C 
ATOM     10  C   UNL     1       5.461   1.680   8.723  0.00  0.00    -0.010 C 
ATOM     11  C   UNL     1       8.587  -0.755   7.521  0.00  0.00    +0.250 C 
ATOM     12  O   UNL     1       8.596  -1.507   6.566  0.00  0.00    -0.270 OA
ATOM     13  H   UNL     1       4.396   2.949  10.745  0.00  0.00    -0.086 HD
ATOM     14  H   UNL     1       5.716   3.742  11.325  0.00  0.00    -0.086 HD
ENDROOT
BRANCH  11  15
ATOM     15  C   UNL     1       9.713   0.171   7.740  0.00  0.00    +0.087 A 
ATOM     16  C   UNL     1       9.938   1.036   8.907  0.00  0.00    +0.058 A 
ATOM     17  C   UNL     1      11.082   1.693   8.664  0.00  0.00    +0.103 A 
ATOM     18  O   UNL     1      11.565   1.310   7.472  0.00  0.00    -0.455 OA
ATOM     19  C   UNL     1      10.768   0.399   6.906  0.00  0.00    +0.220 A 
ATOM     20  C   UNL     1      11.723   2.701   9.583  0.00  0.00    +0.086 C 
BRANCH  19  21
ATOM     21  C   UNL     1      10.994  -0.262   5.570  0.00  0.00    +0.451 C 
ATOM     22  F   UNL     1      10.387   0.498   4.565  0.00  0.00    -0.163 F 
ATOM     23  F   UNL     1      12.368  -0.352   5.322  0.00  0.00    -0.163 F 
ATOM     24  F   UNL     1      10.437  -1.546   5.585  0.00  0.00    -0.163 F 
ENDBRANCH  19  21
ENDBRANCH  11  15
BRANCH   1  26
ATOM     25  N   UNL     1       3.144  -0.156   7.515  0.00  0.00    -0.315 N 
ATOM     26  C   UNL     1       4.474  -0.378   7.496  0.00  0.00    +0.218 C 
ATOM     27  O   UNL     1       5.100  -0.224   6.469  0.00  0.00    -0.275 OA
ATOM     28  H   UNL     1       2.643  -0.279   8.336  0.00  0.00    +0.149 HD
BRANCH  25  29
ATOM     29  C   UNL     1       2.456   0.272   6.294  0.00  0.00    +0.109 C 
BRANCH  29  30
ATOM     30  C   UNL     1       0.965   0.452   6.586  0.00  0.00    +0.054 C 
BRANCH  30  34
ATOM     31  C   UNL     1      -1.043   1.700   3.028  0.00  0.00    -0.048 A 
ATOM     32  C   UNL     1      -0.913   0.353   3.312  0.00  0.00    +0.004 A 
ATOM     33  C   UNL     1      -0.263  -0.051   4.463  0.00  0.00    +0.004 A 
ATOM     34  C   UNL     1       0.257   0.892   5.330  0.00  0.00    -0.046 A 
ATOM     35  C   UNL     1       0.128   2.239   5.046  0.00  0.00    +0.004 A 
ATOM     36  C   UNL     1      -0.519   2.642   3.892  0.00  0.00    +0.004 A 
BRANCH  31  38
ATOM     37  C   UNL     1      -0.742   2.252   0.629  0.00  0.00    +0.009 C 
ATOM     38  C   UNL     1      -1.752   2.139   1.773  0.00  0.00    +0.032 C 
ENDBRANCH  31  38
ENDBRANCH  30  34
ENDBRANCH  29  30
ENDBRANCH  25  29
ENDBRANCH   1  26
TORSDOF 7
