REMARK  Name = ZINC66994816
REMARK  13 active torsions:
REMARK  status: ('A' for Active; 'I' for Inactive)
REMARK    1  A    between atoms: C_1  and  N_2
REMARK    2  A    between atoms: N_2  and  C_3
REMARK    3  A    between atoms: N_2  and  C_4
REMARK    4  A    between atoms: C_4  and  C_5
REMARK    5  A    between atoms: C_5  and  N_6
REMARK    6  A    between atoms: C_7  and  C_9
REMARK    7  A    between atoms: C_13  and  C_15
REMARK    8  A    between atoms: C_15  and  N_16
REMARK    9  A    between atoms: N_16  and  C_17
REMARK   10  A    between atoms: C_17  and  C_18
REMARK   11  A    between atoms: C_23  and  O_24
REMARK   12  A    between atoms: O_24  and  C_25
REMARK   13  A    between atoms: C_25  and  C_26
REMARK                            x       y       z     vdW  Elec       q    Type
REMARK                         _______ _______ _______ _____ _____    ______ ____
ROOT
ATOM      1  C   UNL     1      -4.351  -4.379  -0.207  0.00  0.00    +0.037 A 
ATOM      2  C   UNL     1      -5.424  -3.493  -0.093  0.00  0.00    +0.013 A 
ATOM      3  C   UNL     1      -6.715  -3.977  -0.084  0.00  0.00    +0.001 A 
ATOM      4  C   UNL     1      -6.949  -5.337  -0.188  0.00  0.00    +0.002 A 
ATOM      5  C   UNL     1      -5.890  -6.220  -0.302  0.00  0.00    -0.064 A 
ATOM      6  C   UNL     1      -4.593  -5.749  -0.318  0.00  0.00    +0.014 A 
ENDROOT
BRANCH   1   8
ATOM      7  N   UNL     1      -2.733  -2.544  -0.111  0.00  0.00    -0.313 N 
ATOM      8  C   UNL     1      -2.964  -3.867  -0.218  0.00  0.00    +0.244 C 
ATOM      9  O   UNL     1      -2.031  -4.640  -0.323  0.00  0.00    -0.270 OA
ATOM     10  H   UNL     1      -3.477  -1.927  -0.028  0.00  0.00    +0.149 HD
BRANCH   7  11
ATOM     11  C   UNL     1      -1.358  -2.037  -0.122  0.00  0.00    +0.086 C 
BRANCH  11  12
ATOM     12  C   UNL     1      -1.376  -0.512   0.012  0.00  0.00    -0.061 C 
BRANCH  12  14
ATOM     13  C   UNL     1      -0.018   1.465   0.010  0.00  0.00    -0.097 C 
ATOM     14  N   UNL     1       0.002  -0.004   0.002  0.00  0.00    +0.377 N 
ATOM     15  C   UNL     1       0.713  -0.491   1.192  0.00  0.00    -0.097 C 
ATOM     16  H   UNL     1       0.474  -0.330  -0.828  0.00  0.00    -0.083 HD
ENDBRANCH  12  14
ENDBRANCH  11  12
ENDBRANCH   7  11
ENDBRANCH   1   8
BRANCH   5  17
ATOM     17  C   UNL     1      -6.153  -7.700  -0.414  0.00  0.00    -0.046 C 
BRANCH  17  18
ATOM     18  N   UNL     1      -6.292  -8.067  -1.830  0.00  0.00    +0.384 N 
ATOM     19  H   UNL     1      -7.062  -7.556  -2.236  0.00  0.00    -0.085 HD
ATOM     20  H   UNL     1      -5.441  -7.838  -2.321  0.00  0.00    -0.085 HD
BRANCH  18  21
ATOM     21  C   UNL     1      -6.549  -9.509  -1.939  0.00  0.00    -0.043 C 
BRANCH  21  22
ATOM     22  C   UNL     1      -6.691  -9.885  -3.392  0.00  0.00    -0.023 A 
ATOM     23  C   UNL     1      -7.947 -10.048  -3.944  0.00  0.00    +0.005 A 
ATOM     24  C   UNL     1      -8.078 -10.394  -5.276  0.00  0.00    +0.000 A 
ATOM     25  C   UNL     1      -6.953 -10.577  -6.059  0.00  0.00    +0.004 A 
ATOM     26  C   UNL     1      -5.695 -10.414  -5.512  0.00  0.00    +0.046 A 
ATOM     27  C   UNL     1      -5.561 -10.062  -4.176  0.00  0.00    +0.123 A 
BRANCH  27  28
ATOM     28  O   UNL     1      -4.325  -9.896  -3.637  0.00  0.00    -0.479 OA
BRANCH  28  29
ATOM     29  C   UNL     1      -3.206 -10.095  -4.505  0.00  0.00    +0.317 C 
BRANCH  29  30
ATOM     30  C   UNL     1      -1.959  -9.874  -3.755  0.00  0.00    -0.065 C 
ATOM     31  C   UNL     1      -0.964  -9.699  -3.157  0.00  0.00    +0.007 C 
ENDBRANCH  29  30
ENDBRANCH  28  29
ENDBRANCH  27  28
ENDBRANCH  21  22
ENDBRANCH  18  21
ENDBRANCH  17  18
ENDBRANCH   5  17
TORSDOF 11
