REMARK  Name = ZINC26198725
REMARK  12 active torsions:
REMARK  status: ('A' for Active; 'I' for Inactive)
REMARK    1  A    between atoms: C_1  and  C_2
REMARK    2  A    between atoms: C_7  and  C_8
REMARK    3  A    between atoms: C_8  and  N_9
REMARK    4  A    between atoms: N_9  and  C_10
REMARK    5  A    between atoms: N_9  and  C_11
REMARK    6  A    between atoms: C_11  and  C_13
REMARK    7  A    between atoms: C_11  and  C_14
REMARK    8  A    between atoms: N_16  and  C_17
REMARK    9  A    between atoms: C_17  and  C_19
REMARK   10  A    between atoms: C_17  and  C_20
REMARK   11  A    between atoms: C_23  and  S_26
REMARK   12  A    between atoms: S_26  and  N_29
REMARK                            x       y       z     vdW  Elec       q    Type
REMARK                         _______ _______ _______ _____ _____    ______ ____
ROOT
ATOM      1  C   UNL     1      -2.519   3.823   7.143  0.00  0.00    +0.200 C 
ATOM      2  O   UNL     1      -3.468   3.206   7.578  0.00  0.00    -0.278 OA
ATOM      3  N   UNL     1      -2.268   3.827   5.818  0.00  0.00    -0.310 N 
ATOM      4  H   UNL     1      -1.407   4.386   5.423  0.00  0.00    +0.149 HD
ENDROOT
BRANCH   1   5
ATOM      5  C   UNL     1      -1.620   4.584   8.082  0.00  0.00    +0.016 C 
ATOM      6  C   UNL     1      -0.239   3.927   8.112  0.00  0.00    -0.004 C 
BRANCH   5   7
ATOM      7  N   UNL     1      -2.198   4.570   9.432  0.00  0.00    +0.388 N 
ATOM      8  C   UNL     1      -2.267   3.202   9.961  0.00  0.00    -0.095 C 
ATOM      9  H   UNL     1      -1.537   5.154  10.089  0.00  0.00    -0.081 HD
BRANCH   7  10
ATOM     10  C   UNL     1      -3.522   5.207   9.444  0.00  0.00    -0.042 C 
BRANCH  10  17
ATOM     11  C   UNL     1      -2.520   7.428  10.997  0.00  0.00    +0.044 C 
ATOM     12  C   UNL     1      -3.496   6.458  11.612  0.00  0.00    -0.049 A 
ATOM     13  C   UNL     1      -3.913   6.631  12.919  0.00  0.00    +0.003 A 
ATOM     14  C   UNL     1      -4.808   5.742  13.483  0.00  0.00    +0.000 A 
ATOM     15  C   UNL     1      -5.288   4.679  12.739  0.00  0.00    +0.000 A 
ATOM     16  C   UNL     1      -4.875   4.509  11.431  0.00  0.00    +0.002 A 
ATOM     17  C   UNL     1      -3.976   5.396  10.869  0.00  0.00    -0.061 A 
ENDBRANCH  10  17
ENDBRANCH   7  10
ENDBRANCH   5   7
ENDBRANCH   1   5
BRANCH   3  18
ATOM     18  C   UNL     1      -3.142   3.087   4.905  0.00  0.00    +0.100 C 
ATOM     19  C   UNL     1      -4.344   3.957   4.532  0.00  0.00    +0.033 C 
BRANCH  18  20
ATOM     20  C   UNL     1      -2.376   2.726   3.658  0.00  0.00    -0.027 A 
ATOM     21  C   UNL     1      -2.550   1.485   3.074  0.00  0.00    +0.007 A 
ATOM     22  C   UNL     1      -1.847   1.155   1.931  0.00  0.00    +0.029 A 
ATOM     23  C   UNL     1      -0.970   2.065   1.371  0.00  0.00    +0.105 A 
ATOM     24  C   UNL     1      -0.792   3.304   1.958  0.00  0.00    +0.029 A 
ATOM     25  C   UNL     1      -1.499   3.637   3.098  0.00  0.00    +0.007 A 
BRANCH  23  26
ATOM     26  S   UNL     1      -0.074   1.644  -0.086  0.00  0.00    +0.056 S 
ATOM     27  O   UNL     1      -0.006   0.225  -0.125  0.00  0.00    -0.153 OA
ATOM     28  O   UNL     1       1.087   2.463  -0.100  0.00  0.00    -0.153 OA
BRANCH  26  29
ATOM     29  N   UNL     1      -0.997   2.109  -1.380  0.00  0.00    -0.204 NA
ATOM     30  H   UNL     1      -0.470   1.862  -2.314  0.00  0.00    +0.144 HD
ATOM     31  H   UNL     1      -1.173   3.194  -1.334  0.00  0.00    +0.144 HD
ENDBRANCH  26  29
ENDBRANCH  23  26
ENDBRANCH  18  20
ENDBRANCH   3  18
TORSDOF 8
