REMARK  Name = ZINC40688692
REMARK  9 active torsions:
REMARK  status: ('A' for Active; 'I' for Inactive)
REMARK    1  A    between atoms: C_1  and  C_2
REMARK    2  A    between atoms: C_4  and  C_25
REMARK    3  A    between atoms: C_7  and  N_8
REMARK    4  A    between atoms: C_10  and  N_23
REMARK    5  A    between atoms: C_11  and  N_15
REMARK    6  A    between atoms: N_15  and  N_16
REMARK    7  A    between atoms: N_16  and  C_17
REMARK    8  A    between atoms: C_25  and  C_27
REMARK    9  A    between atoms: C_25  and  C_29
REMARK                            x       y       z     vdW  Elec       q    Type
REMARK                         _______ _______ _______ _____ _____    ______ ____
ROOT
ATOM      1  N   UNL     1      -1.198  -0.176   2.017  0.00  0.00    -0.299 N 
ATOM      2  C   UNL     1      -1.147  -0.813   3.252  0.00  0.00    +0.126 A 
ATOM      3  C   UNL     1      -1.552  -0.147   4.410  0.00  0.00    +0.105 A 
ATOM      4  C   UNL     1      -1.481  -0.834   5.624  0.00  0.00    +0.161 A 
ATOM      5  N   UNL     1      -1.033  -2.087   5.631  0.00  0.00    -0.219 NA
ATOM      6  C   UNL     1      -0.660  -2.679   4.514  0.00  0.00    +0.200 A 
ATOM      7  N   UNL     1      -0.716  -2.069   3.348  0.00  0.00    -0.333 N 
ATOM      8  H   UNL     1      -1.585   0.710   1.944  0.00  0.00    +0.154 HD
ATOM      9  H   UNL     1      -0.436  -2.541   2.548  0.00  0.00    +0.168 HD
ENDROOT
BRANCH   1  16
ATOM     10  C   UNL     1       1.614  -0.577   1.844  0.00  0.00    +0.045 C 
ATOM     11  C   UNL     1       0.675  -1.029   0.755  0.00  0.00    -0.029 A 
ATOM     12  C   UNL     1       1.173  -1.664  -0.366  0.00  0.00    +0.011 A 
ATOM     13  C   UNL     1       0.313  -2.079  -1.366  0.00  0.00    -0.008 A 
ATOM     14  C   UNL     1      -1.049  -1.861  -1.247  0.00  0.00    +0.047 A 
ATOM     15  C   UNL     1      -1.552  -1.226  -0.127  0.00  0.00    +0.043 A 
ATOM     16  C   UNL     1      -0.691  -0.813   0.881  0.00  0.00    +0.037 A 
ATOM     17 CL   UNL     1      -2.124  -2.384  -2.505  0.00  0.00    -0.083 Cl
BRANCH  13  18
ATOM     18  C   UNL     1       0.860  -2.771  -2.588  0.00  0.00    +0.153 C 
BRANCH  18  19
ATOM     19  C   UNL     1       1.737  -1.816  -3.356  0.00  0.00    -0.026 A 
ATOM     20  C   UNL     1       2.947  -1.412  -2.825  0.00  0.00    +0.006 A 
ATOM     21  C   UNL     1       3.753  -0.536  -3.528  0.00  0.00    +0.020 A 
ATOM     22  C   UNL     1       3.347  -0.064  -4.764  0.00  0.00    +0.041 A 
ATOM     23  C   UNL     1       2.136  -0.470  -5.295  0.00  0.00    +0.020 A 
ATOM     24  C   UNL     1       1.334  -1.350  -4.593  0.00  0.00    +0.006 A 
ATOM     25 CL   UNL     1       4.358   1.036  -5.648  0.00  0.00    -0.084 Cl
ENDBRANCH  18  19
BRANCH  18  26
ATOM     26  C   UNL     1       1.651  -3.942  -2.176  0.00  0.00    +0.075 C 
ATOM     27  N   UNL     1       2.262  -4.846  -1.859  0.00  0.00    -0.196 NA
ENDBRANCH  18  26
ENDBRANCH  13  18
ENDBRANCH   1  16
BRANCH   3  28
ATOM     28  N   UNL     1      -2.018   1.176   4.356  0.00  0.00    -0.353 N 
ATOM     29  H   UNL     1      -2.061   1.640   3.506  0.00  0.00    +0.143 HD
ATOM     30  H   UNL     1      -2.296   1.626   5.169  0.00  0.00    +0.143 HD
ENDBRANCH   3  28
BRANCH   4  31
ATOM     31  N   UNL     1      -1.872  -0.217   6.807  0.00  0.00    -0.249 N 
ATOM     32  H   UNL     1      -2.197   0.696   6.793  0.00  0.00    +0.172 HD
BRANCH  31  33
ATOM     33  N   UNL     1      -1.796  -0.916   8.019  0.00  0.00    -0.265 N 
ATOM     34  H   UNL     1      -1.471  -1.830   8.033  0.00  0.00    +0.170 HD
BRANCH  33  35
ATOM     35  C   UNL     1      -2.189  -0.297   9.208  0.00  0.00    +0.044 A 
ATOM     36  C   UNL     1      -2.660   1.010   9.189  0.00  0.00    +0.024 A 
ATOM     37  C   UNL     1      -3.048   1.619  10.367  0.00  0.00    +0.002 A 
ATOM     38  C   UNL     1      -2.967   0.930  11.563  0.00  0.00    +0.000 A 
ATOM     39  C   UNL     1      -2.498  -0.371  11.585  0.00  0.00    +0.002 A 
ATOM     40  C   UNL     1      -2.114  -0.988  10.410  0.00  0.00    +0.024 A 
ENDBRANCH  33  35
ENDBRANCH  31  33
ENDBRANCH   4  31
TORSDOF 8
