REMARK  Name = ZINC39685895
REMARK  13 active torsions:
REMARK  status: ('A' for Active; 'I' for Inactive)
REMARK    1  A    between atoms: C_1  and  C_2
REMARK    2  A    between atoms: C_3  and  C_8
REMARK    3  A    between atoms: C_4  and  C_7
REMARK    4  A    between atoms: C_12  and  C_21
REMARK    5  A    between atoms: N_23  and  C_24
REMARK    6  A    between atoms: C_24  and  C_26
REMARK    7  A    between atoms: C_24  and  C_29
REMARK    8  A    between atoms: C_26  and  C_27
REMARK    9  A    between atoms: C_26  and  C_28
REMARK   10  A    between atoms: N_31  and  C_32
REMARK   11  A    between atoms: C_32  and  C_33
REMARK   12  A    between atoms: C_32  and  C_34
REMARK   13  A    between atoms: C_32  and  C_35
REMARK                            x       y       z     vdW  Elec       q    Type
REMARK                         _______ _______ _______ _____ _____    ______ ____
ROOT
ATOM      1  C   UNL     1       0.116  -0.482  -1.374  0.00  0.00    +0.252 C 
ATOM      2  O   UNL     1       1.085  -0.526  -2.107  0.00  0.00    -0.270 OA
ATOM      3  N   UNL     1      -1.125  -0.575  -1.891  0.00  0.00    -0.296 N 
ATOM      4  C   UNL     1      -2.417  -0.535  -1.166  0.00  0.00    +0.121 C 
ATOM      5  C   UNL     1      -3.351   0.293  -2.076  0.00  0.00    +0.100 C 
ATOM      6  C   UNL     1      -2.749   0.155  -3.485  0.00  0.00    -0.004 C 
ATOM      7  C   UNL     1      -1.507  -0.731  -3.316  0.00  0.00    +0.115 C 
ATOM      8  C   UNL     1      -2.345   1.524  -4.023  0.00  0.00    -0.010 C 
ATOM      9  C   UNL     1      -1.802   1.367  -5.447  0.00  0.00    -0.082 C 
ATOM     10  N   UNL     1      -2.834   0.769  -6.302  0.00  0.00    +0.379 N 
ATOM     11  C   UNL     1      -3.151  -0.585  -5.832  0.00  0.00    -0.082 C 
ATOM     12  C   UNL     1      -3.750  -0.511  -4.425  0.00  0.00    -0.010 C 
ATOM     13  H   UNL     1      -3.667   1.338  -6.271  0.00  0.00    -0.086 HD
ATOM     14  H   UNL     1      -2.496   0.723  -7.252  0.00  0.00    -0.086 HD
ENDROOT
BRANCH   1  17
ATOM     15  C   UNL     1       0.271   2.318   0.244  0.00  0.00    +0.070 C 
ATOM     16  C   UNL     1       0.369   0.930   0.823  0.00  0.00    +0.093 A 
ATOM     17  C   UNL     1       0.299  -0.329   0.081  0.00  0.00    +0.101 A 
ATOM     18  C   UNL     1       0.434  -1.335   0.995  0.00  0.00    +0.147 A 
ATOM     19  O   UNL     1       0.577  -0.781   2.201  0.00  0.00    -0.359 OA
ATOM     20  N   UNL     1       0.539   0.627   2.076  0.00  0.00    -0.083 NA
ATOM     21  C   UNL     1       0.423  -2.812   0.694  0.00  0.00    +0.090 C 
ENDBRANCH   1  17
BRANCH   5  22
ATOM     22  C   UNL     1      -3.358   1.737  -1.646  0.00  0.00    +0.219 C 
ATOM     23  O   UNL     1      -2.405   2.199  -1.056  0.00  0.00    -0.275 OA
ATOM     24  N   UNL     1      -4.425   2.515  -1.916  0.00  0.00    -0.303 N 
ATOM     25  H   UNL     1      -5.196   2.141  -2.370  0.00  0.00    +0.149 HD
BRANCH  24  26
ATOM     26  C   UNL     1      -4.420   3.927  -1.524  0.00  0.00    +0.161 C 
BRANCH  26  27
ATOM     27  C   UNL     1      -5.815   4.346  -1.139  0.00  0.00    +0.234 C 
ATOM     28  O   UNL     1      -6.768   3.690  -1.503  0.00  0.00    -0.274 OA
ATOM     29  N   UNL     1      -6.004   5.451  -0.390  0.00  0.00    -0.309 N 
ATOM     30  H   UNL     1      -5.249   6.015  -0.159  0.00  0.00    +0.149 HD
BRANCH  29  31
ATOM     31  C   UNL     1      -7.348   5.799   0.076  0.00  0.00    +0.026 C 
ATOM     32  C   UNL     1      -7.897   4.665   0.944  0.00  0.00    +0.031 C 
ATOM     33  C   UNL     1      -7.286   7.087   0.899  0.00  0.00    +0.031 C 
ATOM     34  C   UNL     1      -8.267   6.008  -1.130  0.00  0.00    +0.031 C 
ENDBRANCH  29  31
ENDBRANCH  26  27
BRANCH  26  35
ATOM     35  C   UNL     1      -3.937   4.780  -2.699  0.00  0.00    +0.012 C 
ATOM     36  C   UNL     1      -2.460   4.484  -2.971  0.00  0.00    +0.009 C 
ATOM     37  C   UNL     1      -4.761   4.448  -3.944  0.00  0.00    +0.009 C 
ENDBRANCH  26  35
ENDBRANCH  24  26
ENDBRANCH   5  22
TORSDOF 6
