REMARK  Name = ZINC63350844
REMARK  7 active torsions:
REMARK  status: ('A' for Active; 'I' for Inactive)
REMARK    1  A    between atoms: C_1  and  C_2
REMARK    2  A    between atoms: C_6  and  O_8
REMARK    3  A    between atoms: O_8  and  C_9
REMARK    4  A    between atoms: C_9  and  C_10
REMARK    5  A    between atoms: C_25  and  C_27
REMARK    6  A    between atoms: C_27  and  O_29
REMARK    7  A    between atoms: O_29  and  C_30
REMARK                            x       y       z     vdW  Elec       q    Type
REMARK                         _______ _______ _______ _____ _____    ______ ____
ROOT
ATOM      1  C   UNL     1       0.063  -2.892   4.781  0.00  0.00    +0.254 C 
ATOM      2  O   UNL     1       0.078  -4.094   4.624  0.00  0.00    -0.272 OA
ATOM      3  N   UNL     1       0.062  -2.375   6.026  0.00  0.00    -0.283 N 
ATOM      4  C   UNL     1       0.037  -0.916   6.209  0.00  0.00    +0.137 C 
ATOM      5  C   UNL     1       1.294  -0.518   6.990  0.00  0.00    +0.124 C 
ATOM      6  C   UNL     1       1.373  -1.453   8.191  0.00  0.00    -0.035 C 
ATOM      7  C   UNL     1       1.423  -0.677   9.267  0.00  0.00    -0.001 A 
ATOM      8  C   UNL     1       1.575  -0.994  10.696  0.00  0.00    +0.010 A 
ATOM      9  C   UNL     1       1.574   0.065  11.548  0.00  0.00    +0.001 A 
ATOM     10  C   UNL     1       1.438   1.391  11.127  0.00  0.00    +0.002 A 
ATOM     11  C   UNL     1       1.298   1.774   9.833  0.00  0.00    +0.026 A 
ATOM     12  C   UNL     1       1.290   0.749   8.842  0.00  0.00    +0.043 A 
ATOM     13  N   UNL     1       1.195   0.840   7.527  0.00  0.00    -0.376 N 
ATOM     14  C   UNL     1       1.316  -2.955   8.053  0.00  0.00    +0.067 C 
ATOM     15  C   UNL     1       0.079  -3.273   7.185  0.00  0.00    +0.189 C 
ATOM     16  H   UNL     1       1.077   1.649   7.006  0.00  0.00    +0.160 HD
ENDROOT
BRANCH  15  17
ATOM     17  C   UNL     1      -1.175  -3.072   7.996  0.00  0.00    +0.328 C 
ATOM     18  O   UNL     1      -1.814  -2.054   7.877  0.00  0.00    -0.249 OA
BRANCH  17  19
ATOM     19  O   UNL     1      -1.581  -4.024   8.851  0.00  0.00    -0.467 OA
ATOM     20  C   UNL     1      -2.779  -3.766   9.587  0.00  0.00    +0.280 C 
ENDBRANCH  17  19
ENDBRANCH  15  17
BRANCH   1  21
ATOM     21  C   UNL     1       0.045  -1.976   3.585  0.00  0.00    +0.324 C 
BRANCH  21  22
ATOM     22  O   UNL     1       0.049  -2.756   2.387  0.00  0.00    -0.482 OA
BRANCH  22  28
ATOM     23  C   UNL     1      -0.018   1.503   0.010  0.00  0.00    +0.044 C 
ATOM     24  C   UNL     1       0.002  -0.004   0.002  0.00  0.00    -0.043 A 
ATOM     25  C   UNL     1       0.005  -0.680  -1.202  0.00  0.00    +0.050 A 
ATOM     26  C   UNL     1       0.024  -2.067  -1.220  0.00  0.00    +0.143 A 
ATOM     27  C   UNL     1       0.038  -2.776  -0.007  0.00  0.00    +0.063 A 
ATOM     28  C   UNL     1       0.035  -2.079   1.211  0.00  0.00    +0.132 A 
ATOM     29  C   UNL     1       0.023  -0.695   1.202  0.00  0.00    +0.050 A 
ATOM     30  C   UNL     1       0.055  -4.243  -0.032  0.00  0.00    -0.023 A 
ATOM     31  C   UNL     1       0.055  -4.863  -1.233  0.00  0.00    +0.041 A 
ATOM     32  C   UNL     1       0.050  -4.084  -2.417  0.00  0.00    +0.341 A 
ATOM     33  O   UNL     1       0.065  -4.650  -3.495  0.00  0.00    -0.245 OA
ATOM     34  O   UNL     1       0.030  -2.744  -2.388  0.00  0.00    -0.422 OA
ATOM     35  C   UNL     1       0.052  -6.362  -1.373  0.00  0.00    +0.042 C 
ATOM     36  C   UNL     1       0.493  -7.027  -0.071  0.00  0.00    +0.005 C 
ATOM     37  C   UNL     1      -0.339  -6.441   1.076  0.00  0.00    +0.005 C 
ATOM     38  C   UNL     1       0.077  -4.985   1.276  0.00  0.00    +0.036 C 
ENDBRANCH  22  28
ENDBRANCH  21  22
ENDBRANCH   1  21
TORSDOF 5
