REMARK  Name = ZINC63531100
REMARK  10 active torsions:
REMARK  status: ('A' for Active; 'I' for Inactive)
REMARK    1  A    between atoms: C_1  and  C_2
REMARK    2  A    between atoms: C_2  and  O_3
REMARK    3  A    between atoms: O_3  and  C_4
REMARK    4  A    between atoms: C_7  and  C_10
REMARK    5  A    between atoms: C_10  and  N_11
REMARK    6  A    between atoms: C_12  and  C_14
REMARK    7  A    between atoms: C_16  and  S_26
REMARK    8  A    between atoms: C_20  and  O_24
REMARK    9  A    between atoms: O_24  and  C_25
REMARK   10  A    between atoms: S_26  and  C_27
REMARK                            x       y       z     vdW  Elec       q    Type
REMARK                         _______ _______ _______ _____ _____    ______ ____
ROOT
ATOM      1  C   UNL     1      -2.186  -7.996   2.599  0.00  0.00    +0.204 C 
ATOM      2  C   UNL     1      -3.490  -8.051   3.364  0.00  0.00    +0.030 C 
ATOM      3  C   UNL     1      -3.721  -9.397   3.618  0.00  0.00    +0.010 A 
ATOM      4  C   UNL     1      -4.766 -10.073   4.287  0.00  0.00    +0.014 A 
ATOM      5  C   UNL     1      -4.737 -11.425   4.390  0.00  0.00    +0.046 A 
ATOM      6  C   UNL     1      -3.689 -12.178   3.845  0.00  0.00    +0.122 A 
ATOM      7  C   UNL     1      -2.650 -11.589   3.188  0.00  0.00    +0.071 A 
ATOM      8  C   UNL     1      -2.617 -10.182   3.044  0.00  0.00    +0.048 A 
ATOM      9  N   UNL     1      -1.736  -9.385   2.461  0.00  0.00    -0.369 N 
ATOM     10  H   UNL     1      -0.925  -9.672   2.014  0.00  0.00    +0.161 HD
ENDROOT
BRANCH   1  12
ATOM     11  N   UNL     1      -2.473  -6.045   1.105  0.00  0.00    -0.309 N 
ATOM     12  C   UNL     1      -2.407  -7.385   1.239  0.00  0.00    +0.241 C 
ATOM     13  O   UNL     1      -2.526  -8.098   0.266  0.00  0.00    -0.273 OA
ATOM     14  H   UNL     1      -2.378  -5.475   1.884  0.00  0.00    +0.149 HD
BRANCH  11  15
ATOM     15  C   UNL     1      -2.688  -5.451  -0.216  0.00  0.00    +0.139 C 
BRANCH  15  19
ATOM     16  C   UNL     1      -2.784  -1.193   0.134  0.00  0.00    +0.121 A 
ATOM     17  C   UNL     1      -1.581  -1.844  -0.098  0.00  0.00    +0.046 A 
ATOM     18  C   UNL     1      -1.553  -3.221  -0.210  0.00  0.00    +0.009 A 
ATOM     19  C   UNL     1      -2.722  -3.950  -0.093  0.00  0.00    -0.030 A 
ATOM     20  C   UNL     1      -3.922  -3.303   0.138  0.00  0.00    +0.009 A 
ATOM     21  C   UNL     1      -3.954  -1.927   0.258  0.00  0.00    +0.046 A 
BRANCH  16  22
ATOM     22  O   UNL     1      -2.814   0.161   0.245  0.00  0.00    -0.492 OA
BRANCH  22  24
ATOM     23  C   UNL     1      -1.802   2.356   0.262  0.00  0.00    +0.048 C 
ATOM     24  C   UNL     1      -1.570   0.851   0.107  0.00  0.00    +0.225 C 
ENDBRANCH  22  24
ENDBRANCH  16  22
ENDBRANCH  15  19
ENDBRANCH  11  15
ENDBRANCH   1  12
BRANCH   6  25
ATOM     25  O   UNL     1      -3.707 -13.528   3.976  0.00  0.00    -0.495 OA
ATOM     26  C   UNL     1      -4.817 -14.098   4.674  0.00  0.00    +0.277 C 
ENDBRANCH   6  25
BRANCH   2  27
ATOM     27  S   UNL     1      -4.446  -6.769   3.808  0.00  0.00    -0.091 S 
BRANCH  27  28
ATOM     28  C   UNL     1      -3.478  -5.911   5.005  0.00  0.00    +0.013 A 
ATOM     29  C   UNL     1      -2.276  -6.451   5.446  0.00  0.00    +0.015 A 
ATOM     30  C   UNL     1      -1.521  -5.776   6.385  0.00  0.00    +0.001 A 
ATOM     31  C   UNL     1      -1.960  -4.564   6.886  0.00  0.00    +0.000 A 
ATOM     32  C   UNL     1      -3.156  -4.024   6.450  0.00  0.00    +0.001 A 
ATOM     33  C   UNL     1      -3.913  -4.691   5.507  0.00  0.00    +0.015 A 
ENDBRANCH  27  28
ENDBRANCH   2  27
TORSDOF 8
