REMARK  Name = ZINC63385096
REMARK  11 active torsions:
REMARK  status: ('A' for Active; 'I' for Inactive)
REMARK    1  A    between atoms: C_1  and  C_2
REMARK    2  A    between atoms: C_9  and  O_19
REMARK    3  A    between atoms: C_15  and  C_17
REMARK    4  A    between atoms: C_15  and  C_18
REMARK    5  A    between atoms: O_19  and  C_20
REMARK    6  A    between atoms: C_20  and  C_21
REMARK    7  A    between atoms: N_23  and  C_24
REMARK    8  A    between atoms: C_24  and  C_25
REMARK    9  A    between atoms: C_25  and  C_26
REMARK   10  A    between atoms: C_29  and  O_35
REMARK   11  A    between atoms: O_35  and  C_36
REMARK                            x       y       z     vdW  Elec       q    Type
REMARK                         _______ _______ _______ _____ _____    ______ ____
ROOT
ATOM      1  O   UNL     1       0.225   1.292   2.492  0.00  0.00    -0.482 OA
ENDROOT
BRANCH   1  10
ATOM      2  C   UNL     1      -0.018   1.503   0.010  0.00  0.00    +0.045 C 
ATOM      3  C   UNL     1       0.002  -0.004   0.002  0.00  0.00    -0.030 A 
ATOM      4  C   UNL     1      -0.096  -0.691  -1.166  0.00  0.00    +0.096 A 
ATOM      5  C   UNL     1      -0.074  -2.100  -1.156  0.00  0.00    +0.337 A 
ATOM      6  O   UNL     1      -0.164  -2.708  -2.208  0.00  0.00    -0.245 OA
ATOM      7  O   UNL     1       0.045  -2.783  -0.005  0.00  0.00    -0.422 OA
ATOM      8  C   UNL     1       0.142  -2.137   1.179  0.00  0.00    +0.149 A 
ATOM      9  C   UNL     1       0.130  -0.731   1.213  0.00  0.00    +0.063 A 
ATOM     10  C   UNL     1       0.239  -0.064   2.445  0.00  0.00    +0.136 A 
ATOM     11  C   UNL     1       0.361  -0.797   3.607  0.00  0.00    +0.092 A 
ATOM     12  C   UNL     1       0.376  -2.192   3.568  0.00  0.00    +0.131 A 
ATOM     13  C   UNL     1       0.256  -2.858   2.360  0.00  0.00    +0.038 A 
ATOM     14  C   UNL     1       0.256  -4.364   2.288  0.00  0.00    +0.046 C 
ATOM     15  C   UNL     1       0.818  -4.943   3.589  0.00  0.00    +0.052 C 
ATOM     16  C   UNL     1       0.124  -4.246   4.765  0.00  0.00    +0.105 C 
ATOM     17  O   UNL     1       0.504  -2.864   4.742  0.00  0.00    -0.486 OA
ATOM     18  C   UNL     1      -1.393  -4.387   4.626  0.00  0.00    +0.055 C 
ATOM     19  C   UNL     1       0.582  -4.877   6.082  0.00  0.00    +0.055 C 
ENDBRANCH   1  10
BRANCH   1  20
ATOM     20  C   UNL     1       0.341   1.899   3.781  0.00  0.00    +0.324 C 
BRANCH  20  21
ATOM     21  C   UNL     1       0.306   3.398   3.635  0.00  0.00    +0.251 C 
ATOM     22  O   UNL     1       0.194   3.899   2.536  0.00  0.00    -0.272 OA
ATOM     23  N   UNL     1       0.401   4.184   4.727  0.00  0.00    -0.312 N 
ATOM     24  H   UNL     1       0.491   3.783   5.606  0.00  0.00    +0.149 HD
BRANCH  23  25
ATOM     25  C   UNL     1       0.367   5.641   4.585  0.00  0.00    +0.108 C 
BRANCH  25  26
ATOM     26  C   UNL     1       0.491   6.290   5.965  0.00  0.00    +0.052 C 
BRANCH  26  27
ATOM     27  C   UNL     1       0.457   7.790   5.820  0.00  0.00    -0.040 C 
ATOM     28  C   UNL     1      -0.623   8.594   5.943  0.00  0.00    +0.002 A 
ATOM     29  C   UNL     1      -2.035   8.326   6.237  0.00  0.00    +0.055 A 
ATOM     30  C   UNL     1      -2.912   9.357   6.298  0.00  0.00    +0.121 A 
ATOM     31  C   UNL     1      -2.517  10.690   6.088  0.00  0.00    +0.047 A 
ATOM     32  C   UNL     1      -1.242  11.037   5.812  0.00  0.00    +0.029 A 
ATOM     33  C   UNL     1      -0.209   9.999   5.723  0.00  0.00    +0.043 A 
ATOM     34  N   UNL     1       1.075  10.060   5.473  0.00  0.00    -0.380 N 
ATOM     35  C   UNL     1       1.625   8.701   5.513  0.00  0.00    +0.144 C 
ATOM     36  H   UNL     1       1.579  10.870   5.295  0.00  0.00    +0.160 HD
BRANCH  30  37
ATOM     37  O   UNL     1      -4.217   9.094   6.571  0.00  0.00    -0.495 OA
ATOM     38  C   UNL     1      -5.106  10.211   6.626  0.00  0.00    +0.277 C 
ENDBRANCH  30  37
ENDBRANCH  26  27
ENDBRANCH  25  26
ENDBRANCH  23  25
ENDBRANCH  20  21
ENDBRANCH   1  20
TORSDOF 7
