REMARK  Name = ZINC65506377
REMARK  11 active torsions:
REMARK  status: ('A' for Active; 'I' for Inactive)
REMARK    1  A    between atoms: C_1  and  C_2
REMARK    2  A    between atoms: C_3  and  C_28
REMARK    3  A    between atoms: C_7  and  N_14
REMARK    4  A    between atoms: C_9  and  C_11
REMARK    5  A    between atoms: C_11  and  C_12
REMARK    6  A    between atoms: C_12  and  N_13
REMARK    7  A    between atoms: N_14  and  C_15
REMARK    8  A    between atoms: C_15  and  C_17
REMARK    9  A    between atoms: C_15  and  C_18
REMARK   10  A    between atoms: C_21  and  S_24
REMARK   11  A    between atoms: S_24  and  C_27
REMARK                            x       y       z     vdW  Elec       q    Type
REMARK                         _______ _______ _______ _____ _____    ______ ____
ROOT
ATOM      1  C   UNL     1      -0.556   1.486   0.114  0.00  0.00    +0.045 C 
ATOM      2  C   UNL     1      -0.484  -0.020   0.096  0.00  0.00    -0.028 A 
ATOM      3  C   UNL     1      -0.771  -0.699  -1.024  0.00  0.00    -0.008 A 
ATOM      4  S   UNL     1      -0.546  -2.402  -0.548  0.00  0.00    -0.074 S 
ATOM      5  C   UNL     1      -0.073  -2.156   1.143  0.00  0.00    +0.114 A 
ATOM      6  C   UNL     1      -0.097  -0.751   1.289  0.00  0.00    +0.051 A 
ATOM      7  C   UNL     1       0.255  -0.267   2.579  0.00  0.00    +0.131 A 
ATOM      8  N   UNL     1       0.577  -1.132   3.527  0.00  0.00    -0.217 NA
ATOM      9  C   UNL     1       0.583  -2.436   3.318  0.00  0.00    +0.131 A 
ATOM     10  N   UNL     1       0.256  -2.946   2.146  0.00  0.00    -0.225 NA
ATOM     11  C   UNL     1      -1.185  -0.153  -2.366  0.00  0.00    +0.052 C 
ENDROOT
BRANCH   7  12
ATOM     12  N   UNL     1       0.262   1.092   2.839  0.00  0.00    -0.322 N 
ATOM     13  H   UNL     1       0.110   1.724   2.119  0.00  0.00    +0.148 HD
BRANCH  12  14
ATOM     14  C   UNL     1       0.498   1.576   4.201  0.00  0.00    +0.099 C 
ATOM     15  C   UNL     1       2.004   1.669   4.456  0.00  0.00    +0.033 C 
BRANCH  14  16
ATOM     16  C   UNL     1      -0.124   2.939   4.365  0.00  0.00    -0.027 A 
ATOM     17  C   UNL     1      -0.048   3.861   3.338  0.00  0.00    +0.007 A 
ATOM     18  C   UNL     1      -0.618   5.111   3.489  0.00  0.00    +0.027 A 
ATOM     19  C   UNL     1      -1.266   5.439   4.665  0.00  0.00    +0.088 A 
ATOM     20  C   UNL     1      -1.343   4.516   5.691  0.00  0.00    +0.027 A 
ATOM     21  C   UNL     1      -0.776   3.264   5.540  0.00  0.00    +0.007 A 
BRANCH  19  22
ATOM     22  S   UNL     1      -1.992   7.032   4.857  0.00  0.00    -0.006 S 
ATOM     23  O   UNL     1      -1.997   7.262   6.259  0.00  0.00    -0.170 OA
ATOM     24  O   UNL     1      -1.250   7.876   3.987  0.00  0.00    -0.170 OA
ATOM     25  C   UNL     1      -3.691   6.847   4.248  0.00  0.00    +0.200 C 
ENDBRANCH  19  22
ENDBRANCH  14  16
ENDBRANCH  12  14
ENDBRANCH   7  12
BRANCH   9  26
ATOM     26  C   UNL     1       0.960  -3.362   4.445  0.00  0.00    +0.057 C 
BRANCH  26  27
ATOM     27  C   UNL     1      -0.295  -3.747   5.231  0.00  0.00    -0.079 C 
BRANCH  27  28
ATOM     28  N   UNL     1       0.072  -4.649   6.330  0.00  0.00    +0.378 N 
ATOM     29  H   UNL     1       0.501  -5.481   5.953  0.00  0.00    -0.090 HD
ATOM     30  H   UNL     1       0.724  -4.184   6.944  0.00  0.00    -0.090 HD
ATOM     31  H   UNL     1      -0.755  -4.903   6.848  0.00  0.00    -0.090 HD
ENDBRANCH  27  28
ENDBRANCH  26  27
ENDBRANCH   9  26
TORSDOF 7
