REMARK  Name = ZINC43264601
REMARK  7 active torsions:
REMARK  status: ('A' for Active; 'I' for Inactive)
REMARK    1  A    between atoms: C_1  and  C_2
REMARK    2  A    between atoms: C_2  and  C_4
REMARK    3  A    between atoms: C_2  and  N_21
REMARK    4  A    between atoms: C_4  and  C_6
REMARK    5  A    between atoms: C_4  and  O_12
REMARK    6  A    between atoms: O_12  and  C_13
REMARK    7  A    between atoms: C_13  and  C_14
REMARK                            x       y       z     vdW  Elec       q    Type
REMARK                         _______ _______ _______ _____ _____    ______ ____
ROOT
ATOM      1  C   UNL     1       0.838  -0.490   1.148  0.00  0.00    +0.140 C 
ENDROOT
BRANCH   1   2
ATOM      2  C   UNL     1       0.971  -1.869   1.742  0.00  0.00    +0.018 A 
ATOM      3  C   UNL     1       0.077  -2.569   2.482  0.00  0.00    +0.015 A 
ATOM      4  C   UNL     1       0.418  -3.833   2.926  0.00  0.00    +0.023 A 
ATOM      5  C   UNL     1       1.638  -4.334   2.609  0.00  0.00    +0.055 A 
ATOM      6  S   UNL     1       2.344  -3.005   1.648  0.00  0.00    -0.084 S 
ATOM      7 BR   UNL     1       2.392  -6.008   3.062  0.00  0.00    -0.043 Br
ENDBRANCH   1   2
BRANCH   1   9
ATOM      8  C   UNL     1       0.219   0.797  -0.902  0.00  0.00    -0.011 C 
ATOM      9  C   UNL     1       0.355  -0.603  -0.299  0.00  0.00    -0.044 C 
BRANCH   9  10
ATOM     10  N   UNL     1       1.327  -1.380  -1.081  0.00  0.00    +0.382 N 
ATOM     11  H   UNL     1       1.416  -2.303  -0.683  0.00  0.00    -0.090 HD
ATOM     12  H   UNL     1       1.008  -1.455  -2.035  0.00  0.00    -0.090 HD
ATOM     13  H   UNL     1       2.223  -0.917  -1.060  0.00  0.00    -0.090 HD
ENDBRANCH   9  10
ENDBRANCH   1   9
BRANCH   1  14
ATOM     14  O   UNL     1       2.107   0.166   1.177  0.00  0.00    -0.371 OA
BRANCH  14  15
ATOM     15  C   UNL     1       2.151   1.310   2.032  0.00  0.00    +0.192 C 
BRANCH  15  16
ATOM     16  C   UNL     1       3.572   1.876   2.054  0.00  0.00    +0.144 C 
ATOM     17  C   UNL     1       3.649   3.024   3.064  0.00  0.00    +0.034 C 
ATOM     18  C   UNL     1       5.058   3.625   3.036  0.00  0.00    +0.005 C 
ATOM     19  C   UNL     1       5.378   4.083   1.610  0.00  0.00    +0.028 C 
ATOM     20  C   UNL     1       5.234   2.894   0.656  0.00  0.00    +0.160 C 
ATOM     21  O   UNL     1       3.911   2.363   0.754  0.00  0.00    -0.374 OA
ENDBRANCH  15  16
ENDBRANCH  14  15
ENDBRANCH   1  14
TORSDOF 6
