REMARK  Name = ZINC09461978
REMARK  7 active torsions:
REMARK  status: ('A' for Active; 'I' for Inactive)
REMARK    1  A    between atoms: C_1  and  C_2
REMARK    2  A    between atoms: C_2  and  C_3
REMARK    3  A    between atoms: C_2  and  C_4
REMARK    4  A    between atoms: C_2  and  C_5
REMARK    5  A    between atoms: C_5  and  C_7
REMARK    6  A    between atoms: C_9  and  C_31
REMARK    7  A    between atoms: C_31  and  C_33
REMARK                            x       y       z     vdW  Elec       q    Type
REMARK                         _______ _______ _______ _____ _____    ______ ____
ROOT
ATOM      1  C   UNL     1      -1.153   4.403   0.148  0.00  0.00    +0.136 C 
ATOM      2  C   UNL     1      -1.644   2.938  -0.029  0.00  0.00    +0.108 C 
ATOM      3  C   UNL     1      -1.205   2.637  -1.476  0.00  0.00    +0.107 C 
ATOM      4  C   UNL     1       0.162   2.047  -1.527  0.00  0.00    -0.008 A 
ATOM      5  C   UNL     1       1.385   2.518  -1.102  0.00  0.00    +0.006 A 
ATOM      6  C   UNL     1       2.486   1.691  -1.300  0.00  0.00    +0.000 A 
ATOM      7  C   UNL     1       2.355   0.453  -1.897  0.00  0.00    +0.002 A 
ATOM      8  C   UNL     1       1.129  -0.029  -2.327  0.00  0.00    +0.023 A 
ATOM      9  C   UNL     1       0.017   0.792  -2.134  0.00  0.00    +0.038 A 
ATOM     10  N   UNL     1      -1.310   0.566  -2.462  0.00  0.00    -0.284 N 
ATOM     11  C   UNL     1      -2.101   1.604  -2.111  0.00  0.00    +0.231 C 
ATOM     12  O   UNL     1      -3.300   1.687  -2.273  0.00  0.00    -0.274 OA
ATOM     13  C   UNL     1      -1.295   3.979  -2.201  0.00  0.00    +0.107 C 
ATOM     14  C   UNL     1      -1.791   6.322  -1.436  0.00  0.00    +0.054 C 
ATOM     15  C   UNL     1      -2.679   6.488  -2.438  0.00  0.00    +0.022 C 
ATOM     16  C   UNL     1      -3.203   5.298  -3.140  0.00  0.00    -0.019 A 
ATOM     17  C   UNL     1      -2.539   4.069  -3.047  0.00  0.00    -0.020 A 
ATOM     18  C   UNL     1      -3.027   2.967  -3.711  0.00  0.00    +0.006 A 
ATOM     19  C   UNL     1      -4.182   3.071  -4.469  0.00  0.00    +0.000 A 
ATOM     20  C   UNL     1      -4.848   4.279  -4.562  0.00  0.00    +0.001 A 
ATOM     21  C   UNL     1      -4.367   5.393  -3.905  0.00  0.00    +0.008 A 
ATOM     22  H   UNL     1      -1.633  -0.241  -2.892  0.00  0.00    +0.155 HD
ATOM     23  N   UNL     1      -1.064   5.002  -1.215  0.00  0.00    -0.384 NA
ATOM     24  H   UNL     1      -0.074   5.249  -1.328  0.00  0.00    +0.127 HD
ENDROOT
BRANCH   1  25
ATOM     25  C   UNL     1       0.322   4.433   0.457  0.00  0.00    +0.158 C 
ATOM     26  O   UNL     1       0.831   3.521   1.062  0.00  0.00    -0.295 OA
BRANCH  25  28
ATOM     27  C   UNL     1       2.596   5.419   0.508  0.00  0.00    +0.018 C 
ATOM     28  C   UNL     1       1.161   5.602   0.010  0.00  0.00    +0.022 C 
ATOM     29  C   UNL     1       1.158   5.678  -1.518  0.00  0.00    +0.018 C 
ATOM     30  C   UNL     1       0.583   6.896   0.587  0.00  0.00    +0.018 C 
ENDBRANCH  25  28
ENDBRANCH   1  25
BRANCH   2  31
ATOM     31  C   UNL     1      -3.142   2.850   0.111  0.00  0.00    +0.176 C 
ATOM     32  O   UNL     1      -3.832   3.823  -0.117  0.00  0.00    -0.291 OA
BRANCH  31  33
ATOM     33  C   UNL     1      -3.744   1.635   0.507  0.00  0.00    +0.055 A 
ATOM     34  C   UNL     1      -5.092   1.345   0.694  0.00  0.00    +0.019 A 
ATOM     35  C   UNL     1      -5.405   0.070   1.086  0.00  0.00    +0.008 A 
ATOM     36  C   UNL     1      -4.404  -0.834   1.270  0.00  0.00    +0.046 A 
ATOM     37  S   UNL     1      -2.976   0.072   0.892  0.00  0.00    -0.094 S 
ENDBRANCH  31  33
ENDBRANCH   2  31
TORSDOF 4
