REMARK  Name = ZINC49526880
REMARK  7 active torsions:
REMARK  status: ('A' for Active; 'I' for Inactive)
REMARK    1  A    between atoms: C_1  and  C_2
REMARK    2  A    between atoms: C_4  and  C_22
REMARK    3  A    between atoms: C_7  and  C_8
REMARK    4  A    between atoms: C_8  and  N_10
REMARK    5  A    between atoms: N_11  and  C_12
REMARK    6  A    between atoms: C_12  and  C_14
REMARK    7  A    between atoms: C_12  and  C_15
REMARK                            x       y       z     vdW  Elec       q    Type
REMARK                         _______ _______ _______ _____ _____    ______ ____
ROOT
ATOM      1  C   UNL     1      -0.082   1.499  -0.038  0.00  0.00    +0.044 C 
ATOM      2  C   UNL     1      -0.027  -0.006  -0.020  0.00  0.00    -0.036 A 
ATOM      3  C   UNL     1      -0.104  -0.733  -1.196  0.00  0.00    +0.025 A 
ATOM      4  C   UNL     1      -0.051  -2.114  -1.148  0.00  0.00    +0.015 A 
ATOM      5  N   UNL     1       0.073  -2.755  -0.002  0.00  0.00    -0.347 N 
ATOM      6  C   UNL     1       0.151  -2.110   1.152  0.00  0.00    +0.107 A 
ATOM      7  C   UNL     1       0.110  -0.705   1.185  0.00  0.00    +0.044 A 
ATOM      8  N   UNL     1       0.280  -2.823   2.330  0.00  0.00    -0.323 N 
ATOM      9  C   UNL     1      -0.135  -2.902  -2.430  0.00  0.00    +0.063 C 
ATOM     10  H   UNL     1       0.278  -2.357   3.181  0.00  0.00    +0.148 HD
ATOM     11  H   UNL     1       0.106  -3.724  -0.004  0.00  0.00    +0.167 HD
ENDROOT
BRANCH   7  12
ATOM     12  C   UNL     1       0.203   0.018   2.464  0.00  0.00    +0.080 C 
ATOM     13  S   UNL     1       1.719   0.591   3.016  0.00  0.00    -0.035 S 
BRANCH  12  14
ATOM     14  N   UNL     1      -0.905   0.229   3.201  0.00  0.00    -0.352 N 
ATOM     15  H   UNL     1      -1.774  -0.030   2.856  0.00  0.00    +0.143 HD
ATOM     16  H   UNL     1      -0.835   0.639   4.077  0.00  0.00    +0.143 HD
ENDBRANCH  12  14
ENDBRANCH   7  12
BRANCH   8  17
ATOM     17  C   UNL     1       0.419  -4.281   2.293  0.00  0.00    +0.099 C 
ATOM     18  C   UNL     1       1.890  -4.647   2.083  0.00  0.00    +0.033 C 
BRANCH  17  19
ATOM     19  C   UNL     1      -0.062  -4.865   3.596  0.00  0.00    -0.027 A 
ATOM     20  C   UNL     1       0.226  -4.226   4.788  0.00  0.00    +0.006 A 
ATOM     21  C   UNL     1      -0.216  -4.761   5.984  0.00  0.00    +0.015 A 
ATOM     22  C   UNL     1      -0.947  -5.936   5.987  0.00  0.00    +0.018 A 
ATOM     23  C   UNL     1      -1.235  -6.574   4.795  0.00  0.00    +0.015 A 
ATOM     24  C   UNL     1      -0.797  -6.036   3.599  0.00  0.00    +0.006 A 
ATOM     25 BR   UNL     1      -1.551  -6.668   7.623  0.00  0.00    -0.050 Br
ENDBRANCH  17  19
ENDBRANCH   8  17
TORSDOF 4
