REMARK  Name = ZINC37284522
REMARK  8 active torsions:
REMARK  status: ('A' for Active; 'I' for Inactive)
REMARK    1  A    between atoms: C_1  and  C_2
REMARK    2  A    between atoms: C_2  and  C_4
REMARK    3  A    between atoms: C_2  and  N_14
REMARK    4  A    between atoms: C_8  and  S_10
REMARK    5  A    between atoms: S_10  and  N_13
REMARK    6  A    between atoms: N_14  and  C_15
REMARK    7  A    between atoms: C_15  and  C_17
REMARK    8  A    between atoms: C_15  and  C_18
REMARK                            x       y       z     vdW  Elec       q    Type
REMARK                         _______ _______ _______ _____ _____    ______ ____
ROOT
ATOM      1  C   UNL     1      -0.156   1.611   0.320  0.00  0.00    -0.009 C 
ATOM      2  C   UNL     1      -0.031   0.105   0.081  0.00  0.00    -0.043 C 
ENDROOT
BRANCH   2   3
ATOM      3  C   UNL     1      -1.399  -0.526   0.122  0.00  0.00    -0.060 A 
ATOM      4  C   UNL     1      -1.998  -0.798   1.338  0.00  0.00    +0.002 A 
ATOM      5  C   UNL     1      -3.253  -1.377   1.376  0.00  0.00    +0.002 A 
ATOM      6  C   UNL     1      -3.909  -1.683   0.198  0.00  0.00    +0.028 A 
ATOM      7  C   UNL     1      -3.310  -1.410  -1.018  0.00  0.00    +0.105 A 
ATOM      8  C   UNL     1      -2.057  -0.827  -1.056  0.00  0.00    +0.030 A 
BRANCH   7   9
ATOM      9  S   UNL     1      -4.145  -1.800  -2.519  0.00  0.00    +0.056 S 
ATOM     10  O   UNL     1      -3.143  -1.947  -3.515  0.00  0.00    -0.153 OA
ATOM     11  O   UNL     1      -5.071  -2.834  -2.212  0.00  0.00    -0.153 OA
BRANCH   9  12
ATOM     12  N   UNL     1      -5.041  -0.473  -2.941  0.00  0.00    -0.204 NA
ATOM     13  H   UNL     1      -5.027   0.319  -2.381  0.00  0.00    +0.144 HD
ATOM     14  H   UNL     1      -5.580  -0.487  -3.747  0.00  0.00    +0.144 HD
ENDBRANCH   9  12
ENDBRANCH   7   9
ENDBRANCH   2   3
BRANCH   2  15
ATOM     15  N   UNL     1       0.814  -0.488   1.127  0.00  0.00    +0.388 N 
ATOM     16  H   UNL     1       0.449  -0.240   2.034  0.00  0.00    -0.084 HD
ATOM     17  H   UNL     1       0.816  -1.492   1.028  0.00  0.00    -0.084 HD
BRANCH  15  18
ATOM     18  C   UNL     1       2.186   0.020   0.995  0.00  0.00    -0.036 C 
ATOM     19  C   UNL     1       3.031  -0.485   2.166  0.00  0.00    -0.008 C 
BRANCH  18  20
ATOM     20  C   UNL     1       2.780  -0.468  -0.301  0.00  0.00    -0.023 A 
ATOM     21  C   UNL     1       3.573   0.194  -1.178  0.00  0.00    +0.011 A 
ATOM     22  C   UNL     1       4.006  -0.461  -2.317  0.00  0.00    +0.028 A 
ATOM     23  C   UNL     1       3.623  -1.747  -2.521  0.00  0.00    +0.078 A 
ATOM     24  S   UNL     1       2.628  -2.070  -1.074  0.00  0.00    -0.083 S 
ATOM     25 CL   UNL     1       4.008  -2.805  -3.842  0.00  0.00    -0.076 Cl
ENDBRANCH  18  20
ENDBRANCH  15  18
ENDBRANCH   2  15
TORSDOF 6
