REMARK  Name = ZINC09970368
REMARK  12 active torsions:
REMARK  status: ('A' for Active; 'I' for Inactive)
REMARK    1  A    between atoms: C_1  and  C_2
REMARK    2  A    between atoms: C_2  and  C_25
REMARK    3  A    between atoms: C_3  and  C_23
REMARK    4  A    between atoms: C_3  and  O_24
REMARK    5  A    between atoms: C_4  and  C_21
REMARK    6  A    between atoms: C_4  and  O_22
REMARK    7  A    between atoms: C_5  and  C_19
REMARK    8  A    between atoms: C_5  and  O_20
REMARK    9  A    between atoms: C_6  and  C_8
REMARK   10  A    between atoms: C_6  and  O_9
REMARK   11  A    between atoms: O_9  and  C_10
REMARK   12  A    between atoms: C_13  and  N_16
REMARK                            x       y       z     vdW  Elec       q    Type
REMARK                         _______ _______ _______ _____ _____    ______ ____
ROOT
ATOM      1  C   UNL     1       6.217   1.440   3.029  0.00  0.00    +0.044 C 
ATOM      2  C   UNL     1       5.504   0.378   2.159  0.00  0.00    +0.099 C 
ATOM      3  C   UNL     1       6.446  -0.810   2.026  0.00  0.00    +0.123 C 
ATOM      4  C   UNL     1       6.192  -1.693   0.816  0.00  0.00    +0.129 C 
ATOM      5  C   UNL     1       5.804  -0.925  -0.438  0.00  0.00    +0.159 C 
ATOM      6  C   UNL     1       4.767   0.159  -0.153  0.00  0.00    +0.242 C 
ATOM      7  O   UNL     1       5.200   0.983   0.916  0.00  0.00    -0.328 OA
ATOM      8  C   UNL     1       4.627   1.034  -1.414  0.00  0.00    +0.092 C 
ATOM      9  C   UNL     1       5.220  -1.907  -1.466  0.00  0.00    +0.051 C 
ATOM     10  C   UNL     1       5.131  -2.753   1.137  0.00  0.00    +0.047 C 
ATOM     11  C   UNL     1       7.895  -0.296   1.987  0.00  0.00    +0.047 C 
ATOM     12  C   UNL     1       4.228  -0.027   2.903  0.00  0.00    +0.044 C 
ENDROOT
BRANCH   5  13
ATOM     13  O   UNL     1       6.969  -0.318  -1.013  0.00  0.00    -0.379 OA
ATOM     14  H   UNL     1       6.801   0.147  -1.844  0.00  0.00    +0.211 HD
ENDBRANCH   5  13
BRANCH   4  15
ATOM     15  O   UNL     1       7.419  -2.403   0.528  0.00  0.00    -0.383 OA
ATOM     16  H   UNL     1       7.361  -2.998  -0.232  0.00  0.00    +0.210 HD
ENDBRANCH   4  15
BRANCH   3  17
ATOM     17  O   UNL     1       6.311  -1.621   3.212  0.00  0.00    -0.383 OA
ATOM     18  H   UNL     1       6.529  -1.157   4.032  0.00  0.00    +0.210 HD
ENDBRANCH   3  17
BRANCH   6  19
ATOM     19  O   UNL     1       3.494  -0.426   0.117  0.00  0.00    -0.458 OA
BRANCH  19  20
ATOM     20  C   UNL     1       2.489   0.418   0.466  0.00  0.00    +0.124 A 
ATOM     21  C   UNL     1       1.214  -0.078   0.700  0.00  0.00    +0.048 A 
ATOM     22  C   UNL     1       0.193   0.783   1.054  0.00  0.00    +0.036 A 
ATOM     23  C   UNL     1       0.441   2.138   1.175  0.00  0.00    +0.126 A 
ATOM     24  C   UNL     1       1.710   2.635   0.943  0.00  0.00    +0.036 A 
ATOM     25  C   UNL     1       2.734   1.778   0.588  0.00  0.00    +0.048 A 
BRANCH  23  26
ATOM     26  N   UNL     1      -0.656   3.058   1.549  0.00  0.00    +0.056 N 
ATOM     27  O   UNL     1      -1.776   2.622   1.749  0.00  0.00    -0.126 OA
ATOM     28  O   UNL     1      -0.440   4.252   1.656  0.00  0.00    -0.126 OA
ENDBRANCH  23  26
ENDBRANCH  19  20
ENDBRANCH   6  19
TORSDOF 6
