REMARK  Name = ZINC36207314
REMARK  17 active torsions:
REMARK  status: ('A' for Active; 'I' for Inactive)
REMARK    1  A    between atoms: C_1  and  C_2
REMARK    2  A    between atoms: C_2  and  C_3
REMARK    3  A    between atoms: C_9  and  C_18
REMARK    4  A    between atoms: C_13  and  C_14
REMARK    5  A    between atoms: C_14  and  O_16
REMARK    6  A    between atoms: O_16  and  C_17
REMARK    7  A    between atoms: C_18  and  N_19
REMARK    8  A    between atoms: N_19  and  C_20
REMARK    9  A    between atoms: N_19  and  C_33
REMARK   10  A    between atoms: C_20  and  C_21
REMARK   11  A    between atoms: C_21  and  C_23
REMARK   12  A    between atoms: C_21  and  O_32
REMARK   13  A    between atoms: C_23  and  O_24
REMARK   14  A    between atoms: O_24  and  C_25
REMARK   15  A    between atoms: C_30  and  C_31
REMARK   16  A    between atoms: C_33  and  C_34
REMARK   17  A    between atoms: C_33  and  C_35
REMARK                            x       y       z     vdW  Elec       q    Type
REMARK                         _______ _______ _______ _____ _____    ______ ____
ROOT
ATOM      1  C   UNL     1      -1.747  -2.213  -6.093  0.00  0.00    -0.003 C 
ENDROOT
BRANCH   1   8
ATOM      2  C   UNL     1      -0.200  -4.607  -1.213  0.00  0.00    -0.012 A 
ATOM      3  C   UNL     1      -0.702  -3.963  -2.346  0.00  0.00    +0.076 A 
ATOM      4  C   UNL     1      -1.932  -3.153  -2.494  0.00  0.00    +0.260 A 
ATOM      5  O   UNL     1      -2.676  -2.967  -1.547  0.00  0.00    -0.267 OA
ATOM      6  N   UNL     1      -2.208  -2.626  -3.703  0.00  0.00    -0.312 N 
ATOM      7  H   UNL     1      -3.010  -2.093  -3.817  0.00  0.00    +0.170 HD
ATOM      8  C   UNL     1      -1.388  -2.826  -4.764  0.00  0.00    +0.094 A 
ATOM      9  N   UNL     1      -0.296  -3.535  -4.668  0.00  0.00    -0.229 NA
ATOM     10  C   UNL     1       0.070  -4.098  -3.523  0.00  0.00    +0.116 A 
ATOM     11  S   UNL     1       1.437  -5.103  -3.002  0.00  0.00    -0.062 S 
ATOM     12  C   UNL     1       0.970  -5.306  -1.291  0.00  0.00    +0.102 A 
BRANCH   2  14
ATOM     13  C   UNL     1      -0.463  -3.307   0.882  0.00  0.00    +0.009 C 
ATOM     14  C   UNL     1      -0.946  -4.526   0.094  0.00  0.00    +0.034 C 
ENDBRANCH   2  14
BRANCH  12  15
ATOM     15  C   UNL     1       1.667  -6.042  -0.235  0.00  0.00    +0.346 C 
ATOM     16  O   UNL     1       1.202  -6.081   0.888  0.00  0.00    -0.244 OA
BRANCH  15  17
ATOM     17  O   UNL     1       2.825  -6.678  -0.507  0.00  0.00    -0.464 OA
ATOM     18  C   UNL     1       3.451  -7.376   0.571  0.00  0.00    +0.280 C 
ENDBRANCH  15  17
ENDBRANCH  12  15
ENDBRANCH   1   8
BRANCH   1  19
ATOM     19  N   UNL     1      -0.641  -2.412  -7.039  0.00  0.00    +0.388 N 
ATOM     20  H   UNL     1      -0.194  -3.296  -6.852  0.00  0.00    -0.081 HD
BRANCH  19  21
ATOM     21  C   UNL     1       0.336  -1.326  -6.884  0.00  0.00    -0.074 C 
ATOM     22  C   UNL     1      -0.347   0.017  -7.146  0.00  0.00    -0.014 C 
ATOM     23  C   UNL     1       0.897  -1.344  -5.461  0.00  0.00    -0.014 C 
ENDBRANCH  19  21
BRANCH  19  24
ATOM     24  C   UNL     1      -1.165  -2.407  -8.411  0.00  0.00    -0.043 C 
BRANCH  24  25
ATOM     25  C   UNL     1      -0.043  -2.772  -9.386  0.00  0.00    +0.135 C 
BRANCH  25  26
ATOM     26  O   UNL     1       0.905  -1.704  -9.441  0.00  0.00    -0.390 OA
ATOM     27  H   UNL     1       0.521  -0.849  -9.678  0.00  0.00    +0.210 HD
ENDBRANCH  25  26
BRANCH  25  28
ATOM     28  C   UNL     1      -0.632  -3.003 -10.779  0.00  0.00    +0.258 C 
BRANCH  28  29
ATOM     29  O   UNL     1       0.396  -3.456 -11.662  0.00  0.00    -0.489 OA
BRANCH  29  30
ATOM     30  C   UNL     1       0.037  -3.710 -12.948  0.00  0.00    +0.124 A 
ATOM     31  C   UNL     1      -1.277  -3.522 -13.353  0.00  0.00    +0.046 A 
ATOM     32  C   UNL     1      -1.639  -3.781 -14.660  0.00  0.00    +0.004 A 
ATOM     33  C   UNL     1      -0.694  -4.227 -15.565  0.00  0.00    +0.000 A 
ATOM     34  C   UNL     1       0.616  -4.416 -15.164  0.00  0.00    +0.007 A 
ATOM     35  C   UNL     1       0.984  -4.153 -13.859  0.00  0.00    -0.009 A 
ATOM     36  C   UNL     1       2.413  -4.353 -13.424  0.00  0.00    +0.047 C 
ENDBRANCH  29  30
ENDBRANCH  28  29
ENDBRANCH  25  28
ENDBRANCH  24  25
ENDBRANCH  19  24
ENDBRANCH   1  19
TORSDOF 12
