REMARK  Name = ZINC09466632
REMARK  10 active torsions:
REMARK  status: ('A' for Active; 'I' for Inactive)
REMARK    1  A    between atoms: C_1  and  C_2
REMARK    2  A    between atoms: C_5  and  C_7
REMARK    3  A    between atoms: C_10  and  C_13
REMARK    4  A    between atoms: C_18  and  C_20
REMARK    5  A    between atoms: C_20  and  N_55
REMARK    6  A    between atoms: C_21  and  C_23
REMARK    7  A    between atoms: C_21  and  C_24
REMARK    8  A    between atoms: C_21  and  N_55
REMARK    9  A    between atoms: C_27  and  S_30
REMARK   10  A    between atoms: S_30  and  N_33
REMARK                            x       y       z     vdW  Elec       q    Type
REMARK                         _______ _______ _______ _____ _____    ______ ____
ROOT
ATOM      1  C   UNL     1       1.155   1.931   0.001  0.00  0.00    +0.104 C 
ATOM      2  N   UNL     1      -0.017   1.389   0.010  0.00  0.00    -0.178 NA
ATOM      3  N   UNL     1       0.002  -0.004   0.002  0.00  0.00    -0.186 N 
ATOM      4  C   UNL     1       1.401  -0.462  -0.014  0.00  0.00    +0.143 C 
ATOM      5  C   UNL     1       2.211   0.850  -0.015  0.00  0.00    +0.090 C 
ATOM      6  C   UNL     1      -1.084  -0.803   0.008  0.00  0.00    +0.218 C 
ATOM      7  O   UNL     1      -0.950  -2.008   0.001  0.00  0.00    -0.276 OA
ENDROOT
BRANCH   1  12
ATOM      8  C   UNL     1       3.617   6.294  -0.002  0.00  0.00    +0.086 C 
ATOM      9  C   UNL     1       2.493   5.290   0.004  0.00  0.00    +0.103 A 
ATOM     10  C   UNL     1       1.177   5.584   0.019  0.00  0.00    +0.045 A 
ATOM     11  C   UNL     1       0.480   4.362   0.015  0.00  0.00    +0.051 A 
ATOM     12  C   UNL     1       1.421   3.373   0.006  0.00  0.00    +0.151 A 
ATOM     13  O   UNL     1       2.637   3.955  -0.003  0.00  0.00    -0.459 OA
ENDBRANCH   1  12
BRANCH   4  14
ATOM     14  C   UNL     1       1.683  -1.260  -1.260  0.00  0.00    +0.013 A 
ATOM     15  C   UNL     1       2.445  -2.372  -1.408  0.00  0.00    +0.013 A 
ATOM     16  C   UNL     1       2.562  -2.943  -2.661  0.00  0.00    +0.008 A 
ATOM     17  C   UNL     1       1.911  -2.374  -3.705  0.00  0.00    +0.045 A 
ATOM     18  S   UNL     1       1.095  -0.992  -2.924  0.00  0.00    -0.100 S 
ENDBRANCH   4  14
BRANCH   6  19
ATOM     19  C   UNL     1      -2.464  -0.198   0.024  0.00  0.00    +0.018 C 
BRANCH  19  20
ATOM     20  N   UNL     1      -3.466  -1.280   0.028  0.00  0.00    +0.389 N 
ATOM     21  H   UNL     1      -3.331  -1.863   0.862  0.00  0.00    -0.084 HD
ATOM     22  H   UNL     1      -3.347  -1.855  -0.815  0.00  0.00    -0.084 HD
BRANCH  20  23
ATOM     23  C   UNL     1      -4.829  -0.716   0.043  0.00  0.00    -0.043 C 
ATOM     24  C   UNL     1      -5.267  -0.400  -1.388  0.00  0.00    -0.009 C 
BRANCH  23  25
ATOM     25  C   UNL     1      -5.774  -1.722   0.648  0.00  0.00    -0.062 A 
ATOM     26  C   UNL     1      -5.642  -3.064   0.342  0.00  0.00    +0.004 A 
ATOM     27  C   UNL     1      -6.506  -3.988   0.900  0.00  0.00    +0.029 A 
ATOM     28  C   UNL     1      -7.508  -3.569   1.756  0.00  0.00    +0.105 A 
ATOM     29  C   UNL     1      -7.643  -2.227   2.057  0.00  0.00    +0.029 A 
ATOM     30  C   UNL     1      -6.776  -1.303   1.503  0.00  0.00    +0.004 A 
BRANCH  28  31
ATOM     31  S   UNL     1      -8.613  -4.746   2.462  0.00  0.00    +0.056 S 
ATOM     32  O   UNL     1      -7.936  -5.995   2.453  0.00  0.00    -0.153 OA
ATOM     33  O   UNL     1      -9.119  -4.162   3.655  0.00  0.00    -0.153 OA
BRANCH  31  34
ATOM     34  N   UNL     1      -9.896  -4.895   1.427  0.00  0.00    -0.204 NA
ATOM     35  H   UNL     1      -9.922  -4.375   0.609  0.00  0.00    +0.144 HD
ATOM     36  H   UNL     1     -10.622  -5.503   1.639  0.00  0.00    +0.144 HD
ENDBRANCH  31  34
ENDBRANCH  28  31
ENDBRANCH  23  25
ENDBRANCH  20  23
ENDBRANCH  19  20
ENDBRANCH   6  19
TORSDOF 8
