REMARK  Name = ZINC36813026
REMARK  5 active torsions:
REMARK  status: ('A' for Active; 'I' for Inactive)
REMARK    1  A    between atoms: C_1  and  O_2
REMARK    2  A    between atoms: O_2  and  C_3
REMARK    3  A    between atoms: C_6  and  N_9
REMARK    4  A    between atoms: N_9  and  C_10
REMARK    5  A    between atoms: C_19  and  N_20
REMARK                            x       y       z     vdW  Elec       q    Type
REMARK                         _______ _______ _______ _____ _____    ______ ____
ROOT
ATOM      1  C   UNL     1       2.607  -3.840  -4.316  0.00  0.00    +0.063 A 
ATOM      2  C   UNL     1       3.567  -4.460  -5.147  0.00  0.00    +0.022 A 
ATOM      3  C   UNL     1       4.419  -3.705  -5.966  0.00  0.00    +0.027 A 
ATOM      4  C   UNL     1       5.333  -4.338  -6.753  0.00  0.00    +0.019 A 
ATOM      5  C   UNL     1       5.432  -5.729  -6.755  0.00  0.00    +0.017 A 
ATOM      6  C   UNL     1       4.621  -6.491  -5.973  0.00  0.00    +0.027 A 
ATOM      7  C   UNL     1       3.666  -5.873  -5.146  0.00  0.00    +0.048 A 
ATOM      8  N   UNL     1       2.857  -6.601  -4.368  0.00  0.00    -0.359 N 
ATOM      9  C   UNL     1       1.959  -6.041  -3.591  0.00  0.00    +0.107 A 
ATOM     10  C   UNL     1       1.803  -4.658  -3.528  0.00  0.00    +0.063 A 
ATOM     11 BR   UNL     1       6.481  -3.319  -7.858  0.00  0.00    -0.050 Br
ATOM     12  H   UNL     1       2.936  -7.567  -4.378  0.00  0.00    +0.165 HD
ENDROOT
BRANCH  10  13
ATOM     13  N   UNL     1       0.839  -4.094  -2.682  0.00  0.00    -0.355 N 
ATOM     14  H   UNL     1       0.673  -3.138  -2.703  0.00  0.00    +0.142 HD
ATOM     15  H   UNL     1       0.336  -4.659  -2.074  0.00  0.00    +0.142 HD
ENDBRANCH  10  13
BRANCH   1  16
ATOM     16  N   UNL     1       2.473  -2.456  -4.283  0.00  0.00    -0.313 N 
ATOM     17  H   UNL     1       1.873  -2.011  -4.902  0.00  0.00    +0.152 HD
BRANCH  16  21
ATOM     18  C   UNL     1       4.651  -0.217  -1.523  0.00  0.00    +0.120 A 
ATOM     19  C   UNL     1       3.706   0.403  -2.327  0.00  0.00    +0.047 A 
ATOM     20  C   UNL     1       2.984  -0.338  -3.242  0.00  0.00    +0.027 A 
ATOM     21  C   UNL     1       3.204  -1.704  -3.357  0.00  0.00    +0.032 A 
ATOM     22  C   UNL     1       4.151  -2.324  -2.551  0.00  0.00    +0.027 A 
ATOM     23  C   UNL     1       4.876  -1.581  -1.641  0.00  0.00    +0.047 A 
BRANCH  18  25
ATOM     24  C   UNL     1       5.078   1.912  -0.553  0.00  0.00    +0.277 C 
ATOM     25  O   UNL     1       5.361   0.513  -0.622  0.00  0.00    -0.495 OA
ENDBRANCH  18  25
ENDBRANCH  16  21
ENDBRANCH   1  16
TORSDOF 4
