REMARK  Name = ZINC67402954
REMARK  9 active torsions:
REMARK  status: ('A' for Active; 'I' for Inactive)
REMARK    1  A    between atoms: C_1  and  C_2
REMARK    2  A    between atoms: C_2  and  C_3
REMARK    3  A    between atoms: C_6  and  C_8
REMARK    4  A    between atoms: C_8  and  N_9
REMARK    5  A    between atoms: N_9  and  C_10
REMARK    6  A    between atoms: N_9  and  C_11
REMARK    7  A    between atoms: C_11  and  C_12
REMARK    8  A    between atoms: C_15  and  C_17
REMARK    9  A    between atoms: C_20  and  C_23
REMARK                            x       y       z     vdW  Elec       q    Type
REMARK                         _______ _______ _______ _____ _____    ______ ____
ROOT
ATOM      1  C   UNL     1       4.705  -5.234   4.801  0.00  0.00    +0.033 A 
ATOM      2  C   UNL     1       5.632  -5.854   4.020  0.00  0.00    +0.068 A 
ATOM      3  S   UNL     1       5.262  -7.569   4.369  0.00  0.00    -0.075 S 
ATOM      4  C   UNL     1       3.918  -7.273   5.511  0.00  0.00    +0.108 A 
ATOM      5  N   UNL     1       3.879  -5.948   5.526  0.00  0.00    -0.246 NA
ENDROOT
BRANCH   4   6
ATOM      6  C   UNL     1       3.081  -8.244   6.245  0.00  0.00    +0.007 A 
ATOM      7  C   UNL     1       2.067  -7.792   7.093  0.00  0.00    +0.011 A 
ATOM      8  C   UNL     1       1.287  -8.696   7.777  0.00  0.00    +0.014 A 
ATOM      9  C   UNL     1       1.508 -10.067   7.622  0.00  0.00    +0.037 A 
ATOM     10  C   UNL     1       2.521 -10.520   6.773  0.00  0.00    +0.014 A 
ATOM     11  C   UNL     1       3.298  -9.615   6.085  0.00  0.00    +0.011 A 
BRANCH   9  12
ATOM     12  C   UNL     1       0.670 -11.037   8.355  0.00  0.00    +0.242 C 
ATOM     13  O   UNL     1      -0.211 -10.643   9.094  0.00  0.00    -0.270 OA
ATOM     14  N   UNL     1       0.883 -12.360   8.205  0.00  0.00    -0.325 N 
ATOM     15  H   UNL     1       1.587 -12.674   7.616  0.00  0.00    +0.145 HD
ATOM     16  H   UNL     1       0.333 -12.997   8.687  0.00  0.00    +0.145 HD
ENDBRANCH   9  12
ENDBRANCH   4   6
BRANCH   1  17
ATOM     17  C   UNL     1       4.633  -3.729   4.835  0.00  0.00    -0.022 C 
BRANCH  17  18
ATOM     18  N   UNL     1       3.617  -3.266   3.880  0.00  0.00    +0.385 N 
ATOM     19  C   UNL     1       4.040  -3.604   2.514  0.00  0.00    -0.095 C 
ATOM     20  H   UNL     1       2.737  -3.716   4.080  0.00  0.00    -0.081 HD
BRANCH  18  21
ATOM     21  C   UNL     1       3.462  -1.810   3.998  0.00  0.00    -0.034 C 
BRANCH  21  25
ATOM     22  C   UNL     1       0.731  -0.503   1.223  0.00  0.00    +0.078 A 
ATOM     23  N   UNL     1       0.240  -0.793   2.402  0.00  0.00    -0.252 NA
ATOM     24  C   UNL     1       1.012  -1.223   3.380  0.00  0.00    +0.120 A 
ATOM     25  C   UNL     1       2.336  -1.351   3.107  0.00  0.00    -0.007 A 
ATOM     26  S   UNL     1       2.372  -0.831   1.400  0.00  0.00    -0.079 S 
BRANCH  22  28
ATOM     27  C   UNL     1      -0.019   1.526   0.010  0.00  0.00    +0.011 C 
ATOM     28  C   UNL     1       0.002  -0.004   0.002  0.00  0.00    +0.059 C 
ENDBRANCH  22  28
ENDBRANCH  21  25
ENDBRANCH  18  21
ENDBRANCH  17  18
ENDBRANCH   1  17
TORSDOF 7
