REMARK  Name = ZINC43525278
REMARK  8 active torsions:
REMARK  status: ('A' for Active; 'I' for Inactive)
REMARK    1  A    between atoms: C_1  and  N_2
REMARK    2  A    between atoms: C_3  and  C_12
REMARK    3  A    between atoms: C_5  and  C_7
REMARK    4  A    between atoms: C_21  and  C_23
REMARK    5  A    between atoms: C_23  and  O_24
REMARK    6  A    between atoms: O_24  and  C_25
REMARK    7  A    between atoms: N_27  and  C_28
REMARK    8  A    between atoms: C_32  and  C_34
REMARK                            x       y       z     vdW  Elec       q    Type
REMARK                         _______ _______ _______ _____ _____    ______ ____
ROOT
ATOM      1  C   UNL     1       0.170  -0.529  -2.331  0.00  0.00    +0.024 C 
ATOM      2  C   UNL     1       1.561  -0.244  -2.903  0.00  0.00    -0.068 C 
ATOM      3  N   UNL     1       1.831  -1.137  -4.033  0.00  0.00    +0.384 N 
ATOM      4  C   UNL     1       1.813  -2.536  -3.600  0.00  0.00    -0.078 C 
ATOM      5  C   UNL     1       0.431  -2.897  -3.051  0.00  0.00    -0.015 C 
ATOM      6  C   UNL     1      -0.478  -1.661  -3.139  0.00  0.00    -0.007 C 
ATOM      7  C   UNL     1      -0.556  -1.223  -4.608  0.00  0.00    -0.008 C 
ATOM      8  C   UNL     1       0.860  -0.916  -5.107  0.00  0.00    -0.030 C 
ATOM      9  H   UNL     1       2.752  -0.932  -4.388  0.00  0.00    -0.081 HD
ENDROOT
BRANCH   1  12
ATOM     10  C   UNL     1      -1.822   0.108  -0.049  0.00  0.00    +0.172 C 
ATOM     11  N   UNL     1      -0.584  -0.661   0.098  0.00  0.00    -0.271 N 
ATOM     12  C   UNL     1       0.294  -0.946  -0.888  0.00  0.00    +0.041 A 
ATOM     13  C   UNL     1       1.301  -1.670  -0.354  0.00  0.00    +0.053 A 
ATOM     14  C   UNL     1       1.032  -1.838   1.020  0.00  0.00    +0.100 A 
ATOM     15  N   UNL     1      -0.102  -1.222   1.288  0.00  0.00    -0.171 NA
BRANCH  14  16
ATOM     16  C   UNL     1       1.876  -2.570   1.989  0.00  0.00    +0.039 A 
ATOM     17  C   UNL     1       1.673  -2.775   3.327  0.00  0.00    +0.018 A 
ATOM     18  C   UNL     1       2.608  -3.497   4.036  0.00  0.00    +0.008 A 
ATOM     19  C   UNL     1       3.698  -3.982   3.389  0.00  0.00    +0.046 A 
ATOM     20  S   UNL     1       3.421  -3.421   1.717  0.00  0.00    -0.095 S 
ENDBRANCH  14  16
ENDBRANCH   1  12
BRANCH   8  21
ATOM     21  C   UNL     1       1.192  -1.832  -6.287  0.00  0.00    +0.219 C 
BRANCH  21  22
ATOM     22  O   UNL     1       2.490  -1.508  -6.791  0.00  0.00    -0.452 OA
BRANCH  22  23
ATOM     23  C   UNL     1       2.936  -2.227  -7.838  0.00  0.00    +0.404 C 
ATOM     24  O   UNL     1       2.243  -3.106  -8.311  0.00  0.00    -0.226 OA
ATOM     25  N   UNL     1       4.152  -1.973  -8.361  0.00  0.00    -0.251 N 
ATOM     26  H   UNL     1       4.735  -1.323  -7.939  0.00  0.00    +0.158 HD
BRANCH  25  27
ATOM     27  C   UNL     1       4.572  -2.646  -9.514  0.00  0.00    +0.037 A 
ATOM     28  C   UNL     1       3.649  -3.001 -10.489  0.00  0.00    +0.023 A 
ATOM     29  C   UNL     1       4.067  -3.665 -11.625  0.00  0.00    +0.002 A 
ATOM     30  C   UNL     1       5.404  -3.976 -11.793  0.00  0.00    +0.012 A 
ATOM     31  C   UNL     1       6.326  -3.624 -10.825  0.00  0.00    +0.057 A 
ATOM     32  C   UNL     1       5.915  -2.955  -9.688  0.00  0.00    +0.035 A 
BRANCH  31  33
ATOM     33  C   UNL     1       7.782  -3.967 -11.011  0.00  0.00    +0.417 C 
ATOM     34  F   UNL     1       7.951  -4.633 -12.230  0.00  0.00    -0.166 F 
ATOM     35  F   UNL     1       8.540  -2.791 -11.012  0.00  0.00    -0.166 F 
ATOM     36  F   UNL     1       8.204  -4.794  -9.965  0.00  0.00    -0.166 F 
ENDBRANCH  31  33
ENDBRANCH  25  27
ENDBRANCH  22  23
ENDBRANCH  21  22
ENDBRANCH   8  21
TORSDOF 7
