REMARK  Name = ZINC64540081
REMARK  7 active torsions:
REMARK  status: ('A' for Active; 'I' for Inactive)
REMARK    1  A    between atoms: C_1  and  C_2
REMARK    2  A    between atoms: C_8  and  C_11
REMARK    3  A    between atoms: C_11  and  C_12
REMARK    4  A    between atoms: C_12  and  N_13
REMARK    5  A    between atoms: C_14  and  C_16
REMARK    6  A    between atoms: C_19  and  N_22
REMARK    7  A    between atoms: C_23  and  C_25
REMARK                            x       y       z     vdW  Elec       q    Type
REMARK                         _______ _______ _______ _____ _____    ______ ____
ROOT
ATOM      1  C   UNL     1      -2.526  -2.359   7.755  0.00  0.00    +0.037 A 
ATOM      2  C   UNL     1      -1.318  -2.289   8.455  0.00  0.00    +0.015 A 
ATOM      3  C   UNL     1      -1.322  -2.046   9.810  0.00  0.00    +0.024 A 
ATOM      4  C   UNL     1      -2.527  -1.869  10.483  0.00  0.00    +0.033 A 
ATOM      5  C   UNL     1      -3.731  -1.937   9.789  0.00  0.00    +0.024 A 
ATOM      6  C   UNL     1      -3.734  -2.175   8.433  0.00  0.00    +0.015 A 
ENDROOT
BRANCH   1   8
ATOM      7  N   UNL     1      -1.359  -2.797   5.651  0.00  0.00    -0.311 N 
ATOM      8  C   UNL     1      -2.525  -2.619   6.303  0.00  0.00    +0.244 C 
ATOM      9  O   UNL     1      -3.576  -2.674   5.694  0.00  0.00    -0.270 OA
ATOM     10  H   UNL     1      -0.520  -2.753   6.136  0.00  0.00    +0.149 HD
BRANCH   7  11
ATOM     11  C   UNL     1      -1.358  -3.055   4.209  0.00  0.00    +0.109 C 
BRANCH  11  12
ATOM     12  C   UNL     1       0.083  -3.217   3.720  0.00  0.00    +0.052 C 
BRANCH  12  20
ATOM     13  C   UNL     1       0.751   1.027   0.082  0.00  0.00    +0.044 C 
ATOM     14  C   UNL     1       0.548  -0.467   0.077  0.00  0.00    -0.050 A 
ATOM     15  C   UNL     1       0.486  -1.143  -1.149  0.00  0.00    +0.005 A 
ATOM     16  C   UNL     1       0.306  -2.478  -1.238  0.00  0.00    +0.026 A 
ATOM     17  C   UNL     1       0.170  -3.264  -0.061  0.00  0.00    +0.043 A 
ATOM     18  N   UNL     1      -0.010  -4.551   0.114  0.00  0.00    -0.380 N 
ATOM     19  C   UNL     1      -0.083  -4.823   1.553  0.00  0.00    +0.144 C 
ATOM     20  C   UNL     1       0.084  -3.484   2.237  0.00  0.00    -0.040 C 
ATOM     21  C   UNL     1       0.232  -2.574   1.248  0.00  0.00    -0.001 A 
ATOM     22  C   UNL     1       0.436  -1.120   1.256  0.00  0.00    +0.013 A 
ATOM     23  H   UNL     1      -0.084  -5.213  -0.592  0.00  0.00    +0.160 HD
ENDBRANCH  12  20
ENDBRANCH  11  12
ENDBRANCH   7  11
ENDBRANCH   1   8
BRANCH   4  24
ATOM     24  N   UNL     1      -2.528  -1.623  11.855  0.00  0.00    -0.284 N 
ATOM     25  C   UNL     1      -1.526  -0.914  12.414  0.00  0.00    +0.240 C 
ATOM     26  O   UNL     1      -0.676  -0.408  11.711  0.00  0.00    -0.273 OA
ATOM     27  H   UNL     1      -3.249  -1.962  12.409  0.00  0.00    +0.155 HD
BRANCH  25  28
ATOM     28  C   UNL     1      -1.463  -0.749  13.910  0.00  0.00    +0.182 C 
ATOM     29  C   UNL     1      -0.928  -2.020  14.517  0.00  0.00    -0.006 A 
ATOM     30  C   UNL     1      -1.193  -3.332  14.127  0.00  0.00    +0.007 A 
ATOM     31  C   UNL     1      -0.634  -4.397  14.800  0.00  0.00    +0.000 A 
ATOM     32  C   UNL     1       0.205  -4.193  15.880  0.00  0.00    +0.001 A 
ATOM     33  C   UNL     1       0.488  -2.899  16.280  0.00  0.00    +0.016 A 
ATOM     34  C   UNL     1      -0.068  -1.835  15.599  0.00  0.00    +0.028 A 
ATOM     35  S   UNL     1       0.085  -0.074  15.786  0.00  0.00    -0.043 S 
ATOM     36  N   UNL     1      -0.627   0.433  14.226  0.00  0.00    -0.243 NA
ATOM     37  H   UNL     1      -1.196   1.258  14.341  0.00  0.00    +0.137 HD
ENDBRANCH  25  28
ENDBRANCH   4  24
TORSDOF 6
