REMARK  Name = ZINC58913556
REMARK  14 active torsions:
REMARK  status: ('A' for Active; 'I' for Inactive)
REMARK    1  A    between atoms: C_1  and  C_2
REMARK    2  A    between atoms: C_2  and  N_3
REMARK    3  A    between atoms: N_3  and  C_4
REMARK    4  A    between atoms: N_3  and  C_20
REMARK    5  A    between atoms: C_4  and  C_5
REMARK    6  A    between atoms: N_7  and  C_8
REMARK    7  A    between atoms: C_8  and  C_9
REMARK    8  A    between atoms: C_9  and  C_10
REMARK    9  A    between atoms: C_13  and  S_16
REMARK   10  A    between atoms: S_16  and  N_19
REMARK   11  A    between atoms: C_20  and  C_22
REMARK   12  A    between atoms: C_20  and  C_23
REMARK   13  A    between atoms: C_27  and  O_29
REMARK   14  A    between atoms: O_29  and  C_30
REMARK                            x       y       z     vdW  Elec       q    Type
REMARK                         _______ _______ _______ _____ _____    ______ ____
ROOT
ATOM      1  C   UNL     1      -1.883   1.456  -1.528  0.00  0.00    +0.196 C 
ATOM      2  O   UNL     1      -1.475   2.148  -0.619  0.00  0.00    -0.278 OA
ATOM      3  N   UNL     1      -2.253   2.024  -2.693  0.00  0.00    -0.317 N 
ATOM      4  H   UNL     1      -2.580   1.471  -3.420  0.00  0.00    +0.149 HD
ENDROOT
BRANCH   1   5
ATOM      5  C   UNL     1      -1.976  -0.038  -1.355  0.00  0.00    +0.019 C 
BRANCH   5   6
ATOM      6  N   UNL     1      -1.380  -0.420  -0.068  0.00  0.00    +0.390 N 
ATOM      7  H   UNL     1      -1.806   0.117   0.673  0.00  0.00    -0.080 HD
BRANCH   6   9
ATOM      8  C   UNL     1       0.715  -0.990  -1.201  0.00  0.00    -0.017 C 
ATOM      9  C   UNL     1       0.064  -0.152  -0.098  0.00  0.00    -0.081 C 
ENDBRANCH   6   9
BRANCH   6  10
ATOM     10  C   UNL     1      -1.608  -1.851   0.172  0.00  0.00    -0.040 C 
ATOM     11  C   UNL     1      -3.112  -2.130   0.204  0.00  0.00    -0.008 C 
BRANCH  10  12
ATOM     12  C   UNL     1      -0.996  -2.243   1.493  0.00  0.00    -0.058 A 
ATOM     13  C   UNL     1      -1.101  -1.396   2.581  0.00  0.00    +0.002 A 
ATOM     14  C   UNL     1      -0.540  -1.752   3.793  0.00  0.00    +0.004 A 
ATOM     15  C   UNL     1       0.126  -2.956   3.921  0.00  0.00    +0.045 A 
ATOM     16  C   UNL     1       0.232  -3.808   2.831  0.00  0.00    +0.120 A 
ATOM     17  C   UNL     1      -0.337  -3.450   1.617  0.00  0.00    +0.047 A 
BRANCH  16  18
ATOM     18  O   UNL     1       0.886  -4.992   2.954  0.00  0.00    -0.495 OA
ATOM     19  C   UNL     1       1.441  -5.297   4.235  0.00  0.00    +0.277 C 
ENDBRANCH  16  18
ENDBRANCH  10  12
ENDBRANCH   6  10
ENDBRANCH   5   6
ENDBRANCH   1   5
BRANCH   3  20
ATOM     20  C   UNL     1      -2.163   3.476  -2.861  0.00  0.00    +0.109 C 
BRANCH  20  21
ATOM     21  C   UNL     1      -2.640   3.858  -4.264  0.00  0.00    +0.054 C 
BRANCH  21  22
ATOM     22  C   UNL     1      -2.547   5.352  -4.437  0.00  0.00    -0.046 A 
ATOM     23  C   UNL     1      -3.620   6.155  -4.098  0.00  0.00    +0.005 A 
ATOM     24  C   UNL     1      -3.535   7.526  -4.257  0.00  0.00    +0.029 A 
ATOM     25  C   UNL     1      -2.376   8.093  -4.754  0.00  0.00    +0.105 A 
ATOM     26  C   UNL     1      -1.303   7.290  -5.092  0.00  0.00    +0.029 A 
ATOM     27  C   UNL     1      -1.387   5.920  -4.929  0.00  0.00    +0.005 A 
BRANCH  25  28
ATOM     28  S   UNL     1      -2.268   9.840  -4.958  0.00  0.00    +0.056 S 
ATOM     29  O   UNL     1      -1.278  10.072  -5.951  0.00  0.00    -0.153 OA
ATOM     30  O   UNL     1      -3.600  10.318  -5.083  0.00  0.00    -0.153 OA
BRANCH  28  31
ATOM     31  N   UNL     1      -1.673  10.462  -3.543  0.00  0.00    -0.204 NA
ATOM     32  H   UNL     1      -1.142  11.273  -3.555  0.00  0.00    +0.144 HD
ATOM     33  H   UNL     1      -1.857  10.015  -2.701  0.00  0.00    +0.144 HD
ENDBRANCH  28  31
ENDBRANCH  25  28
ENDBRANCH  21  22
ENDBRANCH  20  21
ENDBRANCH   3  20
TORSDOF 11
