REMARK  Name = ZINC61594251
REMARK  8 active torsions:
REMARK  status: ('A' for Active; 'I' for Inactive)
REMARK    1  A    between atoms: C_1  and  C_2
REMARK    2  A    between atoms: C_2  and  N_3
REMARK    3  A    between atoms: C_9  and  S_10
REMARK    4  A    between atoms: S_10  and  C_11
REMARK    5  A    between atoms: C_11  and  C_13
REMARK    6  A    between atoms: C_11  and  C_19
REMARK    7  A    between atoms: C_19  and  C_21
REMARK    8  A    between atoms: C_19  and  N_22
REMARK                            x       y       z     vdW  Elec       q    Type
REMARK                         _______ _______ _______ _____ _____    ______ ____
ROOT
ATOM      1  C   UNL     1      -1.797  -1.069   4.561  0.00  0.00    +0.076 C 
ENDROOT
BRANCH   1   2
ATOM      2  C   UNL     1      -3.226  -1.269   4.997  0.00  0.00    +0.003 A 
ATOM      3  C   UNL     1      -3.827  -2.391   5.462  0.00  0.00    +0.027 A 
ATOM      4  C   UNL     1      -5.165  -2.341   5.806  0.00  0.00    +0.025 A 
ATOM      5  C   UNL     1      -5.836  -1.171   5.669  0.00  0.00    +0.060 A 
ATOM      6  S   UNL     1      -4.563  -0.087   5.044  0.00  0.00    -0.099 S 
ATOM      7 BR   UNL     1      -6.046  -3.882   6.458  0.00  0.00    -0.050 Br
ENDBRANCH   1   2
BRANCH   1   8
ATOM      8  C   UNL     1      -1.141   0.001   5.437  0.00  0.00    -0.060 C 
ATOM      9  C   UNL     1       0.327   0.157   5.037  0.00  0.00    -0.013 C 
BRANCH   8  10
ATOM     10  N   UNL     1      -1.225  -0.402   6.847  0.00  0.00    +0.381 N 
ATOM     11  H   UNL     1      -0.746  -1.281   6.974  0.00  0.00    -0.090 HD
ATOM     12  H   UNL     1      -0.792   0.303   7.425  0.00  0.00    -0.090 HD
ATOM     13  H   UNL     1      -2.193  -0.505   7.110  0.00  0.00    -0.090 HD
ENDBRANCH   8  10
ENDBRANCH   1   8
BRANCH   1  14
ATOM     14  S   UNL     1      -1.763  -0.535   2.828  0.00  0.00    -0.079 S 
BRANCH  14  21
ATOM     15  N   UNL     1      -2.591  -1.988   0.584  0.00  0.00    -0.271 N 
ATOM     16  C   UNL     1      -3.009  -3.231   0.273  0.00  0.00    +0.345 A 
ATOM     17  O   UNL     1      -3.316  -3.630  -0.836  0.00  0.00    -0.245 OA
ATOM     18  N   UNL     1      -3.025  -3.953   1.413  0.00  0.00    -0.226 N 
ATOM     19  H   UNL     1      -3.283  -4.884   1.499  0.00  0.00    +0.194 HD
ATOM     20  N   UNL     1      -2.600  -3.110   2.449  0.00  0.00    -0.145 NA
ATOM     21  C   UNL     1      -2.339  -1.942   1.937  0.00  0.00    +0.193 A 
BRANCH  15  23
ATOM     22  C   UNL     1      -1.006  -0.896  -0.925  0.00  0.00    +0.027 C 
ATOM     23  C   UNL     1      -2.427  -0.877  -0.357  0.00  0.00    +0.125 C 
ENDBRANCH  15  23
ENDBRANCH  14  21
ENDBRANCH   1  14
TORSDOF 6
