REMARK  Name = ZINC06948373
REMARK  9 active torsions:
REMARK  status: ('A' for Active; 'I' for Inactive)
REMARK    1  A    between atoms: C_1  and  C_2
REMARK    2  A    between atoms: C_5  and  N_9
REMARK    3  A    between atoms: N_9  and  C_10
REMARK    4  A    between atoms: C_10  and  N_12
REMARK    5  A    between atoms: N_12  and  C_13
REMARK    6  A    between atoms: C_13  and  C_14
REMARK    7  A    between atoms: C_14  and  C_15
REMARK    8  A    between atoms: C_14  and  C_16
REMARK    9  A    between atoms: C_14  and  N_48
REMARK                            x       y       z     vdW  Elec       q    Type
REMARK                         _______ _______ _______ _____ _____    ______ ____
ROOT
ATOM      1  N   UNL     1       2.710   0.526   0.828  0.00  0.00    -0.328 N 
ATOM      2  H   UNL     1       3.318   0.784   1.538  0.00  0.00    +0.148 HD
ENDROOT
BRANCH   1   3
ATOM      3  C   UNL     1       1.782  -0.426   1.048  0.00  0.00    +0.134 C 
ATOM      4  S   UNL     1       0.709  -0.882  -0.206  0.00  0.00    -0.019 S 
BRANCH   3   5
ATOM      5  N   UNL     1       1.695  -1.016   2.257  0.00  0.00    -0.297 N 
ATOM      6  H   UNL     1       2.341  -0.803   2.948  0.00  0.00    +0.154 HD
BRANCH   5  11
ATOM      7  C   UNL     1      -2.454  -4.741   3.306  0.00  0.00    +0.045 C 
ATOM      8  C   UNL     1      -1.351  -3.752   3.027  0.00  0.00    -0.032 A 
ATOM      9  C   UNL     1      -1.058  -2.767   3.952  0.00  0.00    +0.006 A 
ATOM     10  C   UNL     1      -0.045  -1.862   3.702  0.00  0.00    +0.023 A 
ATOM     11  C   UNL     1       0.672  -1.935   2.515  0.00  0.00    +0.034 A 
ATOM     12  C   UNL     1       0.377  -2.925   1.588  0.00  0.00    +0.043 A 
ATOM     13  C   UNL     1      -0.634  -3.832   1.846  0.00  0.00    +0.046 A 
ATOM     14 CL   UNL     1      -1.005  -5.071   0.688  0.00  0.00    -0.083 Cl
ENDBRANCH   5  11
ENDBRANCH   3   5
ENDBRANCH   1   3
BRANCH   1  15
ATOM     15  C   UNL     1       2.800   1.171  -0.485  0.00  0.00    +0.091 C 
BRANCH  15  16
ATOM     16  C   UNL     1       4.006   2.113  -0.508  0.00  0.00    -0.055 C 
ATOM     17  C   UNL     1       5.278   1.320  -0.201  0.00  0.00    -0.008 C 
ATOM     18  C   UNL     1       4.125   2.754  -1.892  0.00  0.00    -0.008 C 
BRANCH  16  24
ATOM     19  C   UNL     1       2.610   3.942   0.244  0.00  0.00    -0.078 C 
ATOM     20  C   UNL     1       2.378   4.926   1.393  0.00  0.00    -0.019 C 
ATOM     21  C   UNL     1       3.587   5.858   1.512  0.00  0.00    -0.004 C 
ATOM     22  C   UNL     1       4.848   5.018   1.734  0.00  0.00    -0.019 C 
ATOM     23  C   UNL     1       5.009   4.031   0.575  0.00  0.00    -0.078 C 
ATOM     24  N   UNL     1       3.824   3.148   0.530  0.00  0.00    +0.384 N 
ATOM     25  H   UNL     1       3.715   2.690   1.442  0.00  0.00    -0.081 HD
ENDBRANCH  16  24
ENDBRANCH  15  16
ENDBRANCH   1  15
TORSDOF 6
