REMARK  Name = ZINC15708440
REMARK  7 active torsions:
REMARK  status: ('A' for Active; 'I' for Inactive)
REMARK    1  A    between atoms: C_2  and  C_3
REMARK    2  A    between atoms: C_3  and  N_4
REMARK    3  A    between atoms: C_5  and  C_7
REMARK    4  A    between atoms: C_7  and  C_8
REMARK    5  A    between atoms: C_8  and  C_9
REMARK    6  A    between atoms: C_18  and  N_21
REMARK    7  A    between atoms: N_24  and  C_25
REMARK                            x       y       z     vdW  Elec       q    Type
REMARK                         _______ _______ _______ _____ _____    ______ ____
ROOT
ATOM      1  C   UNL     1       0.985   3.227   0.371  0.00  0.00    -0.050 C 
ATOM      2  C   UNL     1       1.225   1.718   0.220  0.00  0.00    +0.089 C 
ATOM      3  N   UNL     1      -0.022   0.967   0.174  0.00  0.00    -0.318 N 
ATOM      4  C   UNL     1      -1.245   1.517   0.052  0.00  0.00    +0.200 C 
ATOM      5  O   UNL     1      -2.222   0.814  -0.094  0.00  0.00    -0.278 OA
ATOM      6  C   UNL     1      -1.384   3.005   0.101  0.00  0.00    +0.021 C 
ATOM      7  C   UNL     1      -0.438   4.982  -0.726  0.00  0.00    -0.055 C 
ATOM      8  C   UNL     1      -1.956   5.039  -1.037  0.00  0.00    +0.057 C 
ATOM      9  C   UNL     1      -2.462   3.583  -0.828  0.00  0.00    +0.014 C 
ATOM     10  H   UNL     1       0.032   0.000   0.234  0.00  0.00    +0.149 HD
ATOM     11  N   UNL     1      -0.197   3.540  -0.511  0.00  0.00    +0.391 N 
ATOM     12  H   UNL     1      -0.045   3.094  -1.423  0.00  0.00    -0.080 HD
ENDROOT
BRANCH   8  13
ATOM     13  N   UNL     1      -2.176   5.461  -2.423  0.00  0.00    -0.298 N 
ATOM     14  C   UNL     1      -2.235   6.773  -2.726  0.00  0.00    +0.304 C 
ATOM     15  O   UNL     1      -2.106   7.606  -1.850  0.00  0.00    -0.253 OA
ATOM     16  N   UNL     1      -2.438   7.161  -4.001  0.00  0.00    -0.269 N 
ATOM     17  H   UNL     1      -2.280   4.797  -3.122  0.00  0.00    +0.150 HD
ATOM     18  H   UNL     1      -2.616   6.499  -4.687  0.00  0.00    +0.156 HD
BRANCH  16  19
ATOM     19  C   UNL     1      -2.393   8.528  -4.336  0.00  0.00    +0.042 A 
ATOM     20  C   UNL     1      -1.924   8.935  -5.575  0.00  0.00    +0.031 A 
ATOM     21  C   UNL     1      -1.899  10.259  -5.865  0.00  0.00    +0.047 A 
ATOM     22  S   UNL     1      -2.538  10.982  -4.363  0.00  0.00    -0.103 S 
ATOM     23  C   UNL     1      -2.804   9.472  -3.448  0.00  0.00    +0.068 A 
ENDBRANCH  16  19
ENDBRANCH   8  13
BRANCH   1  24
ATOM     24  C   UNL     1       2.230   3.999  -0.071  0.00  0.00    -0.005 C 
BRANCH  24  25
ATOM     25  C   UNL     1       3.386   3.689   0.882  0.00  0.00    +0.094 C 
BRANCH  25  27
ATOM     26  N   UNL     1       5.718   4.439   1.230  0.00  0.00    -0.304 N 
ATOM     27  C   UNL     1       4.576   4.542   0.522  0.00  0.00    +0.214 C 
ATOM     28  O   UNL     1       4.505   5.320  -0.406  0.00  0.00    -0.276 OA
ATOM     29  H   UNL     1       5.774   3.816   1.972  0.00  0.00    +0.150 HD
BRANCH  26  30
ATOM     30  C   UNL     1       6.874   5.268   0.880  0.00  0.00    +0.193 C 
BRANCH  30  32
ATOM     31  C   UNL     1       8.874   4.732   2.528  0.00  0.00    +0.005 C 
ATOM     32  C   UNL     1       7.987   4.970   1.797  0.00  0.00    -0.087 C 
ENDBRANCH  30  32
ENDBRANCH  26  30
ENDBRANCH  25  27
ENDBRANCH  24  25
ENDBRANCH   1  24
TORSDOF 7
