REMARK  Name = ZINC63985477
REMARK  14 active torsions:
REMARK  status: ('A' for Active; 'I' for Inactive)
REMARK    1  A    between atoms: C_1  and  C_2
REMARK    2  A    between atoms: C_2  and  C_3
REMARK    3  A    between atoms: C_3  and  C_4
REMARK    4  A    between atoms: C_3  and  N_6
REMARK    5  A    between atoms: C_4  and  C_5
REMARK    6  A    between atoms: N_6  and  C_7
REMARK    7  A    between atoms: N_13  and  C_26
REMARK    8  A    between atoms: C_14  and  C_22
REMARK    9  A    between atoms: C_16  and  N_18
REMARK   10  A    between atoms: C_19  and  C_21
REMARK   11  A    between atoms: C_22  and  O_24
REMARK   12  A    between atoms: O_24  and  C_25
REMARK   13  A    between atoms: C_26  and  C_27
REMARK   14  A    between atoms: C_27  and  C_28
REMARK                            x       y       z     vdW  Elec       q    Type
REMARK                         _______ _______ _______ _____ _____    ______ ____
ROOT
ATOM      1  C   UNL     1       0.128   1.476  -2.462  0.00  0.00    +0.044 A 
ATOM      2  C   UNL     1      -0.542   1.665  -3.670  0.00  0.00    +0.033 A 
ATOM      3  C   UNL     1      -0.338   2.846  -4.357  0.00  0.00    +0.015 A 
ATOM      4  C   UNL     1       0.517   3.811  -3.843  0.00  0.00    +0.105 A 
ATOM      5  N   UNL     1       1.137   3.589  -2.685  0.00  0.00    -0.348 N 
ATOM      6  C   UNL     1       0.964   2.479  -1.998  0.00  0.00    +0.107 A 
ATOM      7  N   UNL     1       0.590   4.924  -4.678  0.00  0.00    -0.301 N 
ATOM      8  C   UNL     1      -0.265   4.734  -5.852  0.00  0.00    +0.208 C 
ATOM      9  C   UNL     1      -0.902   3.347  -5.666  0.00  0.00    +0.138 C 
ATOM     10  H   UNL     1       1.733   4.270  -2.334  0.00  0.00    +0.167 HD
ENDROOT
BRANCH   9  11
ATOM     11  N   UNL     1      -2.361   3.461  -5.585  0.00  0.00    -0.306 N 
ATOM     12  C   UNL     1      -3.136   2.392  -5.853  0.00  0.00    +0.210 C 
ATOM     13  O   UNL     1      -2.627   1.336  -6.163  0.00  0.00    -0.276 OA
ATOM     14  C   UNL     1      -4.636   2.509  -5.769  0.00  0.00    +0.109 C 
ATOM     15  H   UNL     1      -2.768   4.306  -5.337  0.00  0.00    +0.149 HD
ENDBRANCH   9  11
BRANCH   1  16
ATOM     16  N   UNL     1      -0.045   0.296  -1.727  0.00  0.00    -0.340 N 
ATOM     17  H   UNL     1      -0.633  -0.401  -2.060  0.00  0.00    +0.146 HD
BRANCH  16  18
ATOM     18  C   UNL     1       0.660   0.113  -0.456  0.00  0.00    +0.070 C 
BRANCH  18  20
ATOM     19  C   UNL     1      -0.203   2.274   0.454  0.00  0.00    +0.006 C 
ATOM     20  C   UNL     1      -0.145   0.760   0.672  0.00  0.00    +0.019 C 
ENDBRANCH  18  20
BRANCH  18  21
ATOM     21  C   UNL     1       0.824  -1.381  -0.174  0.00  0.00    +0.019 C 
ATOM     22  C   UNL     1       1.733  -2.005  -1.235  0.00  0.00    +0.006 C 
ENDBRANCH  18  21
ENDBRANCH  16  18
ENDBRANCH   1  16
BRANCH   8  23
ATOM     23  C   UNL     1       0.562   4.767  -7.112  0.00  0.00    +0.330 C 
ATOM     24  O   UNL     1       1.730   4.462  -7.076  0.00  0.00    -0.249 OA
BRANCH  23  25
ATOM     25  O   UNL     1      -0.000   5.136  -8.274  0.00  0.00    -0.467 OA
ATOM     26  C   UNL     1       0.842   5.145  -9.428  0.00  0.00    +0.280 C 
ENDBRANCH  23  25
ENDBRANCH   8  23
BRANCH   7  27
ATOM     27  C   UNL     1       1.405   6.114  -4.418  0.00  0.00    +0.112 C 
BRANCH  27  28
ATOM     28  C   UNL     1       0.605   7.104  -3.568  0.00  0.00    +0.052 C 
BRANCH  28  29
ATOM     29  C   UNL     1       1.422   8.350  -3.346  0.00  0.00    -0.040 C 
ATOM     30  C   UNL     1       1.374   9.494  -4.066  0.00  0.00    -0.001 A 
ATOM     31  C   UNL     1       0.578   9.904  -5.229  0.00  0.00    +0.010 A 
ATOM     32  C   UNL     1       0.756  11.142  -5.742  0.00  0.00    +0.001 A 
ATOM     33  C   UNL     1       1.681  12.041  -5.194  0.00  0.00    +0.002 A 
ATOM     34  C   UNL     1       2.449  11.737  -4.126  0.00  0.00    +0.026 A 
ATOM     35  C   UNL     1       2.343  10.462  -3.505  0.00  0.00    +0.043 A 
ATOM     36  N   UNL     1       2.966   9.937  -2.478  0.00  0.00    -0.380 N 
ATOM     37  C   UNL     1       2.458   8.578  -2.267  0.00  0.00    +0.144 C 
ATOM     38  H   UNL     1       3.647  10.376  -1.944  0.00  0.00    +0.160 HD
ENDBRANCH  28  29
ENDBRANCH  27  28
ENDBRANCH   7  27
TORSDOF 10
