REMARK  Name = ZINC67546153
REMARK  8 active torsions:
REMARK  status: ('A' for Active; 'I' for Inactive)
REMARK    1  A    between atoms: C_1  and  C_2
REMARK    2  A    between atoms: N_5  and  C_8
REMARK    3  A    between atoms: C_8  and  C_9
REMARK    4  A    between atoms: C_9  and  C_11
REMARK    5  A    between atoms: C_9  and  O_29
REMARK    6  A    between atoms: C_11  and  N_12
REMARK    7  A    between atoms: N_15  and  C_16
REMARK    8  A    between atoms: C_19  and  N_23
REMARK                            x       y       z     vdW  Elec       q    Type
REMARK                         _______ _______ _______ _____ _____    ______ ____
ROOT
ATOM      1  N   UNL     1       0.477  -6.368   4.069  0.00  0.00    -0.297 N 
ATOM      2  C   UNL     1       0.637  -7.677   4.346  0.00  0.00    +0.304 C 
ATOM      3  O   UNL     1       0.160  -8.518   3.609  0.00  0.00    -0.253 OA
ATOM      4  N   UNL     1       1.328  -8.054   5.441  0.00  0.00    -0.269 N 
ATOM      5  H   UNL     1       0.858  -5.697   4.656  0.00  0.00    +0.150 HD
ATOM      6  H   UNL     1       1.645  -7.386   6.068  0.00  0.00    +0.156 HD
ENDROOT
BRANCH   4   7
ATOM      7  C   UNL     1       1.588  -9.412   5.672  0.00  0.00    +0.040 A 
ATOM      8  C   UNL     1       1.635  -9.898   6.972  0.00  0.00    +0.063 A 
ATOM      9  C   UNL     1       1.891 -11.237   7.201  0.00  0.00    +0.149 A 
ATOM     10  C   UNL     1       2.101 -12.097   6.130  0.00  0.00    +0.101 A 
ATOM     11  C   UNL     1       2.054 -11.610   4.829  0.00  0.00    +0.149 A 
ATOM     12  C   UNL     1       1.793 -10.271   4.601  0.00  0.00    +0.063 A 
ATOM     13  F   UNL     1       2.259 -12.445   3.787  0.00  0.00    -0.203 F 
ATOM     14  F   UNL     1       1.937 -11.710   8.466  0.00  0.00    -0.203 F 
BRANCH  10  15
ATOM     15  N   UNL     1       2.361 -13.456   6.361  0.00  0.00    -0.325 N 
ATOM     16  C   UNL     1       3.691 -14.053   6.553  0.00  0.00    +0.105 C 
ATOM     17  C   UNL     1       3.488 -15.570   6.749  0.00  0.00    +0.020 C 
ATOM     18  C   UNL     1       2.105 -15.823   6.092  0.00  0.00    +0.020 C 
ATOM     19  C   UNL     1       1.346 -14.521   6.459  0.00  0.00    +0.105 C 
ENDBRANCH  10  15
ENDBRANCH   4   7
BRANCH   1  20
ATOM     20  C   UNL     1      -0.274  -5.958   2.879  0.00  0.00    +0.135 C 
BRANCH  20  21
ATOM     21  C   UNL     1      -0.307  -4.431   2.798  0.00  0.00    +0.115 C 
BRANCH  21  22
ATOM     22  O   UNL     1       1.018  -3.936   2.598  0.00  0.00    -0.392 OA
ATOM     23  H   UNL     1       1.440  -4.255   1.788  0.00  0.00    +0.210 HD
ENDBRANCH  21  22
BRANCH  21  24
ATOM     24  C   UNL     1      -1.194  -4.001   1.628  0.00  0.00    -0.046 C 
BRANCH  24  29
ATOM     25  C   UNL     1      -2.472   1.549   1.344  0.00  0.00    +0.007 C 
ATOM     26  C   UNL     1      -2.575   0.025   1.429  0.00  0.00    -0.018 C 
ATOM     27  C   UNL     1      -1.866  -0.467   2.694  0.00  0.00    -0.016 C 
ATOM     28  C   UNL     1      -1.904  -1.996   2.732  0.00  0.00    -0.078 C 
ATOM     29  N   UNL     1      -1.224  -2.535   1.548  0.00  0.00    +0.381 N 
ATOM     30  C   UNL     1      -1.940  -2.127   0.333  0.00  0.00    -0.078 C 
ATOM     31  C   UNL     1      -1.903  -0.602   0.203  0.00  0.00    -0.016 C 
ATOM     32  H   UNL     1      -0.279  -2.183   1.515  0.00  0.00    -0.082 HD
ENDBRANCH  24  29
ENDBRANCH  21  24
ENDBRANCH  20  21
ENDBRANCH   1  20
TORSDOF 7
