REMARK  Name = ZINC41006611
REMARK  13 active torsions:
REMARK  status: ('A' for Active; 'I' for Inactive)
REMARK    1  A    between atoms: C_1  and  C_2
REMARK    2  A    between atoms: C_7  and  N_8
REMARK    3  A    between atoms: C_9  and  C_11
REMARK    4  A    between atoms: C_13  and  C_33
REMARK    5  A    between atoms: C_15  and  C_23
REMARK    6  A    between atoms: C_17  and  C_21
REMARK    7  A    between atoms: C_17  and  O_22
REMARK    8  A    between atoms: N_25  and  C_26
REMARK    9  A    between atoms: C_31  and  C_32
REMARK   10  A    between atoms: C_36  and  O_39
REMARK   11  A    between atoms: O_39  and  C_40
REMARK   12  A    between atoms: C_40  and  C_41
REMARK   13  A    between atoms: C_40  and  C_42
REMARK                            x       y       z     vdW  Elec       q    Type
REMARK                         _______ _______ _______ _____ _____    ______ ____
ROOT
ATOM      1  C   UNL     1      -0.108  -0.095   6.306  0.00  0.00    +0.149 C 
ATOM      2  C   UNL     1      -0.370  -1.266   7.259  0.00  0.00    +0.053 C 
ATOM      3  C   UNL     1      -0.446  -0.745   8.695  0.00  0.00    +0.115 C 
ATOM      4  C   UNL     1      -1.636   0.204   8.840  0.00  0.00    +0.082 C 
ATOM      5  C   UNL     1      -1.422   1.431   7.947  0.00  0.00    +0.110 C 
ATOM      6  C   UNL     1      -1.169   0.960   6.531  0.00  0.00    +0.148 C 
ATOM      7  O   UNL     1      -1.799   1.412   5.605  0.00  0.00    -0.296 OA
ATOM      8  C   UNL     1      -2.918  -0.517   8.419  0.00  0.00    +0.042 C 
ENDROOT
BRANCH   2   9
ATOM      9  C   UNL     1       0.751  -2.266   7.145  0.00  0.00    -0.042 A 
ATOM     10  C   UNL     1       2.048  -1.886   7.438  0.00  0.00    +0.007 A 
ATOM     11  C   UNL     1       3.077  -2.802   7.334  0.00  0.00    +0.046 A 
ATOM     12  C   UNL     1       2.809  -4.104   6.936  0.00  0.00    +0.121 A 
ATOM     13  C   UNL     1       1.507  -4.482   6.643  0.00  0.00    +0.046 A 
ATOM     14  C   UNL     1       0.480  -3.564   6.754  0.00  0.00    +0.007 A 
BRANCH  12  15
ATOM     15  O   UNL     1       3.820  -5.006   6.832  0.00  0.00    -0.489 OA
BRANCH  15  16
ATOM     16  C   UNL     1       5.148  -4.518   7.033  0.00  0.00    +0.167 C 
ATOM     17  C   UNL     1       5.464  -4.501   8.530  0.00  0.00    +0.051 C 
ATOM     18  C   UNL     1       6.141  -5.431   6.312  0.00  0.00    +0.051 C 
ENDBRANCH  15  16
ENDBRANCH  12  15
ENDBRANCH   2   9
BRANCH   1  20
ATOM     19  N   UNL     1       0.023   0.287   3.865  0.00  0.00    -0.285 N 
ATOM     20  C   UNL     1      -0.171  -0.579   4.880  0.00  0.00    +0.228 C 
ATOM     21  O   UNL     1      -0.395  -1.747   4.646  0.00  0.00    -0.275 OA
ATOM     22  H   UNL     1       0.258   1.209   4.053  0.00  0.00    +0.155 HD
BRANCH  19  29
ATOM     23  C   UNL     1      -0.762   2.195   1.905  0.00  0.00    +0.045 C 
ATOM     24  C   UNL     1      -0.496   0.753   1.553  0.00  0.00    -0.029 A 
ATOM     25  C   UNL     1      -0.627   0.325   0.246  0.00  0.00    +0.005 A 
ATOM     26  C   UNL     1      -0.383  -0.997  -0.077  0.00  0.00    +0.000 A 
ATOM     27  C   UNL     1      -0.009  -1.895   0.905  0.00  0.00    +0.002 A 
ATOM     28  C   UNL     1       0.123  -1.473   2.214  0.00  0.00    +0.023 A 
ATOM     29  C   UNL     1      -0.116  -0.144   2.541  0.00  0.00    +0.036 A 
ENDBRANCH  19  29
ENDBRANCH   1  20
BRANCH   3  30
ATOM     30  C   UNL     1      -0.614  -1.906   9.640  0.00  0.00    +0.224 C 
ATOM     31  O   UNL     1      -0.668  -3.038   9.208  0.00  0.00    -0.275 OA
ATOM     32  N   UNL     1      -0.704  -1.687  10.967  0.00  0.00    -0.285 N 
ATOM     33  H   UNL     1      -0.712  -0.779  11.310  0.00  0.00    +0.155 HD
BRANCH  32  34
ATOM     34  C   UNL     1      -0.787  -2.768  11.851  0.00  0.00    +0.036 A 
ATOM     35  C   UNL     1      -1.345  -3.969  11.431  0.00  0.00    +0.023 A 
ATOM     36  C   UNL     1      -1.425  -5.035  12.305  0.00  0.00    +0.002 A 
ATOM     37  C   UNL     1      -0.951  -4.907  13.599  0.00  0.00    +0.000 A 
ATOM     38  C   UNL     1      -0.396  -3.713  14.020  0.00  0.00    +0.005 A 
ATOM     39  C   UNL     1      -0.307  -2.646  13.148  0.00  0.00    -0.029 A 
ATOM     40  C   UNL     1       0.305  -1.347  13.606  0.00  0.00    +0.045 C 
ENDBRANCH  32  34
ENDBRANCH   3  30
BRANCH   4  41
ATOM     41  O   UNL     1      -1.750   0.621  10.203  0.00  0.00    -0.388 OA
ATOM     42  H   UNL     1      -2.486   1.226  10.369  0.00  0.00    +0.210 HD
ENDBRANCH   4  41
TORSDOF 8
