REMARK  Name = ZINC39685717
REMARK  13 active torsions:
REMARK  status: ('A' for Active; 'I' for Inactive)
REMARK    1  A    between atoms: C_1  and  C_2
REMARK    2  A    between atoms: C_2  and  C_3
REMARK    3  A    between atoms: C_2  and  C_4
REMARK    4  A    between atoms: C_4  and  C_6
REMARK    5  A    between atoms: C_4  and  N_13
REMARK    6  A    between atoms: N_8  and  C_9
REMARK    7  A    between atoms: C_9  and  C_10
REMARK    8  A    between atoms: C_9  and  C_11
REMARK    9  A    between atoms: C_9  and  C_12
REMARK   10  A    between atoms: C_14  and  C_16
REMARK   11  A    between atoms: C_27  and  C_29
REMARK   12  A    between atoms: C_33  and  O_35
REMARK   13  A    between atoms: O_35  and  C_36
REMARK                            x       y       z     vdW  Elec       q    Type
REMARK                         _______ _______ _______ _____ _____    ______ ____
ROOT
ATOM      1  C   UNL     1       0.576  -4.338   1.818  0.00  0.00    +0.100 C 
ATOM      2  C   UNL     1       1.782  -4.113   0.879  0.00  0.00    +0.121 C 
ATOM      3  N   UNL     1       2.884  -3.693   1.778  0.00  0.00    -0.296 N 
ATOM      4  C   UNL     1       2.721  -4.544   2.982  0.00  0.00    +0.115 C 
ATOM      5  C   UNL     1       1.197  -4.624   3.196  0.00  0.00    -0.004 C 
ATOM      6  C   UNL     1       0.751  -3.571   4.205  0.00  0.00    -0.010 C 
ATOM      7  C   UNL     1       1.335  -3.908   5.580  0.00  0.00    -0.082 C 
ATOM      8  N   UNL     1       0.874  -5.239   5.996  0.00  0.00    +0.379 N 
ATOM      9  C   UNL     1       1.385  -6.257   5.071  0.00  0.00    -0.082 C 
ATOM     10  C   UNL     1       0.804  -6.019   3.674  0.00  0.00    -0.010 C 
ATOM     11  C   UNL     1       3.821  -2.752   1.552  0.00  0.00    +0.247 C 
ATOM     12  O   UNL     1       3.755  -2.054   0.559  0.00  0.00    -0.270 OA
ATOM     13  H   UNL     1       1.210  -5.434   6.927  0.00  0.00    -0.086 HD
ATOM     14  H   UNL     1      -0.135  -5.260   5.994  0.00  0.00    -0.086 HD
ENDROOT
BRANCH  11  15
ATOM     15  C   UNL     1       4.929  -2.567   2.513  0.00  0.00    +0.040 A 
ATOM     16  C   UNL     1       5.294  -3.607   3.370  0.00  0.00    +0.013 A 
ATOM     17  C   UNL     1       6.329  -3.430   4.266  0.00  0.00    +0.004 A 
ATOM     18  C   UNL     1       7.007  -2.226   4.318  0.00  0.00    +0.045 A 
ATOM     19  C   UNL     1       6.651  -1.187   3.470  0.00  0.00    +0.121 A 
ATOM     20  C   UNL     1       5.618  -1.355   2.563  0.00  0.00    +0.058 A 
BRANCH  19  21
ATOM     21  O   UNL     1       7.320  -0.005   3.525  0.00  0.00    -0.495 OA
ATOM     22  C   UNL     1       8.378   0.097   4.481  0.00  0.00    +0.277 C 
ENDBRANCH  19  21
ENDBRANCH  11  15
BRANCH   1  24
ATOM     23  N   UNL     1      -1.594  -3.204   2.170  0.00  0.00    -0.303 N 
ATOM     24  C   UNL     1      -0.282  -3.101   1.876  0.00  0.00    +0.219 C 
ATOM     25  O   UNL     1       0.207  -2.013   1.658  0.00  0.00    -0.275 OA
ATOM     26  H   UNL     1      -1.985  -4.075   2.344  0.00  0.00    +0.149 HD
BRANCH  23  27
ATOM     27  C   UNL     1      -2.428  -2.002   2.226  0.00  0.00    +0.161 C 
BRANCH  27  28
ATOM     28  C   UNL     1      -3.612  -2.253   3.124  0.00  0.00    +0.234 C 
ATOM     29  O   UNL     1      -3.961  -3.390   3.364  0.00  0.00    -0.274 OA
ATOM     30  N   UNL     1      -4.282  -1.215   3.662  0.00  0.00    -0.309 N 
ATOM     31  H   UNL     1      -3.963  -0.309   3.527  0.00  0.00    +0.149 HD
BRANCH  30  32
ATOM     32  C   UNL     1      -5.493  -1.454   4.451  0.00  0.00    +0.026 C 
ATOM     33  C   UNL     1      -5.152  -2.337   5.654  0.00  0.00    +0.031 C 
ATOM     34  C   UNL     1      -6.054  -0.118   4.942  0.00  0.00    +0.031 C 
ATOM     35  C   UNL     1      -6.537  -2.158   3.582  0.00  0.00    +0.031 C 
ENDBRANCH  30  32
ENDBRANCH  27  28
BRANCH  27  37
ATOM     36  C   UNL     1      -1.728  -1.277  -0.060  0.00  0.00    +0.009 C 
ATOM     37  C   UNL     1      -2.921  -1.657   0.819  0.00  0.00    +0.012 C 
ATOM     38  C   UNL     1      -3.633  -2.869   0.216  0.00  0.00    +0.009 C 
ENDBRANCH  27  37
ENDBRANCH  23  27
ENDBRANCH   1  24
TORSDOF 7
