REMARK  Name = ZINC38517738
REMARK  12 active torsions:
REMARK  status: ('A' for Active; 'I' for Inactive)
REMARK    1  A    between atoms: C_1  and  C_2
REMARK    2  A    between atoms: C_2  and  C_3
REMARK    3  A    between atoms: C_3  and  C_4
REMARK    4  A    between atoms: C_4  and  O_5
REMARK    5  A    between atoms: O_5  and  C_6
REMARK    6  A    between atoms: C_9  and  N_12
REMARK    7  A    between atoms: N_15  and  C_16
REMARK    8  A    between atoms: C_16  and  C_17
REMARK    9  A    between atoms: C_17  and  C_19
REMARK   10  A    between atoms: C_17  and  N_30
REMARK   11  A    between atoms: N_28  and  C_29
REMARK   12  A    between atoms: N_33  and  C_36
REMARK                            x       y       z     vdW  Elec       q    Type
REMARK                         _______ _______ _______ _____ _____    ______ ____
ROOT
ATOM      1  C   UNL     1       3.694 -11.869  -5.774  0.00  0.00    +0.104 C 
ENDROOT
BRANCH   1   2
ATOM      2  C   UNL     1       4.471 -12.107  -7.044  0.00  0.00    -0.028 A 
ATOM      3  C   UNL     1       5.833 -11.871  -7.073  0.00  0.00    +0.007 A 
ATOM      4  C   UNL     1       6.544 -12.087  -8.236  0.00  0.00    +0.024 A 
ATOM      5  C   UNL     1       5.891 -12.543  -9.376  0.00  0.00    +0.033 A 
ATOM      6  C   UNL     1       4.527 -12.783  -9.345  0.00  0.00    -0.026 A 
ATOM      7  C   UNL     1       3.821 -12.566  -8.173  0.00  0.00    +0.010 A 
ATOM      8  C   UNL     1       3.788 -13.288 -10.557  0.00  0.00    +0.038 C 
ATOM      9  C   UNL     1       4.583 -12.993 -11.829  0.00  0.00    +0.024 C 
ATOM     10  C   UNL     1       6.018 -13.508 -11.648  0.00  0.00    +0.105 C 
ATOM     11  N   UNL     1       6.630 -12.752 -10.546  0.00  0.00    -0.333 N 
ATOM     12  C   UNL     1       7.991 -12.225 -10.672  0.00  0.00    +0.129 C 
ENDBRANCH   1   2
BRANCH   1  13
ATOM     13  N   UNL     1       4.487 -12.321  -4.623  0.00  0.00    -0.297 NA
ATOM     14  C   UNL     1       4.849 -13.739  -4.757  0.00  0.00    +0.066 C 
ATOM     15  C   UNL     1       5.722 -14.154  -3.571  0.00  0.00    -0.064 C 
ATOM     16  N   UNL     1       4.984 -13.935  -2.320  0.00  0.00    +0.379 N 
ATOM     17  C   UNL     1       4.651 -12.511  -2.188  0.00  0.00    -0.064 C 
ATOM     18  C   UNL     1       3.769 -12.082  -3.363  0.00  0.00    +0.066 C 
ATOM     19  C   UNL     1       5.815 -14.350  -1.182  0.00  0.00    -0.096 C 
ATOM     20  H   UNL     1       4.134 -14.479  -2.331  0.00  0.00    -0.082 HD
ENDBRANCH   1  13
BRANCH   1  21
ATOM     21  C   UNL     1       3.394 -10.376  -5.633  0.00  0.00    +0.129 C 
BRANCH  21  25
ATOM     22  N   UNL     1       1.424  -8.244  -7.889  0.00  0.00    -0.269 N 
ATOM     23  C   UNL     1       2.219  -8.641  -6.876  0.00  0.00    +0.304 C 
ATOM     24  O   UNL     1       2.656  -7.822  -6.090  0.00  0.00    -0.253 OA
ATOM     25  N   UNL     1       2.529  -9.944  -6.734  0.00  0.00    -0.297 N 
ATOM     26  H   UNL     1       1.016  -8.903  -8.472  0.00  0.00    +0.156 HD
ATOM     27  H   UNL     1       2.181 -10.597  -7.361  0.00  0.00    +0.150 HD
BRANCH  22  31
ATOM     28  C   UNL     1       0.718  -4.183  -8.520  0.00  0.00    +0.121 A 
ATOM     29  C   UNL     1       1.950  -4.606  -8.043  0.00  0.00    +0.047 A 
ATOM     30  C   UNL     1       2.184  -5.951  -7.834  0.00  0.00    +0.027 A 
ATOM     31  C   UNL     1       1.186  -6.879  -8.101  0.00  0.00    +0.035 A 
ATOM     32  C   UNL     1      -0.046  -6.454  -8.578  0.00  0.00    +0.027 A 
ATOM     33  C   UNL     1      -0.281  -5.109  -8.782  0.00  0.00    +0.047 A 
BRANCH  28  34
ATOM     34  O   UNL     1       0.488  -2.858  -8.726  0.00  0.00    -0.492 OA
BRANCH  34  35
ATOM     35  C   UNL     1       1.562  -1.961  -8.435  0.00  0.00    +0.229 C 
BRANCH  35  36
ATOM     36  C   UNL     1       1.119  -0.525  -8.726  0.00  0.00    +0.041 C 
BRANCH  36  38
ATOM     37  C   UNL     1       1.825   1.871  -8.705  0.00  0.00    +0.004 C 
ATOM     38  C   UNL     1       2.268   0.436  -8.414  0.00  0.00    -0.000 C 
ENDBRANCH  36  38
ENDBRANCH  35  36
ENDBRANCH  34  35
ENDBRANCH  28  34
ENDBRANCH  22  31
ENDBRANCH  21  25
ENDBRANCH   1  21
TORSDOF 9
