REMARK  Name = ZINC29787839
REMARK  13 active torsions:
REMARK  status: ('A' for Active; 'I' for Inactive)
REMARK    1  A    between atoms: C_1  and  C_2
REMARK    2  A    between atoms: C_2  and  C_3
REMARK    3  A    between atoms: C_3  and  C_4
REMARK    4  A    between atoms: C_4  and  O_5
REMARK    5  A    between atoms: O_5  and  C_6
REMARK    6  A    between atoms: C_9  and  C_12
REMARK    7  A    between atoms: N_14  and  C_15
REMARK    8  A    between atoms: C_15  and  C_16
REMARK    9  A    between atoms: N_18  and  C_19
REMARK   10  A    between atoms: C_21  and  C_27
REMARK   11  A    between atoms: C_21  and  C_28
REMARK   12  A    between atoms: C_23  and  C_25
REMARK   13  A    between atoms: C_23  and  C_26
REMARK                            x       y       z     vdW  Elec       q    Type
REMARK                         _______ _______ _______ _____ _____    ______ ____
ROOT
ATOM      1  C   UNL     1       2.450  -4.279  -0.043  0.00  0.00    +0.200 C 
ENDROOT
BRANCH   1   4
ATOM      2  C   UNL     1       1.247  -2.160  -0.021  0.00  0.00    +0.244 C 
ATOM      3  O   UNL     1       0.204  -2.785  -0.014  0.00  0.00    -0.270 OA
ATOM      4  N   UNL     1       2.425  -2.814  -0.036  0.00  0.00    -0.303 N 
ATOM      5  H   UNL     1       3.369  -2.249  -0.042  0.00  0.00    +0.150 HD
BRANCH   2   9
ATOM      6  C   UNL     1       1.177   2.086   0.002  0.00  0.00    +0.121 A 
ATOM      7  C   UNL     1      -0.017   1.373   0.010  0.00  0.00    +0.046 A 
ATOM      8  C   UNL     1       0.002  -0.004   0.002  0.00  0.00    +0.016 A 
ATOM      9  C   UNL     1       1.223  -0.684  -0.013  0.00  0.00    +0.037 A 
ATOM     10  C   UNL     1       2.420   0.036  -0.021  0.00  0.00    +0.016 A 
ATOM     11  C   UNL     1       2.393   1.413  -0.013  0.00  0.00    +0.046 A 
BRANCH   6  12
ATOM     12  O   UNL     1       1.154   3.443   0.009  0.00  0.00    -0.492 OA
BRANCH  12  13
ATOM     13  C   UNL     1       2.416   4.113   0.001  0.00  0.00    +0.229 C 
BRANCH  13  14
ATOM     14  C   UNL     1       2.190   5.626   0.011  0.00  0.00    +0.041 C 
BRANCH  14  16
ATOM     15  C   UNL     1       3.316   7.856   0.013  0.00  0.00    +0.004 C 
ATOM     16  C   UNL     1       3.542   6.343   0.002  0.00  0.00    -0.000 C 
ENDBRANCH  14  16
ENDBRANCH  13  14
ENDBRANCH  12  13
ENDBRANCH   6  12
ENDBRANCH   2   9
ENDBRANCH   1   4
BRANCH   1  17
ATOM     17  C   UNL     1       3.879  -4.758  -0.060  0.00  0.00    +0.230 C 
ATOM     18  O   UNL     1       4.787  -3.954  -0.064  0.00  0.00    -0.274 OA
ATOM     19  N   UNL     1       4.147  -6.079  -0.069  0.00  0.00    -0.311 N 
ATOM     20  H   UNL     1       3.323  -6.807  -0.064  0.00  0.00    +0.149 HD
BRANCH  19  21
ATOM     21  C   UNL     1       5.539  -6.545  -0.085  0.00  0.00    +0.070 C 
ATOM     22  C   UNL     1       6.031  -6.612  -1.530  0.00  0.00    +0.009 C 
ATOM     23  C   UNL     1       7.472  -7.115  -1.578  0.00  0.00    -0.072 C 
ATOM     24  N   UNL     1       7.676  -8.319  -0.800  0.00  0.00    +0.386 N 
ATOM     25  C   UNL     1       7.042  -8.469   0.493  0.00  0.00    -0.072 C 
ATOM     26  C   UNL     1       5.607  -7.948   0.517  0.00  0.00    +0.009 C 
ATOM     27  C   UNL     1       7.857  -7.777   1.593  0.00  0.00    -0.010 C 
ATOM     28  C   UNL     1       6.996  -9.974   0.836  0.00  0.00    -0.010 C 
ATOM     29  C   UNL     1       8.420  -5.997  -1.129  0.00  0.00    -0.010 C 
ATOM     30  C   UNL     1       7.805  -7.431  -3.053  0.00  0.00    -0.010 C 
ATOM     31  H   UNL     1       7.319  -9.189  -1.371  0.00  0.00    -0.084 HD
ATOM     32  H   UNL     1       8.748  -8.437  -0.583  0.00  0.00    -0.084 HD
ENDBRANCH  19  21
ENDBRANCH   1  17
TORSDOF 8
