REMARK  Name = ZINC63473050
REMARK  7 active torsions:
REMARK  status: ('A' for Active; 'I' for Inactive)
REMARK    1  A    between atoms: C_1  and  C_2
REMARK    2  A    between atoms: C_5  and  N_8
REMARK    3  A    between atoms: C_13  and  C_34
REMARK    4  A    between atoms: C_16  and  C_21
REMARK    5  A    between atoms: C_16  and  C_31
REMARK    6  A    between atoms: C_21  and  C_22
REMARK    7  A    between atoms: C_39  and  O_40
REMARK                            x       y       z     vdW  Elec       q    Type
REMARK                         _______ _______ _______ _____ _____    ______ ____
ROOT
ATOM      1  N   UNL     1      -0.114  -4.225   0.137  0.00  0.00    -0.210 N 
ATOM      2  C   UNL     1      -0.081  -4.925  -1.044  0.00  0.00    +0.229 C 
ATOM      3  O   UNL     1       0.093  -4.485  -2.160  0.00  0.00    -0.275 OA
ATOM      4  C   UNL     1      -0.300  -6.298  -0.664  0.00  0.00    +0.077 C 
ATOM      5  C   UNL     1      -0.090  -7.666  -1.170  0.00  0.00    -0.023 C 
ATOM      6  N   UNL     1      -0.409  -8.502   0.038  0.00  0.00    +0.396 N 
ATOM      7  C   UNL     1      -0.223  -7.646   1.248  0.00  0.00    +0.052 C 
ATOM      8  C   UNL     1       0.448  -6.366   0.727  0.00  0.00    +0.086 C 
ATOM      9  C   UNL     1      -0.038  -5.037   1.234  0.00  0.00    +0.229 C 
ATOM     10  O   UNL     1      -0.308  -4.747   2.379  0.00  0.00    -0.275 OA
ATOM     11  H   UNL     1      -1.365  -8.821  -0.010  0.00  0.00    -0.083 HD
ATOM     12  H   UNL     1       0.214  -9.293   0.081  0.00  0.00    -0.083 HD
ENDROOT
BRANCH   1  17
ATOM     13  C   UNL     1      -0.499   1.430   0.432  0.00  0.00    +0.044 C 
ATOM     14  C   UNL     1      -0.397  -0.072   0.354  0.00  0.00    -0.050 A 
ATOM     15  C   UNL     1      -0.375  -0.699  -0.879  0.00  0.00    +0.005 A 
ATOM     16  C   UNL     1      -0.281  -2.075  -0.954  0.00  0.00    +0.024 A 
ATOM     17  C   UNL     1      -0.208  -2.828   0.210  0.00  0.00    +0.044 A 
ATOM     18  C   UNL     1      -0.230  -2.196   1.446  0.00  0.00    +0.024 A 
ATOM     19  C   UNL     1      -0.319  -0.820   1.514  0.00  0.00    +0.005 A 
ENDBRANCH   1  17
BRANCH   5  20
ATOM     20  C   UNL     1      -1.036  -7.972  -2.302  0.00  0.00    -0.019 A 
ATOM     21  C   UNL     1      -2.142  -7.170  -2.515  0.00  0.00    +0.005 A 
ATOM     22  C   UNL     1      -3.011  -7.451  -3.553  0.00  0.00    +0.000 A 
ATOM     23  C   UNL     1      -2.776  -8.533  -4.381  0.00  0.00    +0.004 A 
ATOM     24  C   UNL     1      -1.672  -9.337  -4.173  0.00  0.00    +0.045 A 
ATOM     25  C   UNL     1      -0.796  -9.055  -3.135  0.00  0.00    +0.118 A 
BRANCH  25  26
ATOM     26  O   UNL     1       0.294  -9.841  -2.932  0.00  0.00    -0.507 OA
ATOM     27  H   UNL     1       0.136 -10.586  -2.336  0.00  0.00    +0.292 HD
ENDBRANCH  25  26
ENDBRANCH   5  20
BRANCH   7  28
ATOM     28  C   UNL     1       0.684  -8.331   2.237  0.00  0.00    +0.347 C 
ATOM     29  O   UNL     1       1.124  -9.442   1.993  0.00  0.00    -0.248 OA
ATOM     30  O   UNL     1       0.978  -7.775   3.281  0.00  0.00    -0.248 OA
ENDBRANCH   7  28
BRANCH   7  31
ATOM     31  C   UNL     1      -1.576  -7.339   1.893  0.00  0.00    +0.033 C 
BRANCH  31  32
ATOM     32  C   UNL     1      -2.227  -8.625   2.332  0.00  0.00    -0.042 C 
ATOM     33  C   UNL     1      -2.179  -9.182   3.563  0.00  0.00    -0.001 A 
ATOM     34  C   UNL     1      -1.530  -8.773   4.815  0.00  0.00    +0.010 A 
ATOM     35  C   UNL     1      -1.664  -9.556   5.910  0.00  0.00    +0.001 A 
ATOM     36  C   UNL     1      -2.404 -10.746   5.878  0.00  0.00    +0.002 A 
ATOM     37  C   UNL     1      -3.029 -11.188   4.766  0.00  0.00    +0.026 A 
ATOM     38  C   UNL     1      -2.955 -10.443   3.557  0.00  0.00    +0.043 A 
ATOM     39  N   UNL     1      -3.463 -10.657   2.368  0.00  0.00    -0.380 N 
ATOM     40  C   UNL     1      -3.071  -9.552   1.486  0.00  0.00    +0.144 C 
ATOM     41  H   UNL     1      -4.011 -11.416   2.114  0.00  0.00    +0.160 HD
ENDBRANCH  31  32
ENDBRANCH   7  31
TORSDOF 6
