REMARK  Name = ZINC39672909
REMARK  10 active torsions:
REMARK  status: ('A' for Active; 'I' for Inactive)
REMARK    1  A    between atoms: C_1  and  C_2
REMARK    2  A    between atoms: C_2  and  C_3
REMARK    3  A    between atoms: C_3  and  C_4
REMARK    4  A    between atoms: C_4  and  C_5
REMARK    5  A    between atoms: C_5  and  C_6
REMARK    6  A    between atoms: C_6  and  C_7
REMARK    7  A    between atoms: C_11  and  C_20
REMARK    8  A    between atoms: N_22  and  C_23
REMARK    9  A    between atoms: C_23  and  C_24
REMARK   10  A    between atoms: C_24  and  N_30
REMARK                            x       y       z     vdW  Elec       q    Type
REMARK                         _______ _______ _______ _____ _____    ______ ____
ROOT
ATOM      1  C   UNL     1       1.857  -4.258  -3.744  0.00  0.00    +0.216 C 
ATOM      2  O   UNL     1       2.300  -3.447  -4.529  0.00  0.00    -0.276 OA
ATOM      3  N   UNL     1       2.070  -5.574  -3.942  0.00  0.00    -0.300 N 
ATOM      4  C   UNL     1       1.608  -6.706  -3.104  0.00  0.00    +0.121 C 
ATOM      5  C   UNL     1       1.198  -7.800  -4.116  0.00  0.00    +0.100 C 
ATOM      6  C   UNL     1       1.997  -7.475  -5.389  0.00  0.00    -0.004 C 
ATOM      7  C   UNL     1       2.812  -6.217  -5.053  0.00  0.00    +0.115 C 
ATOM      8  C   UNL     1       2.928  -8.632  -5.739  0.00  0.00    -0.010 C 
ATOM      9  C   UNL     1       3.668  -8.310  -7.040  0.00  0.00    -0.082 C 
ATOM     10  N   UNL     1       2.696  -8.095  -8.118  0.00  0.00    +0.379 N 
ATOM     11  C   UNL     1       1.865  -6.924  -7.817  0.00  0.00    -0.082 C 
ATOM     12  C   UNL     1       1.048  -7.187  -6.549  0.00  0.00    -0.010 C 
ATOM     13  H   UNL     1       3.186  -7.944  -8.987  0.00  0.00    -0.086 HD
ATOM     14  H   UNL     1       2.107  -8.910  -8.206  0.00  0.00    -0.086 HD
ENDROOT
BRANCH   5  15
ATOM     15  C   UNL     1      -0.282  -7.733  -4.390  0.00  0.00    +0.218 C 
ATOM     16  O   UNL     1      -0.870  -6.677  -4.290  0.00  0.00    -0.275 OA
ATOM     17  N   UNL     1      -0.952  -8.847  -4.747  0.00  0.00    -0.313 N 
ATOM     18  H   UNL     1      -0.481  -9.691  -4.827  0.00  0.00    +0.149 HD
BRANCH  17  19
ATOM     19  C   UNL     1      -2.391  -8.782  -5.014  0.00  0.00    +0.126 C 
BRANCH  19  20
ATOM     20  C   UNL     1      -2.926 -10.193  -5.267  0.00  0.00    +0.038 C 
ATOM     21  C   UNL     1      -4.399 -10.113  -5.674  0.00  0.00    +0.024 C 
ATOM     22  C   UNL     1      -5.204  -9.456  -4.551  0.00  0.00    +0.002 C 
ATOM     23  C   UNL     1      -5.072 -10.289  -3.274  0.00  0.00    +0.000 C 
ATOM     24  C   UNL     1      -3.599 -10.368  -2.868  0.00  0.00    +0.002 C 
ATOM     25  C   UNL     1      -2.794 -11.025  -3.991  0.00  0.00    +0.024 C 
BRANCH  20  26
ATOM     26  N   UNL     1      -2.154 -10.823  -6.346  0.00  0.00    -0.291 NA
ATOM     27  C   UNL     1      -2.202 -10.014  -7.572  0.00  0.00    +0.113 C 
ATOM     28  C   UNL     1      -1.338 -10.676  -8.648  0.00  0.00    +0.175 C 
ATOM     29  O   UNL     1      -1.795 -12.014  -8.864  0.00  0.00    -0.377 OA
ATOM     30  C   UNL     1      -1.760 -12.830  -7.691  0.00  0.00    +0.175 C 
ATOM     31  C   UNL     1      -2.629 -12.190  -6.604  0.00  0.00    +0.113 C 
ENDBRANCH  20  26
ENDBRANCH  19  20
ENDBRANCH  17  19
ENDBRANCH   5  15
BRANCH   1  32
ATOM     32  C   UNL     1       1.071  -3.795  -2.545  0.00  0.00    +0.096 C 
BRANCH  32  33
ATOM     33  C   UNL     1       0.977  -2.268  -2.556  0.00  0.00    +0.009 C 
BRANCH  33  34
ATOM     34  C   UNL     1       0.179  -1.797  -1.338  0.00  0.00    +0.000 C 
BRANCH  34  35
ATOM     35  C   UNL     1       0.085  -0.270  -1.349  0.00  0.00    -0.000 C 
BRANCH  35  37
ATOM     36  C   UNL     1      -0.807   1.728  -0.143  0.00  0.00    +0.004 C 
ATOM     37  C   UNL     1      -0.713   0.201  -0.132  0.00  0.00    -0.003 C 
ENDBRANCH  35  37
ENDBRANCH  34  35
ENDBRANCH  33  34
ENDBRANCH  32  33
ENDBRANCH   1  32
TORSDOF 9
