REMARK  Name = ZINC40701995
REMARK  6 active torsions:
REMARK  status: ('A' for Active; 'I' for Inactive)
REMARK    1  A    between atoms: C_1  and  C_2
REMARK    2  A    between atoms: C_2  and  N_3
REMARK    3  A    between atoms: N_3  and  C_4
REMARK    4  A    between atoms: C_15  and  N_29
REMARK    5  A    between atoms: C_16  and  N_20
REMARK    6  A    between atoms: N_20  and  C_21
REMARK                            x       y       z     vdW  Elec       q    Type
REMARK                         _______ _______ _______ _____ _____    ______ ____
ROOT
ATOM      1  N   UNL     1       0.713  -0.606  -1.267  0.00  0.00    -0.283 N 
ATOM      2  C   UNL     1      -0.045  -0.902  -2.394  0.00  0.00    +0.151 A 
ATOM      3  C   UNL     1      -0.625  -2.164  -2.547  0.00  0.00    +0.104 A 
ATOM      4  C   UNL     1      -1.377  -2.408  -3.698  0.00  0.00    +0.126 A 
ATOM      5  N   UNL     1      -1.512  -1.437  -4.598  0.00  0.00    -0.333 N 
ATOM      6  C   UNL     1      -0.949  -0.260  -4.415  0.00  0.00    +0.200 A 
ATOM      7  N   UNL     1      -0.236   0.013  -3.341  0.00  0.00    -0.220 NA
ATOM      8  H   UNL     1      -2.033  -1.597  -5.400  0.00  0.00    +0.168 HD
ENDROOT
BRANCH   1   9
ATOM      9  C   UNL     1       2.101  -0.727  -1.310  0.00  0.00    +0.043 A 
ATOM     10  C   UNL     1       2.706  -1.921  -0.980  0.00  0.00    +0.024 A 
ATOM     11  C   UNL     1       4.091  -2.051  -1.019  0.00  0.00    +0.002 A 
ATOM     12  C   UNL     1       4.886  -1.007  -1.383  0.00  0.00    +0.008 A 
ATOM     13  C   UNL     1       4.309   0.228  -1.727  0.00  0.00    -0.016 A 
ATOM     14  C   UNL     1       2.899   0.371  -1.696  0.00  0.00    +0.003 A 
ATOM     15  C   UNL     1       2.324   1.603  -2.045  0.00  0.00    +0.010 A 
ATOM     16  C   UNL     1       3.125   2.641  -2.413  0.00  0.00    +0.001 A 
ATOM     17  C   UNL     1       4.511   2.499  -2.450  0.00  0.00    +0.001 A 
ATOM     18  C   UNL     1       5.104   1.323  -2.106  0.00  0.00    +0.008 A 
ENDBRANCH   1   9
BRANCH   3  19
ATOM     19  N   UNL     1      -0.455  -3.159  -1.572  0.00  0.00    -0.353 N 
ATOM     20  H   UNL     1       0.003  -2.952  -0.742  0.00  0.00    +0.143 HD
ATOM     21  H   UNL     1      -0.795  -4.054  -1.728  0.00  0.00    +0.143 HD
ENDBRANCH   3  19
BRANCH   1  23
ATOM     22  C   UNL     1       0.020   1.361   0.010  0.00  0.00    +0.025 C 
ATOM     23  C   UNL     1       0.053  -0.168  -0.035  0.00  0.00    +0.109 C 
ENDBRANCH   1  23
BRANCH   4  24
ATOM     24  N   UNL     1      -1.975  -3.647  -3.901  0.00  0.00    -0.298 N 
ATOM     25  H   UNL     1      -1.823  -4.368  -3.269  0.00  0.00    +0.154 HD
BRANCH  24  26
ATOM     26  C   UNL     1      -2.794  -3.854  -5.015  0.00  0.00    +0.052 A 
ATOM     27  C   UNL     1      -4.173  -3.917  -4.862  0.00  0.00    +0.025 A 
ATOM     28  C   UNL     1      -4.981  -4.122  -5.964  0.00  0.00    +0.003 A 
ATOM     29  C   UNL     1      -4.418  -4.263  -7.219  0.00  0.00    +0.021 A 
ATOM     30  C   UNL     1      -3.045  -4.201  -7.376  0.00  0.00    +0.061 A 
ATOM     31  C   UNL     1      -2.231  -3.990  -6.278  0.00  0.00    +0.080 A 
ATOM     32 CL   UNL     1      -0.508  -3.904  -6.475  0.00  0.00    -0.080 Cl
ATOM     33 CL   UNL     1      -2.343  -4.381  -8.954  0.00  0.00    -0.082 Cl
ENDBRANCH  24  26
ENDBRANCH   4  24
TORSDOF 5
