REMARK  Name = ZINC57845972
REMARK  9 active torsions:
REMARK  status: ('A' for Active; 'I' for Inactive)
REMARK    1  A    between atoms: C_1  and  C_2
REMARK    2  A    between atoms: C_4  and  C_9
REMARK    3  A    between atoms: C_9  and  C_22
REMARK    4  A    between atoms: N_12  and  C_16
REMARK    5  A    between atoms: C_16  and  C_17
REMARK    6  A    between atoms: C_17  and  O_18
REMARK    7  A    between atoms: O_18  and  C_19
REMARK    8  A    between atoms: C_19  and  C_20
REMARK    9  A    between atoms: C_20  and  N_21
REMARK                            x       y       z     vdW  Elec       q    Type
REMARK                         _______ _______ _______ _____ _____    ______ ____
ROOT
ATOM      1  C   UNL     1       0.028  -2.817  -2.516  0.00  0.00    +0.135 C 
ATOM      2  C   UNL     1      -0.755  -4.109  -2.396  0.00  0.00    +0.251 C 
ATOM      3  O   UNL     1      -0.517  -5.044  -1.661  0.00  0.00    -0.272 OA
ATOM      4  N   UNL     1      -1.771  -4.002  -3.274  0.00  0.00    -0.222 N 
ATOM      5  C   UNL     1      -1.740  -2.834  -3.926  0.00  0.00    +0.310 C 
ATOM      6  O   UNL     1      -2.553  -2.509  -4.769  0.00  0.00    -0.252 OA
ATOM      7  N   UNL     1      -0.707  -2.061  -3.545  0.00  0.00    -0.281 N 
ATOM      8  C   UNL     1       1.462  -3.093  -2.973  0.00  0.00    +0.047 C 
ATOM      9  H   UNL     1      -0.489  -1.178  -3.882  0.00  0.00    +0.152 HD
ENDROOT
BRANCH   1  13
ATOM     10  C   UNL     1      -0.018   1.503   0.010  0.00  0.00    +0.045 C 
ATOM     11  C   UNL     1       0.002  -0.004   0.002  0.00  0.00    -0.032 A 
ATOM     12  C   UNL     1       0.006  -0.689  -1.199  0.00  0.00    +0.011 A 
ATOM     13  C   UNL     1       0.025  -2.071  -1.207  0.00  0.00    -0.015 A 
ATOM     14  C   UNL     1       0.040  -2.769  -0.013  0.00  0.00    +0.007 A 
ATOM     15  C   UNL     1       0.036  -2.086   1.188  0.00  0.00    +0.020 A 
ATOM     16  C   UNL     1       0.023  -0.702   1.196  0.00  0.00    +0.044 A 
ATOM     17 CL   UNL     1       0.025   0.157   2.704  0.00  0.00    -0.083 Cl
ENDBRANCH   1  13
BRANCH   4  18
ATOM     18  C   UNL     1      -2.785  -5.038  -3.490  0.00  0.00    +0.146 C 
BRANCH  18  19
ATOM     19  C   UNL     1      -3.962  -4.805  -2.540  0.00  0.00    +0.179 C 
BRANCH  19  20
ATOM     20  O   UNL     1      -4.604  -3.572  -2.871  0.00  0.00    -0.380 OA
BRANCH  20  21
ATOM     21  C   UNL     1      -5.723  -3.258  -2.039  0.00  0.00    +0.140 C 
BRANCH  21  22
ATOM     22  C   UNL     1      -6.329  -1.925  -2.481  0.00  0.00    -0.058 C 
BRANCH  22  23
ATOM     23  N   UNL     1      -6.879  -2.063  -3.836  0.00  0.00    +0.380 N 
ATOM     24  H   UNL     1      -7.279  -1.184  -4.128  0.00  0.00    -0.090 HD
ATOM     25  H   UNL     1      -6.142  -2.325  -4.473  0.00  0.00    -0.090 HD
ATOM     26  H   UNL     1      -7.594  -2.775  -3.838  0.00  0.00    -0.090 HD
ENDBRANCH  22  23
ENDBRANCH  21  22
ENDBRANCH  20  21
ENDBRANCH  19  20
ENDBRANCH  18  19
ENDBRANCH   4  18
TORSDOF 7
