REMARK  Name = ZINC36824722
REMARK  11 active torsions:
REMARK  status: ('A' for Active; 'I' for Inactive)
REMARK    1  A    between atoms: C_1  and  C_2
REMARK    2  A    between atoms: C_2  and  O_3
REMARK    3  A    between atoms: O_3  and  C_4
REMARK    4  A    between atoms: C_6  and  C_19
REMARK    5  A    between atoms: C_9  and  O_10
REMARK    6  A    between atoms: O_10  and  C_11
REMARK    7  A    between atoms: C_11  and  C_12
REMARK    8  A    between atoms: C_12  and  C_14
REMARK    9  A    between atoms: C_12  and  C_15
REMARK   10  A    between atoms: C_19  and  N_20
REMARK   11  A    between atoms: N_20  and  C_21
REMARK                            x       y       z     vdW  Elec       q    Type
REMARK                         _______ _______ _______ _____ _____    ______ ____
ROOT
ATOM      1  C   UNL     1      -1.498  -1.849   0.006  0.00  0.00    +0.163 A 
ATOM      2  C   UNL     1      -0.389  -2.680  -0.003  0.00  0.00    +0.051 A 
ATOM      3  C   UNL     1      -0.553  -4.052  -0.009  0.00  0.00    -0.060 A 
ATOM      4  C   UNL     1      -1.822  -4.600  -0.006  0.00  0.00    +0.021 A 
ATOM      5  C   UNL     1      -2.934  -3.777   0.003  0.00  0.00    +0.063 A 
ATOM      6  C   UNL     1      -2.776  -2.400   0.016  0.00  0.00    +0.176 A 
ATOM      7 BR   UNL     1      -4.668  -4.531   0.006  0.00  0.00    -0.046 Br
ENDROOT
BRANCH   1   8
ATOM      8  O   UNL     1      -1.339  -0.499   0.012  0.00  0.00    -0.489 OA
BRANCH   8  10
ATOM      9  C   UNL     1      -0.019   1.526   0.010  0.00  0.00    +0.048 C 
ATOM     10  C   UNL     1       0.002  -0.004   0.002  0.00  0.00    +0.226 C 
ENDBRANCH   8  10
ENDBRANCH   1   8
BRANCH   6  11
ATOM     11  O   UNL     1      -3.868  -1.589   0.030  0.00  0.00    -0.486 OA
BRANCH  11  12
ATOM     12  C   UNL     1      -4.401  -1.195  -1.236  0.00  0.00    +0.241 C 
BRANCH  12  13
ATOM     13  C   UNL     1      -5.616  -0.292  -1.019  0.00  0.00    +0.109 C 
ATOM     14  C   UNL     1      -5.172   1.008  -0.345  0.00  0.00    +0.020 C 
BRANCH  13  15
ATOM     15  C   UNL     1      -6.252   0.024  -2.348  0.00  0.00    +0.217 C 
ATOM     16  O   UNL     1      -5.779  -0.430  -3.369  0.00  0.00    -0.276 OA
ATOM     17  N   UNL     1      -7.345   0.809  -2.403  0.00  0.00    -0.329 N 
ATOM     18  H   UNL     1      -7.723   1.172  -1.587  0.00  0.00    +0.145 HD
ATOM     19  H   UNL     1      -7.754   1.012  -3.259  0.00  0.00    +0.145 HD
ENDBRANCH  13  15
ENDBRANCH  12  13
ENDBRANCH  11  12
ENDBRANCH   6  11
BRANCH   3  20
ATOM     20  C   UNL     1       0.655  -4.954  -0.020  0.00  0.00    -0.047 C 
BRANCH  20  21
ATOM     21  N   UNL     1       1.054  -5.253   1.362  0.00  0.00    +0.380 N 
ATOM     22  C   UNL     1       2.232  -6.132   1.351  0.00  0.00    -0.100 C 
ATOM     23  H   UNL     1       1.280  -4.394   1.841  0.00  0.00    -0.086 HD
ATOM     24  H   UNL     1       0.294  -5.715   1.839  0.00  0.00    -0.086 HD
ENDBRANCH  20  21
ENDBRANCH   3  20
TORSDOF 8
