REMARK  Name = ZINC15947394
REMARK  8 active torsions:
REMARK  status: ('A' for Active; 'I' for Inactive)
REMARK    1  A    between atoms: C_1  and  C_2
REMARK    2  A    between atoms: C_2  and  C_3
REMARK    3  A    between atoms: C_2  and  N_4
REMARK    4  A    between atoms: C_12  and  O_27
REMARK    5  A    between atoms: C_14  and  C_17
REMARK    6  A    between atoms: C_21  and  O_24
REMARK    7  A    between atoms: C_22  and  O_23
REMARK    8  A    between atoms: O_24  and  C_25
REMARK                            x       y       z     vdW  Elec       q    Type
REMARK                         _______ _______ _______ _____ _____    ______ ____
ROOT
ATOM      1  N   UNL     1      -1.442  -0.249   0.106  0.00  0.00    +0.384 N 
ATOM      2  C   UNL     1      -1.680  -1.680   0.337  0.00  0.00    -0.073 C 
ATOM      3  C   UNL     1      -3.135  -1.914   0.758  0.00  0.00    +0.018 C 
ATOM      4  C   UNL     1      -4.034  -1.238  -0.269  0.00  0.00    -0.027 A 
ATOM      5  C   UNL     1      -3.521  -0.306  -1.108  0.00  0.00    -0.021 A 
ATOM      6  S   UNL     1      -4.891   0.200  -2.109  0.00  0.00    -0.080 S 
ATOM      7  C   UNL     1      -6.075  -0.765  -1.461  0.00  0.00    +0.080 A 
ATOM      8  C   UNL     1      -5.447  -1.501  -0.448  0.00  0.00    +0.067 A 
ATOM      9  C   UNL     1      -6.285  -2.453   0.325  0.00  0.00    +0.220 C 
ATOM     10  N   UNL     1      -7.474  -2.730  -0.139  0.00  0.00    -0.223 NA
ATOM     11  C   UNL     1      -8.010  -2.219  -1.394  0.00  0.00    +0.227 C 
ATOM     12  N   UNL     1      -7.411  -0.921  -1.753  0.00  0.00    -0.313 N 
ATOM     13  C   UNL     1      -2.103   0.167  -1.145  0.00  0.00    -0.035 C 
ATOM     14  H   UNL     1      -7.929  -0.216  -2.171  0.00  0.00    +0.149 HD
ATOM     15  H   UNL     1      -1.819   0.281   0.878  0.00  0.00    -0.081 HD
ENDROOT
BRANCH  11  16
ATOM     16  C   UNL     1      -7.724  -3.212  -2.491  0.00  0.00    +0.041 A 
ATOM     17  C   UNL     1      -7.435  -2.766  -3.768  0.00  0.00    +0.026 A 
ATOM     18  C   UNL     1      -7.171  -3.675  -4.777  0.00  0.00    +0.022 A 
ATOM     19  C   UNL     1      -7.195  -5.032  -4.513  0.00  0.00    +0.064 A 
ATOM     20  C   UNL     1      -7.483  -5.484  -3.236  0.00  0.00    +0.163 A 
ATOM     21  C   UNL     1      -7.743  -4.570  -2.219  0.00  0.00    +0.165 A 
ATOM     22 BR   UNL     1      -6.779  -3.059  -6.522  0.00  0.00    -0.050 Br
BRANCH  21  23
ATOM     23  O   UNL     1      -8.021  -5.009  -0.962  0.00  0.00    -0.503 OA
ATOM     24  H   UNL     1      -8.961  -5.163  -0.798  0.00  0.00    +0.292 HD
ENDBRANCH  21  23
BRANCH  20  25
ATOM     25  O   UNL     1      -7.506  -6.819  -2.974  0.00  0.00    -0.491 OA
ATOM     26  C   UNL     1      -7.225  -7.699  -4.064  0.00  0.00    +0.277 C 
ENDBRANCH  20  25
ENDBRANCH  11  16
BRANCH   1  28
ATOM     27  C   UNL     1       0.246   1.468  -0.337  0.00  0.00    -0.014 C 
ATOM     28  C   UNL     1       0.002  -0.004   0.002  0.00  0.00    -0.074 C 
ATOM     29  C   UNL     1       0.674  -0.339   1.335  0.00  0.00    -0.014 C 
ENDBRANCH   1  28
BRANCH   9  30
ATOM     30  O   UNL     1      -5.832  -3.014   1.470  0.00  0.00    -0.492 OA
ATOM     31  H   UNL     1      -6.462  -3.617   1.888  0.00  0.00    +0.294 HD
ENDBRANCH   9  30
TORSDOF 5
