REMARK  Name = ZINC13265438
REMARK  5 active torsions:
REMARK  status: ('A' for Active; 'I' for Inactive)
REMARK    1  A    between atoms: C_3  and  C_21
REMARK    2  A    between atoms: C_5  and  N_7
REMARK    3  A    between atoms: N_7  and  S_8
REMARK    4  A    between atoms: S_8  and  C_11
REMARK    5  A    between atoms: C_13  and  C_19
REMARK                            x       y       z     vdW  Elec       q    Type
REMARK                         _______ _______ _______ _____ _____    ______ ____
ROOT
ATOM      1  C   UNL     1       0.479   9.955   1.357  0.00  0.00    +0.003 A 
ATOM      2  C   UNL     1       1.165   9.910   2.553  0.00  0.00    +0.012 A 
ATOM      3  C   UNL     1       0.962   8.848   3.435  0.00  0.00    +0.021 A 
ATOM      4  C   UNL     1       0.060   7.837   3.105  0.00  0.00    +0.036 A 
ATOM      5  C   UNL     1      -0.621   7.888   1.898  0.00  0.00    +0.049 A 
ATOM      6  C   UNL     1      -0.411   8.951   1.027  0.00  0.00    +0.024 A 
ENDROOT
BRANCH   3   7
ATOM      7  C   UNL     1       1.696   8.797   4.718  0.00  0.00    +0.164 A 
ATOM      8  N   UNL     1       1.376   8.086   5.778  0.00  0.00    -0.129 NA
ATOM      9  N   UNL     1       2.243   8.279   6.710  0.00  0.00    -0.134 NA
ATOM     10  C   UNL     1       3.153   9.119   6.303  0.00  0.00    +0.134 A 
ATOM     11  N   UNL     1       2.833   9.484   5.033  0.00  0.00    -0.311 N 
ATOM     12  C   UNL     1       3.559  10.433   4.190  0.00  0.00    +0.125 C 
ATOM     13  C   UNL     1       5.037  10.440   4.591  0.00  0.00    +0.022 C 
ATOM     14  C   UNL     1       5.268  11.475   5.691  0.00  0.00    +0.002 C 
ATOM     15  C   UNL     1       4.454  11.127   6.934  0.00  0.00    +0.008 C 
ATOM     16  C   UNL     1       4.353   9.605   7.074  0.00  0.00    +0.076 C 
ENDBRANCH   3   7
BRANCH   5  17
ATOM     17  N   UNL     1      -1.522   6.875   1.561  0.00  0.00    -0.216 N 
ATOM     18  H   UNL     1      -2.169   6.565   2.213  0.00  0.00    +0.174 HD
BRANCH  17  19
ATOM     19  S   UNL     1      -1.484   6.205   0.047  0.00  0.00    +0.074 S 
ATOM     20  O   UNL     1      -1.505   7.284  -0.876  0.00  0.00    -0.150 OA
ATOM     21  O   UNL     1      -2.462   5.173   0.036  0.00  0.00    -0.150 OA
BRANCH  19  22
ATOM     22  C   UNL     1       0.081   5.416  -0.135  0.00  0.00    +0.128 A 
ATOM     23  C   UNL     1       0.969   5.863  -1.091  0.00  0.00    +0.047 A 
ATOM     24  C   UNL     1       2.208   5.235  -1.237  0.00  0.00    +0.083 A 
ATOM     25  C   UNL     1       2.543   4.162  -0.405  0.00  0.00    +0.057 A 
ATOM     26  C   UNL     1       1.647   3.728   0.551  0.00  0.00    +0.042 A 
ATOM     27  C   UNL     1       0.419   4.353   0.686  0.00  0.00    +0.069 A 
ATOM     28 CL   UNL     1      -0.703   3.801   1.891  0.00  0.00    -0.081 Cl
ATOM     29 CL   UNL     1       4.083   3.378  -0.575  0.00  0.00    -0.083 Cl
BRANCH  24  30
ATOM     30  C   UNL     1       3.160   5.705  -2.261  0.00  0.00    +0.388 C 
ATOM     31  O   UNL     1       4.239   5.160  -2.383  0.00  0.00    -0.241 OA
ATOM     32  O   UNL     1       2.834   6.739  -3.061  0.00  0.00    -0.241 OA
ENDBRANCH  24  30
ENDBRANCH  19  22
ENDBRANCH  17  19
ENDBRANCH   5  17
TORSDOF 5
