REMARK  Name = ZINC67381780
REMARK  9 active torsions:
REMARK  status: ('A' for Active; 'I' for Inactive)
REMARK    1  A    between atoms: C_1  and  N_2
REMARK    2  A    between atoms: N_2  and  C_3
REMARK    3  A    between atoms: N_2  and  C_4
REMARK    4  A    between atoms: C_4  and  C_9
REMARK    5  A    between atoms: C_9  and  N_10
REMARK    6  A    between atoms: N_13  and  N_14
REMARK    7  A    between atoms: C_15  and  C_17
REMARK    8  A    between atoms: C_17  and  C_18
REMARK    9  A    between atoms: C_18  and  C_19
REMARK                            x       y       z     vdW  Elec       q    Type
REMARK                         _______ _______ _______ _____ _____    ______ ____
ROOT
ATOM      1  N   UNL     1      -2.411   1.335   0.974  0.00  0.00    -0.300 N 
ATOM      2  C   UNL     1      -3.220   1.980   1.837  0.00  0.00    +0.316 C 
ATOM      3  O   UNL     1      -3.763   1.367   2.736  0.00  0.00    -0.251 OA
ATOM      4  N   UNL     1      -3.429   3.305   1.704  0.00  0.00    -0.218 N 
ATOM      5  H   UNL     1      -1.978   1.825   0.257  0.00  0.00    +0.150 HD
ATOM      6  H   UNL     1      -4.012   3.769   2.325  0.00  0.00    +0.174 HD
ENDROOT
BRANCH   4   7
ATOM      7  N   UNL     1      -2.804   4.012   0.668  0.00  0.00    -0.233 N 
ATOM      8  C   UNL     1      -3.013   5.337   0.534  0.00  0.00    +0.229 C 
ATOM      9  O   UNL     1      -3.742   5.917   1.311  0.00  0.00    -0.274 OA
ATOM     10  H   UNL     1      -2.222   3.547   0.047  0.00  0.00    +0.173 HD
BRANCH   8  11
ATOM     11  C   UNL     1      -2.341   6.097  -0.580  0.00  0.00    +0.097 C 
BRANCH  11  12
ATOM     12  C   UNL     1      -2.743   7.571  -0.506  0.00  0.00    +0.013 C 
BRANCH  12  13
ATOM     13  C   UNL     1      -2.061   8.343  -1.637  0.00  0.00    -0.011 C 
ATOM     14  C   UNL     1      -2.589   7.846  -2.985  0.00  0.00    +0.003 C 
ATOM     15  C   UNL     1      -1.907   8.618  -4.116  0.00  0.00    +0.000 C 
ATOM     16  C   UNL     1      -2.208  10.111  -3.969  0.00  0.00    +0.000 C 
ATOM     17  C   UNL     1      -1.679  10.607  -2.622  0.00  0.00    +0.000 C 
ATOM     18  C   UNL     1      -2.362   9.836  -1.490  0.00  0.00    +0.003 C 
ENDBRANCH  12  13
ENDBRANCH  11  12
ENDBRANCH   8  11
ENDBRANCH   4   7
BRANCH   1  19
ATOM     19  C   UNL     1      -2.184  -0.105   1.120  0.00  0.00    +0.094 C 
BRANCH  19  20
ATOM     20  C   UNL     1      -1.326  -0.606  -0.044  0.00  0.00    -0.050 C 
ATOM     21  C   UNL     1      -2.083  -0.423  -1.376  0.00  0.00    -0.010 C 
ATOM     22  C   UNL     1      -1.699  -1.674  -2.206  0.00  0.00    -0.001 C 
ATOM     23  C   UNL     1      -1.666  -2.795  -1.138  0.00  0.00    -0.001 C 
ATOM     24  C   UNL     1      -1.061  -2.114   0.107  0.00  0.00    -0.010 C 
BRANCH  20  26
ATOM     25  C   UNL     1       0.690  -0.116   1.160  0.00  0.00    -0.096 C 
ATOM     26  N   UNL     1      -0.054   0.127  -0.084  0.00  0.00    +0.381 N 
ATOM     27  C   UNL     1       0.742  -0.335  -1.228  0.00  0.00    -0.096 C 
ATOM     28  H   UNL     1      -0.238   1.115  -0.178  0.00  0.00    -0.082 HD
ENDBRANCH  20  26
ENDBRANCH  19  20
ENDBRANCH   1  19
TORSDOF 7
