REMARK  Name = ZINC65789598
REMARK  9 active torsions:
REMARK  status: ('A' for Active; 'I' for Inactive)
REMARK    1  A    between atoms: C_1  and  C_2
REMARK    2  A    between atoms: C_2  and  N_3
REMARK    3  A    between atoms: N_3  and  C_4
REMARK    4  A    between atoms: C_4  and  C_5
REMARK    5  A    between atoms: C_10  and  C_11
REMARK    6  A    between atoms: N_14  and  C_15
REMARK    7  A    between atoms: C_19  and  C_21
REMARK    8  A    between atoms: C_21  and  N_22
REMARK    9  A    between atoms: C_26  and  C_27
REMARK                            x       y       z     vdW  Elec       q    Type
REMARK                         _______ _______ _______ _____ _____    ______ ____
ROOT
ATOM      1  C   UNL     1      -2.087  -0.705  -3.497  0.00  0.00    +0.035 A 
ATOM      2  C   UNL     1      -1.469  -1.472  -4.477  0.00  0.00    +0.023 A 
ATOM      3  C   UNL     1      -2.165  -1.825  -5.616  0.00  0.00    +0.002 A 
ATOM      4  C   UNL     1      -3.475  -1.414  -5.783  0.00  0.00    +0.002 A 
ATOM      5  C   UNL     1      -4.093  -0.650  -4.810  0.00  0.00    -0.062 A 
ATOM      6  C   UNL     1      -3.404  -0.300  -3.665  0.00  0.00    +0.025 A 
ENDROOT
BRANCH   1  10
ATOM      7  N   UNL     1       0.635   0.154  -1.281  0.00  0.00    -0.281 N 
ATOM      8  C   UNL     1      -0.064  -0.084  -2.409  0.00  0.00    +0.307 C 
ATOM      9  O   UNL     1       0.497  -0.061  -3.488  0.00  0.00    -0.252 OA
ATOM     10  N   UNL     1      -1.384  -0.346  -2.341  0.00  0.00    -0.269 N 
ATOM     11  H   UNL     1      -1.847  -0.287  -1.491  0.00  0.00    +0.156 HD
BRANCH   7  13
ATOM     12  C   UNL     1      -0.633   1.357   0.430  0.00  0.00    +0.024 C 
ATOM     13  C   UNL     1      -0.014   0.017   0.025  0.00  0.00    +0.106 C 
ENDBRANCH   7  13
BRANCH   7  14
ATOM     14  C   UNL     1       2.043   0.550  -1.362  0.00  0.00    +0.144 C 
BRANCH  14  15
ATOM     15  C   UNL     1       2.917  -0.669  -1.218  0.00  0.00    -0.027 A 
ATOM     16  C   UNL     1       2.344  -1.925  -1.146  0.00  0.00    +0.005 A 
ATOM     17  C   UNL     1       3.145  -3.044  -1.014  0.00  0.00    +0.000 A 
ATOM     18  C   UNL     1       4.519  -2.906  -0.954  0.00  0.00    +0.000 A 
ATOM     19  C   UNL     1       5.092  -1.651  -1.026  0.00  0.00    +0.003 A 
ATOM     20  C   UNL     1       4.291  -0.532  -1.163  0.00  0.00    -0.046 A 
ATOM     21  C   UNL     1       4.915   0.837  -1.247  0.00  0.00    +0.044 C 
ENDBRANCH  14  15
ENDBRANCH   7  14
ENDBRANCH   1  10
BRANCH   5  22
ATOM     22  C   UNL     1      -5.520  -0.205  -4.995  0.00  0.00    -0.042 C 
BRANCH  22  23
ATOM     23  N   UNL     1      -6.426  -1.214  -4.430  0.00  0.00    +0.390 N 
ATOM     24  C   UNL     1      -6.301  -1.242  -2.950  0.00  0.00    -0.077 C 
ATOM     25  C   UNL     1      -7.638  -1.880  -2.494  0.00  0.00    -0.020 C 
ATOM     26  C   UNL     1      -8.662  -1.284  -3.487  0.00  0.00    -0.008 C 
ATOM     27  C   UNL     1      -7.832  -0.851  -4.710  0.00  0.00    +0.019 C 
ATOM     28  H   UNL     1      -6.218  -2.123  -4.815  0.00  0.00    -0.080 HD
BRANCH  27  29
ATOM     29  C   UNL     1      -8.314  -1.576  -5.940  0.00  0.00    +0.197 C 
ATOM     30  O   UNL     1      -7.568  -2.325  -6.535  0.00  0.00    -0.278 OA
ATOM     31  N   UNL     1      -9.575  -1.392  -6.380  0.00  0.00    -0.331 N 
ATOM     32  H   UNL     1     -10.172  -0.793  -5.904  0.00  0.00    +0.145 HD
ATOM     33  H   UNL     1      -9.885  -1.859  -7.171  0.00  0.00    +0.145 HD
ENDBRANCH  27  29
ENDBRANCH  22  23
ENDBRANCH   5  22
TORSDOF 7
