REMARK  Name = ZINC48250776
REMARK  6 active torsions:
REMARK  status: ('A' for Active; 'I' for Inactive)
REMARK    1  A    between atoms: C_1  and  C_2
REMARK    2  A    between atoms: C_8  and  O_14
REMARK    3  A    between atoms: O_14  and  C_15
REMARK    4  A    between atoms: C_15  and  C_17
REMARK    5  A    between atoms: C_15  and  C_18
REMARK    6  A    between atoms: C_18  and  C_19
REMARK                            x       y       z     vdW  Elec       q    Type
REMARK                         _______ _______ _______ _____ _____    ______ ____
ROOT
ATOM      1  C   UNL     1      -0.052   1.496  -0.346  0.00  0.00    +0.073 C 
ATOM      2  C   UNL     1      -0.025  -0.010  -0.281  0.00  0.00    +0.076 A 
ATOM      3  N   UNL     1      -1.009  -0.838  -0.061  0.00  0.00    -0.243 NA
ATOM      4  C   UNL     1      -0.845  -2.178  -0.030  0.00  0.00    +0.093 A 
ATOM      5  C   UNL     1       0.473  -2.635  -0.253  0.00  0.00    +0.044 A 
ATOM      6  S   UNL     1       1.362  -1.117  -0.494  0.00  0.00    -0.072 S 
ATOM      7  C   UNL     1       0.797  -3.974  -0.251  0.00  0.00    +0.063 A 
ATOM      8  C   UNL     1      -0.152  -4.928  -0.032  0.00  0.00    +0.130 A 
ATOM      9  C   UNL     1      -1.507  -4.551   0.201  0.00  0.00    +0.033 A 
ATOM     10  C   UNL     1      -1.810  -3.183   0.195  0.00  0.00    +0.049 A 
ATOM     11  S   UNL     1      -3.555  -3.132   0.514  0.00  0.00    -0.094 S 
ATOM     12  C   UNL     1      -3.858  -4.883   0.651  0.00  0.00    +0.046 A 
ATOM     13  C   UNL     1      -2.648  -5.424   0.452  0.00  0.00    +0.020 A 
ENDROOT
BRANCH   8  14
ATOM     14  O   UNL     1       0.194  -6.243  -0.036  0.00  0.00    -0.488 OA
BRANCH  14  15
ATOM     15  C   UNL     1       1.585  -6.547  -0.156  0.00  0.00    +0.177 C 
ATOM     16  C   UNL     1       1.980  -6.555  -1.634  0.00  0.00    +0.052 C 
BRANCH  15  17
ATOM     17  C   UNL     1       1.860  -7.923   0.454  0.00  0.00    +0.112 C 
BRANCH  17  18
ATOM     18  C   UNL     1       1.588  -7.880   1.935  0.00  0.00    +0.066 C 
ATOM     19  N   UNL     1       2.556  -7.558   2.776  0.00  0.00    -0.391 N 
ATOM     20  N   UNL     1       0.381  -8.163   2.394  0.00  0.00    -0.348 N 
ATOM     21  H   UNL     1       3.441  -7.350   2.440  0.00  0.00    +0.157 HD
ATOM     22  H   UNL     1      -0.329  -8.399   1.777  0.00  0.00    +0.143 HD
ATOM     23  H   UNL     1       0.205  -8.136   3.347  0.00  0.00    +0.143 HD
ATOM     24  H   UNL     1       2.380  -7.531   3.730  0.00  0.00    +0.157 HD
ENDBRANCH  17  18
ENDBRANCH  15  17
ENDBRANCH  14  15
ENDBRANCH   8  14
TORSDOF 4
