REMARK  Name = ZINC36276813
REMARK  9 active torsions:
REMARK  status: ('A' for Active; 'I' for Inactive)
REMARK    1  A    between atoms: C_1  and  C_2
REMARK    2  A    between atoms: C_10  and  C_11
REMARK    3  A    between atoms: C_11  and  O_13
REMARK    4  A    between atoms: O_13  and  C_14
REMARK    5  A    between atoms: C_14  and  C_15
REMARK    6  A    between atoms: C_14  and  C_16
REMARK    7  A    between atoms: N_18  and  C_19
REMARK    8  A    between atoms: C_19  and  C_20
REMARK    9  A    between atoms: C_20  and  N_21
REMARK                            x       y       z     vdW  Elec       q    Type
REMARK                         _______ _______ _______ _____ _____    ______ ____
ROOT
ATOM      1  C   UNL     1      -0.081   1.502   0.015  0.00  0.00    +0.046 C 
ATOM      2  C   UNL     1      -0.055  -0.005   0.007  0.00  0.00    -0.017 A 
ATOM      3  C   UNL     1      -0.128  -0.701  -1.206  0.00  0.00    +0.051 A 
ATOM      4  C   UNL     1      -0.231  -0.191  -2.535  0.00  0.00    +0.132 A 
ATOM      5  N   UNL     1      -0.288  -1.038  -3.549  0.00  0.00    -0.202 NA
ATOM      6  C   UNL     1      -0.252  -2.348  -3.377  0.00  0.00    +0.225 A 
ATOM      7  N   UNL     1      -0.157  -2.883  -2.173  0.00  0.00    -0.210 NA
ATOM      8  C   UNL     1      -0.095  -2.114  -1.105  0.00  0.00    +0.116 A 
ATOM      9  S   UNL     1       0.034  -2.395   0.642  0.00  0.00    -0.062 S 
ATOM     10  C   UNL     1       0.046  -0.693   1.178  0.00  0.00    +0.102 A 
ATOM     11 CL   UNL     1      -0.332  -3.389  -4.764  0.00  0.00    -0.041 Cl
ATOM     12  N   UNL     1      -0.272   1.170  -2.760  0.00  0.00    -0.330 N 
ATOM     13  H   UNL     1      -0.139   1.787  -2.023  0.00  0.00    +0.147 HD
ENDROOT
BRANCH  10  14
ATOM     14  C   UNL     1       0.139  -0.165   2.543  0.00  0.00    +0.346 C 
ATOM     15  O   UNL     1       0.131   1.036   2.732  0.00  0.00    -0.244 OA
BRANCH  14  16
ATOM     16  O   UNL     1       0.232  -1.012   3.588  0.00  0.00    -0.458 OA
BRANCH  16  17
ATOM     17  C   UNL     1       0.320  -0.429   4.890  0.00  0.00    +0.171 C 
ATOM     18  C   UNL     1      -1.088  -0.247   5.462  0.00  0.00    +0.052 C 
ATOM     19  C   UNL     1       1.129  -1.348   5.808  0.00  0.00    +0.052 C 
ENDBRANCH  16  17
ENDBRANCH  14  16
ENDBRANCH  10  14
BRANCH  12  20
ATOM     20  C   UNL     1      -0.516   1.683  -4.110  0.00  0.00    +0.083 C 
BRANCH  20  21
ATOM     21  C   UNL     1      -0.512   3.213  -4.083  0.00  0.00    -0.068 C 
BRANCH  21  22
ATOM     22  N   UNL     1      -0.757   3.727  -5.437  0.00  0.00    +0.379 N 
ATOM     23  H   UNL     1      -1.653   3.399  -5.764  0.00  0.00    -0.090 HD
ATOM     24  H   UNL     1      -0.754   4.736  -5.419  0.00  0.00    -0.090 HD
ATOM     25  H   UNL     1      -0.032   3.400  -6.057  0.00  0.00    -0.090 HD
ENDBRANCH  21  22
ENDBRANCH  20  21
ENDBRANCH  12  20
TORSDOF 6
