REMARK  Name = ZINC12603493
REMARK  13 active torsions:
REMARK  status: ('A' for Active; 'I' for Inactive)
REMARK    1  A    between atoms: C_1  and  C_2
REMARK    2  A    between atoms: C_2  and  C_3
REMARK    3  A    between atoms: C_2  and  N_4
REMARK    4  A    between atoms: N_7  and  C_8
REMARK    5  A    between atoms: C_8  and  C_9
REMARK    6  A    between atoms: C_11  and  O_35
REMARK    7  A    between atoms: C_13  and  O_34
REMARK    8  A    between atoms: C_15  and  C_18
REMARK    9  A    between atoms: C_18  and  C_19
REMARK   10  A    between atoms: C_21  and  C_24
REMARK   11  A    between atoms: C_27  and  C_30
REMARK   12  A    between atoms: C_30  and  O_32
REMARK   13  A    between atoms: O_32  and  C_33
REMARK                            x       y       z     vdW  Elec       q    Type
REMARK                         _______ _______ _______ _____ _____    ______ ____
ROOT
ATOM      1  C   UNL     1      -1.979   2.408  -0.556  0.00  0.00    +0.167 C 
ATOM      2  C   UNL     1      -0.811   1.623  -1.201  0.00  0.00    +0.176 C 
ATOM      3  C   UNL     1      -0.013   1.086   0.008  0.00  0.00    +0.175 C 
ATOM      4  C   UNL     1      -0.788   1.610   1.237  0.00  0.00    +0.159 C 
ATOM      5  O   UNL     1      -2.133   1.830   0.759  0.00  0.00    -0.366 OA
ENDROOT
BRANCH   3   6
ATOM      6  O   UNL     1       1.319   1.603  -0.002  0.00  0.00    -0.387 OA
ATOM      7  H   UNL     1       1.842   1.330  -0.768  0.00  0.00    +0.210 HD
ENDBRANCH   3   6
BRANCH   2   8
ATOM      8  O   UNL     1       0.002   2.491  -1.992  0.00  0.00    -0.387 OA
ATOM      9  H   UNL     1       0.783   2.063  -2.369  0.00  0.00    +0.210 HD
ENDBRANCH   2   8
BRANCH   1  10
ATOM     10  C   UNL     1      -3.261   2.226  -1.371  0.00  0.00    +0.140 C 
BRANCH  10  14
ATOM     11  N   UNL     1      -6.560   3.733  -0.766  0.00  0.00    -0.297 N 
ATOM     12  C   UNL     1      -5.569   3.008  -1.320  0.00  0.00    +0.300 C 
ATOM     13  O   UNL     1      -5.783   2.347  -2.318  0.00  0.00    -0.253 OA
ATOM     14  N   UNL     1      -4.339   3.014  -0.768  0.00  0.00    -0.297 N 
ATOM     15  H   UNL     1      -6.389   4.260   0.030  0.00  0.00    +0.150 HD
ATOM     16  H   UNL     1      -4.168   3.542   0.028  0.00  0.00    +0.150 HD
BRANCH  11  18
ATOM     17  C   UNL     1      -8.684   2.522  -0.844  0.00  0.00    +0.027 C 
ATOM     18  C   UNL     1      -7.896   3.726  -1.366  0.00  0.00    +0.068 C 
ATOM     19  C   UNL     1      -8.630   5.016  -0.993  0.00  0.00    +0.027 C 
ENDBRANCH  11  18
ENDBRANCH  10  14
ENDBRANCH   1  10
BRANCH   4  20
ATOM     20  C   UNL     1      -0.784   0.565   2.354  0.00  0.00    +0.133 C 
BRANCH  20  21
ATOM     21  C   UNL     1      -1.438   1.141   3.584  0.00  0.00    +0.230 A 
ATOM     22  N   UNL     1      -2.711   1.088   3.886  0.00  0.00    -0.191 NA
ATOM     23  C   UNL     1      -2.830   1.729   5.071  0.00  0.00    +0.202 A 
ATOM     24  N   UNL     1      -1.636   2.138   5.410  0.00  0.00    -0.056 NA
ATOM     25  O   UNL     1      -0.827   1.809   4.568  0.00  0.00    -0.338 OA
BRANCH  23  26
ATOM     26  C   UNL     1      -4.084   1.936   5.838  0.00  0.00    +0.022 A 
ATOM     27  C   UNL     1      -5.292   1.445   5.344  0.00  0.00    +0.012 A 
ATOM     28  C   UNL     1      -6.455   1.632   6.057  0.00  0.00    +0.015 A 
ATOM     29  C   UNL     1      -6.426   2.324   7.271  0.00  0.00    +0.059 A 
ATOM     30  C   UNL     1      -5.216   2.821   7.761  0.00  0.00    +0.015 A 
ATOM     31  C   UNL     1      -4.053   2.627   7.049  0.00  0.00    +0.012 A 
BRANCH  29  32
ATOM     32  C   UNL     1      -7.673   2.530   8.034  0.00  0.00    +0.339 C 
ATOM     33  O   UNL     1      -7.647   3.132   9.089  0.00  0.00    -0.245 OA
BRANCH  32  34
ATOM     34  O   UNL     1      -8.840   2.052   7.560  0.00  0.00    -0.464 OA
ATOM     35  C   UNL     1     -10.026   2.291   8.363  0.00  0.00    +0.280 C 
ENDBRANCH  32  34
ENDBRANCH  29  32
ENDBRANCH  23  26
ENDBRANCH  20  21
ENDBRANCH   4  20
TORSDOF 10
