REMARK  Name = ZINC21236386
REMARK  12 active torsions:
REMARK  status: ('A' for Active; 'I' for Inactive)
REMARK    1  A    between atoms: C_1  and  C_2
REMARK    2  A    between atoms: C_2  and  C_3
REMARK    3  A    between atoms: C_2  and  C_4
REMARK    4  A    between atoms: C_2  and  C_5
REMARK    5  A    between atoms: C_8  and  C_11
REMARK    6  A    between atoms: C_16  and  C_26
REMARK    7  A    between atoms: C_29  and  O_36
REMARK    8  A    between atoms: C_30  and  O_34
REMARK    9  A    between atoms: C_31  and  O_32
REMARK   10  A    between atoms: O_32  and  C_33
REMARK   11  A    between atoms: O_34  and  C_35
REMARK   12  A    between atoms: O_36  and  C_37
REMARK                            x       y       z     vdW  Elec       q    Type
REMARK                         _______ _______ _______ _____ _____    ______ ____
ROOT
ATOM      1  C   UNL     1      -5.503  -0.063  -1.692  0.00  0.00    +0.032 C 
ATOM      2  C   UNL     1      -4.040  -0.235  -1.285  0.00  0.00    +0.059 C 
ATOM      3  C   UNL     1      -3.445   1.115  -0.920  0.00  0.00    +0.017 C 
ATOM      4  C   UNL     1      -3.853   2.231  -1.546  0.00  0.00    +0.037 C 
ATOM      5  C   UNL     1      -3.329   3.626  -1.303  0.00  0.00    +0.140 C 
ATOM      6  N   UNL     1      -2.499   3.759  -0.115  0.00  0.00    -0.331 N 
ATOM      7  C   UNL     1      -1.270   3.106  -0.026  0.00  0.00    +0.049 A 
ATOM      8  C   UNL     1      -0.076   3.807   0.001  0.00  0.00    +0.025 A 
ATOM      9  C   UNL     1       1.121   3.111   0.003  0.00  0.00    +0.002 A 
ATOM     10  C   UNL     1       1.126   1.728  -0.021  0.00  0.00    +0.002 A 
ATOM     11  C   UNL     1      -0.067   1.025  -0.032  0.00  0.00    +0.025 A 
ATOM     12  C   UNL     1      -1.265   1.719  -0.023  0.00  0.00    +0.052 A 
ATOM     13  N   UNL     1      -2.494   1.075   0.048  0.00  0.00    -0.316 N 
ATOM     14  C   UNL     1      -4.868   2.164  -2.530  0.00  0.00    +0.163 C 
ATOM     15  O   UNL     1      -5.204   3.186  -3.095  0.00  0.00    -0.292 OA
ATOM     16  C   UNL     1      -5.544   0.878  -2.901  0.00  0.00    +0.088 C 
ATOM     17  H   UNL     1      -2.839   4.381   0.727  0.00  0.00    +0.147 HD
ATOM     18  H   UNL     1      -2.672   0.503   0.970  0.00  0.00    +0.152 HD
ENDROOT
BRANCH   1  22
ATOM     19  C   UNL     1      -7.166  -3.853  -2.748  0.00  0.00    -0.042 A 
ATOM     20  C   UNL     1      -7.713  -3.125  -1.709  0.00  0.00    +0.004 A 
ATOM     21  C   UNL     1      -7.175  -1.898  -1.367  0.00  0.00    +0.004 A 
ATOM     22  C   UNL     1      -6.090  -1.401  -2.064  0.00  0.00    -0.043 A 
ATOM     23  C   UNL     1      -5.546  -2.127  -3.107  0.00  0.00    +0.004 A 
ATOM     24  C   UNL     1      -6.081  -3.356  -3.446  0.00  0.00    +0.004 A 
BRANCH  19  26
ATOM     25  C   UNL     1      -9.217  -5.011  -3.526  0.00  0.00    +0.015 C 
ATOM     26  C   UNL     1      -7.753  -5.191  -3.121  0.00  0.00    -0.013 C 
ATOM     27  C   UNL     1      -6.968  -5.782  -4.294  0.00  0.00    +0.015 C 
ATOM     28  C   UNL     1      -7.668  -6.137  -1.922  0.00  0.00    +0.015 C 
ENDBRANCH  19  26
ENDBRANCH   1  22
BRANCH   5  29
ATOM     29  C   UNL     1      -2.525   4.050  -2.505  0.00  0.00    +0.023 A 
ATOM     30  C   UNL     1      -2.025   3.097  -3.373  0.00  0.00    +0.013 A 
ATOM     31  C   UNL     1      -1.287   3.481  -4.476  0.00  0.00    +0.050 A 
ATOM     32  C   UNL     1      -1.046   4.825  -4.718  0.00  0.00    +0.165 A 
ATOM     33  C   UNL     1      -1.548   5.786  -3.850  0.00  0.00    +0.204 A 
ATOM     34  C   UNL     1      -2.293   5.396  -2.743  0.00  0.00    +0.170 A 
BRANCH  34  35
ATOM     35  O   UNL     1      -2.791   6.334  -1.893  0.00  0.00    -0.491 OA
ATOM     36  C   UNL     1      -1.913   6.814  -0.872  0.00  0.00    +0.277 C 
ENDBRANCH  34  35
BRANCH  33  37
ATOM     37  O   UNL     1      -1.313   7.106  -4.084  0.00  0.00    -0.488 OA
ATOM     38  C   UNL     1      -2.269   7.802  -4.886  0.00  0.00    +0.277 C 
ENDBRANCH  33  37
BRANCH  32  39
ATOM     39  O   UNL     1      -0.319   5.201  -5.805  0.00  0.00    -0.491 OA
ATOM     40  C   UNL     1       0.165   4.159  -6.654  0.00  0.00    +0.277 C 
ENDBRANCH  32  39
ENDBRANCH   5  29
TORSDOF 6
