REMARK  Name = ZINC04053746
REMARK  7 active torsions:
REMARK  status: ('A' for Active; 'I' for Inactive)
REMARK    1  A    between atoms: C_1  and  N_2
REMARK    2  A    between atoms: N_2  and  C_3
REMARK    3  A    between atoms: N_5  and  C_6
REMARK    4  A    between atoms: C_7  and  C_23
REMARK    5  A    between atoms: C_8  and  C_21
REMARK    6  A    between atoms: C_9  and  C_19
REMARK    7  A    between atoms: C_10  and  C_12
REMARK                            x       y       z     vdW  Elec       q    Type
REMARK                         _______ _______ _______ _____ _____    ______ ____
ROOT
ATOM      1  C   UNL     1      -1.257   3.437   0.033  0.00  0.00    +0.173 A 
ATOM      2  C   UNL     1      -0.089   4.232   0.026  0.00  0.00    +0.114 A 
ATOM      3  C   UNL     1       1.167   3.596   0.010  0.00  0.00    +0.092 A 
ATOM      4  C   UNL     1       1.198   2.187   0.002  0.00  0.00    +0.096 A 
ATOM      5  C   UNL     1      -0.018   1.476   0.010  0.00  0.00    +0.092 A 
ATOM      6  N   UNL     1      -1.179   2.113   0.019  0.00  0.00    -0.225 NA
ENDROOT
BRANCH   5   7
ATOM      7  C   UNL     1       0.002  -0.004   0.002  0.00  0.00    +0.002 A 
ATOM      8  C   UNL     1       0.990  -0.687  -0.708  0.00  0.00    +0.011 A 
ATOM      9  C   UNL     1       1.007  -2.066  -0.708  0.00  0.00    +0.016 A 
ATOM     10  C   UNL     1       0.040  -2.773  -0.013  0.00  0.00    +0.018 A 
ATOM     11  C   UNL     1      -0.947  -2.101   0.689  0.00  0.00    +0.016 A 
ATOM     12  C   UNL     1      -0.970  -0.721   0.700  0.00  0.00    +0.011 A 
ATOM     13 BR   UNL     1       0.065  -4.664  -0.024  0.00  0.00    -0.050 Br
ENDBRANCH   5   7
BRANCH   1  18
ATOM     14  C   UNL     1      -4.883   5.374   0.077  0.00  0.00    +0.129 C 
ATOM     15  N   UNL     1      -4.786   3.912   0.069  0.00  0.00    -0.327 N 
ATOM     16  C   UNL     1      -6.003   3.097   0.076  0.00  0.00    +0.129 C 
ATOM     17  C   UNL     1      -3.564   3.311   0.054  0.00  0.00    +0.186 C 
ATOM     18  N   UNL     1      -2.478   4.038   0.047  0.00  0.00    -0.220 NA
ENDBRANCH   1  18
BRANCH   4  19
ATOM     19  C   UNL     1       2.448   1.487  -0.013  0.00  0.00    +0.103 C 
ATOM     20  N   UNL     1       3.439   0.933  -0.025  0.00  0.00    -0.191 NA
ENDBRANCH   4  19
BRANCH   3  21
ATOM     21  C   UNL     1       2.379   4.360   0.002  0.00  0.00    +0.102 C 
ATOM     22  N   UNL     1       3.340   4.965  -0.004  0.00  0.00    -0.191 NA
ENDBRANCH   3  21
BRANCH   2  23
ATOM     23  C   UNL     1      -0.181   5.661   0.034  0.00  0.00    +0.104 C 
ATOM     24  N   UNL     1      -0.254   6.795   0.040  0.00  0.00    -0.191 NA
ENDBRANCH   2  23
TORSDOF 5
