REMARK  Name = ZINC01882384
REMARK  11 active torsions:
REMARK  status: ('A' for Active; 'I' for Inactive)
REMARK    1  A    between atoms: C_1  and  C_2
REMARK    2  A    between atoms: C_2  and  C_3
REMARK    3  A    between atoms: C_3  and  C_4
REMARK    4  A    between atoms: C_4  and  C_5
REMARK    5  A    between atoms: C_5  and  C_6
REMARK    6  A    between atoms: C_6  and  C_7
REMARK    7  A    between atoms: C_11  and  C_19
REMARK    8  A    between atoms: C_17  and  O_18
REMARK    9  A    between atoms: N_20  and  N_21
REMARK   10  A    between atoms: C_22  and  C_24
REMARK   11  A    between atoms: C_27  and  N_30
REMARK                            x       y       z     vdW  Elec       q    Type
REMARK                         _______ _______ _______ _____ _____    ______ ____
ROOT
ATOM      1  C   UNL     1      -4.241  -4.644   0.018  0.00  0.00    -0.005 A 
ATOM      2  C   UNL     1      -4.812  -5.069  -1.140  0.00  0.00    +0.018 A 
ATOM      3  C   UNL     1      -6.143  -5.544  -1.135  0.00  0.00    +0.019 A 
ATOM      4  C   UNL     1      -6.758  -5.928  -2.334  0.00  0.00    +0.030 A 
ATOM      5  C   UNL     1      -8.120  -6.316  -2.290  0.00  0.00    +0.099 A 
ATOM      6  C   UNL     1      -8.830  -6.141  -0.996  0.00  0.00    +0.348 A 
ATOM      7  O   UNL     1     -10.032  -5.968  -0.956  0.00  0.00    -0.244 OA
ATOM      8  O   UNL     1      -8.089  -6.181   0.135  0.00  0.00    -0.422 OA
ATOM      9  C   UNL     1      -6.851  -5.636   0.091  0.00  0.00    +0.143 A 
ATOM     10  C   UNL     1      -6.255  -5.187   1.254  0.00  0.00    +0.092 A 
ATOM     11  C   UNL     1      -4.955  -4.693   1.222  0.00  0.00    +0.124 A 
ENDROOT
BRANCH   5  12
ATOM     12  C   UNL     1      -8.768  -6.841  -3.416  0.00  0.00    +0.121 C 
ATOM     13  N   UNL     1     -10.082  -7.206  -3.339  0.00  0.00    -0.291 N 
ATOM     14  N   UNL     1      -8.089  -6.988  -4.585  0.00  0.00    -0.343 N 
ATOM     15  H   UNL     1      -7.156  -6.729  -4.640  0.00  0.00    +0.144 HD
ATOM     16  H   UNL     1      -8.538  -7.352  -5.364  0.00  0.00    +0.144 HD
ATOM     17  H   UNL     1     -10.566  -7.101  -2.505  0.00  0.00    +0.186 HD
BRANCH  13  18
ATOM     18  N   UNL     1     -10.679  -7.689  -4.375  0.00  0.00    -0.224 N 
ATOM     19  C   UNL     1     -11.975  -8.049  -4.300  0.00  0.00    +0.262 C 
ATOM     20  O   UNL     1     -12.582  -7.918  -3.256  0.00  0.00    -0.269 OA
ATOM     21  H   UNL     1     -10.194  -7.794  -5.209  0.00  0.00    +0.175 HD
BRANCH  19  22
ATOM     22  C   UNL     1     -12.658  -8.602  -5.486  0.00  0.00    +0.038 A 
ATOM     23  C   UNL     1     -11.962  -8.760  -6.687  0.00  0.00    +0.015 A 
ATOM     24  C   UNL     1     -12.606  -9.278  -7.791  0.00  0.00    +0.033 A 
ATOM     25  C   UNL     1     -13.939  -9.641  -7.711  0.00  0.00    +0.126 A 
ATOM     26  C   UNL     1     -14.635  -9.488  -6.524  0.00  0.00    +0.033 A 
ATOM     27  C   UNL     1     -14.003  -8.976  -5.411  0.00  0.00    +0.015 A 
BRANCH  25  28
ATOM     28  N   UNL     1     -14.624 -10.196  -8.900  0.00  0.00    +0.056 N 
ATOM     29  O   UNL     1     -13.965 -10.343 -10.030  0.00  0.00    -0.126 OA
ATOM     30  O   UNL     1     -15.893 -10.543  -8.827  0.00  0.00    -0.126 OA
ENDBRANCH  25  28
ENDBRANCH  19  22
ENDBRANCH  13  18
ENDBRANCH   5  12
BRANCH  11  31
ATOM     31  O   UNL     1      -4.376  -4.252   2.363  0.00  0.00    -0.506 OA
ATOM     32  H   UNL     1      -4.523  -3.313   2.541  0.00  0.00    +0.292 HD
ENDBRANCH  11  31
BRANCH   1  33
ATOM     33  C   UNL     1      -2.827  -4.123   0.007  0.00  0.00    +0.039 C 
BRANCH  33  34
ATOM     34  C   UNL     1      -2.848  -2.593   0.015  0.00  0.00    +0.005 C 
BRANCH  34  35
ATOM     35  C   UNL     1      -1.413  -2.063   0.004  0.00  0.00    +0.000 C 
BRANCH  35  36
ATOM     36  C   UNL     1      -1.433  -0.534   0.013  0.00  0.00    -0.000 C 
BRANCH  36  38
ATOM     37  C   UNL     1      -0.019   1.526   0.010  0.00  0.00    +0.004 C 
ATOM     38  C   UNL     1       0.002  -0.004   0.002  0.00  0.00    -0.003 C 
ENDBRANCH  36  38
ENDBRANCH  35  36
ENDBRANCH  34  35
ENDBRANCH  33  34
ENDBRANCH   1  33
TORSDOF 10
