REMARK  Name = ZINC23192137
REMARK  5 active torsions:
REMARK  status: ('A' for Active; 'I' for Inactive)
REMARK    1  A    between atoms: C_7  and  N_18
REMARK    2  A    between atoms: C_9  and  O_17
REMARK    3  A    between atoms: C_21  and  C_24
REMARK    4  A    between atoms: C_24  and  C_25
REMARK    5  A    between atoms: C_25  and  N_26
REMARK                            x       y       z     vdW  Elec       q    Type
REMARK                         _______ _______ _______ _____ _____    ______ ____
ROOT
ATOM      1  C   UNL     1      -4.583  -8.253   0.132  0.00  0.00    +0.000 A 
ATOM      2  C   UNL     1      -4.219  -9.208  -0.799  0.00  0.00    +0.000 A 
ATOM      3  C   UNL     1      -4.232  -8.899  -2.145  0.00  0.00    +0.004 A 
ATOM      4  C   UNL     1      -4.608  -7.635  -2.567  0.00  0.00    -0.037 A 
ATOM      5  C   UNL     1      -4.972  -6.679  -1.635  0.00  0.00    -0.055 A 
ATOM      6  C   UNL     1      -4.958  -6.991  -0.286  0.00  0.00    +0.002 A 
ATOM      7  C   UNL     1      -5.338  -5.390  -2.340  0.00  0.00    -0.007 C 
ATOM      8  C   UNL     1      -5.578  -5.786  -3.814  0.00  0.00    +0.116 C 
ATOM      9  C   UNL     1      -4.707  -7.051  -3.956  0.00  0.00    +0.017 C 
ATOM     10  C   UNL     1      -5.377  -8.042  -4.904  0.00  0.00    -0.005 C 
ATOM     11  C   UNL     1      -5.436  -7.439  -6.310  0.00  0.00    -0.082 C 
ATOM     12  N   UNL     1      -4.075  -7.120  -6.763  0.00  0.00    +0.379 N 
ATOM     13  C   UNL     1      -3.447  -6.115  -5.895  0.00  0.00    -0.082 C 
ATOM     14  C   UNL     1      -3.322  -6.675  -4.475  0.00  0.00    -0.005 C 
ATOM     15  H   UNL     1      -3.460  -8.031  -6.745  0.00  0.00    -0.086 HD
ATOM     16  H   UNL     1      -4.114  -6.723  -7.787  0.00  0.00    -0.086 HD
ENDROOT
BRANCH   7  17
ATOM     17  N   UNL     1      -4.234  -4.426  -2.245  0.00  0.00    +0.386 N 
ATOM     18  C   UNL     1      -4.602  -3.142  -2.855  0.00  0.00    -0.078 C 
ATOM     19  C   UNL     1      -3.385  -2.214  -2.868  0.00  0.00    -0.015 C 
ATOM     20  C   UNL     1      -2.899  -1.997  -1.432  0.00  0.00    -0.013 C 
ATOM     21  C   UNL     1      -2.569  -3.353  -0.801  0.00  0.00    -0.015 C 
ATOM     22  C   UNL     1      -3.809  -4.248  -0.850  0.00  0.00    -0.078 C 
ATOM     23  H   UNL     1      -3.379  -4.831  -2.806  0.00  0.00    -0.081 HD
BRANCH  20  24
ATOM     24  C   UNL     1      -1.646  -1.119  -1.443  0.00  0.00    +0.022 C 
BRANCH  24  25
ATOM     25  C   UNL     1      -1.232  -0.803  -0.004  0.00  0.00    +0.108 C 
BRANCH  25  26
ATOM     26  N   UNL     1      -0.033   0.037  -0.015  0.00  0.00    -0.301 N 
ATOM     27  C   UNL     1       1.341  -0.480  -0.002  0.00  0.00    +0.108 C 
ATOM     28  C   UNL     1       2.227   0.714   0.416  0.00  0.00    +0.028 C 
ATOM     29  C   UNL     1       1.366   1.918  -0.033  0.00  0.00    +0.097 C 
ATOM     30  C   UNL     1      -0.048   1.381  -0.037  0.00  0.00    +0.216 C 
ATOM     31  O   UNL     1      -1.050   2.064  -0.063  0.00  0.00    -0.276 OA
ENDBRANCH  25  26
ENDBRANCH  24  25
ENDBRANCH  20  24
ENDBRANCH   7  17
BRANCH   8  32
ATOM     32  O   UNL     1      -6.956  -6.088  -4.041  0.00  0.00    -0.392 OA
ATOM     33  H   UNL     1      -7.295  -6.388  -5.044  0.00  0.00    +0.210 HD
ENDBRANCH   8  32
TORSDOF 5
