REMARK  Name = ZINC40757031
REMARK  7 active torsions:
REMARK  status: ('A' for Active; 'I' for Inactive)
REMARK    1  A    between atoms: C_1  and  N_2
REMARK    2  A    between atoms: N_5  and  N_8
REMARK    3  A    between atoms: C_10  and  N_24
REMARK    4  A    between atoms: C_11  and  N_15
REMARK    5  A    between atoms: N_15  and  C_16
REMARK    6  A    between atoms: C_16  and  C_17
REMARK    7  A    between atoms: C_17  and  N_18
REMARK                            x       y       z     vdW  Elec       q    Type
REMARK                         _______ _______ _______ _____ _____    ______ ____
ROOT
ATOM      1  N   UNL     1      -0.631  -3.906   1.194  0.00  0.00    -0.261 N 
ATOM      2  C   UNL     1      -1.193  -4.569   2.278  0.00  0.00    +0.158 A 
ATOM      3  C   UNL     1      -1.201  -5.964   2.330  0.00  0.00    +0.106 A 
ATOM      4  C   UNL     1      -1.777  -6.579   3.442  0.00  0.00    +0.145 A 
ATOM      5  N   UNL     1      -2.294  -5.818   4.404  0.00  0.00    -0.219 NA
ATOM      6  C   UNL     1      -2.267  -4.504   4.316  0.00  0.00    +0.225 A 
ATOM      7  N   UNL     1      -1.727  -3.884   3.286  0.00  0.00    -0.218 NA
ATOM      8  H   UNL     1      -0.244  -4.413   0.463  0.00  0.00    +0.168 HD
ENDROOT
BRANCH   1  13
ATOM      9  C   UNL     1      -0.018   1.465   0.010  0.00  0.00    -0.096 C 
ATOM     10  N   UNL     1       0.002  -0.004   0.002  0.00  0.00    +0.380 N 
ATOM     11  C   UNL     1      -1.376  -0.512   0.011  0.00  0.00    -0.062 C 
ATOM     12  C   UNL     1      -1.356  -2.042  -0.017  0.00  0.00    +0.087 C 
ATOM     13  N   UNL     1      -0.624  -2.541   1.156  0.00  0.00    -0.232 NA
ATOM     14  C   UNL     1       0.750  -2.020   1.175  0.00  0.00    +0.087 C 
ATOM     15  C   UNL     1       0.713  -0.490   1.192  0.00  0.00    -0.062 C 
ATOM     16  H   UNL     1       0.475  -0.329  -0.828  0.00  0.00    -0.082 HD
ENDBRANCH   1  13
BRANCH   3  17
ATOM     17  N   UNL     1      -0.643  -6.728   1.291  0.00  0.00    -0.353 N 
ATOM     18  H   UNL     1      -0.246  -6.287   0.524  0.00  0.00    +0.143 HD
ATOM     19  H   UNL     1      -0.656  -7.696   1.341  0.00  0.00    +0.143 HD
ENDBRANCH   3  17
BRANCH   4  20
ATOM     20  N   UNL     1      -1.812  -7.965   3.543  0.00  0.00    -0.326 N 
ATOM     21  H   UNL     1      -1.433  -8.512   2.838  0.00  0.00    +0.148 HD
BRANCH  20  22
ATOM     22  C   UNL     1      -2.420  -8.599   4.716  0.00  0.00    +0.118 C 
BRANCH  22  23
ATOM     23  C   UNL     1      -2.327 -10.120   4.579  0.00  0.00    +0.103 C 
BRANCH  23  24
ATOM     24  N   UNL     1      -2.936 -10.755   5.755  0.00  0.00    -0.297 NA
ATOM     25  C   UNL     1      -2.159 -10.472   6.970  0.00  0.00    +0.112 C 
ATOM     26  C   UNL     1      -2.860 -11.101   8.177  0.00  0.00    +0.175 C 
ATOM     27  O   UNL     1      -3.019 -12.505   7.951  0.00  0.00    -0.377 OA
ATOM     28  C   UNL     1      -3.772 -12.817   6.776  0.00  0.00    +0.175 C 
ATOM     29  C   UNL     1      -3.080 -12.205   5.555  0.00  0.00    +0.112 C 
ENDBRANCH  23  24
ENDBRANCH  22  23
ENDBRANCH  20  22
ENDBRANCH   4  20
TORSDOF 6
