REMARK  Name = ZINC13581742
REMARK  5 active torsions:
REMARK  status: ('A' for Active; 'I' for Inactive)
REMARK    1  A    between atoms: C_1  and  O_2
REMARK    2  A    between atoms: O_2  and  C_3
REMARK    3  A    between atoms: C_6  and  N_7
REMARK    4  A    between atoms: N_7  and  N_8
REMARK    5  A    between atoms: C_9  and  C_11
REMARK                            x       y       z     vdW  Elec       q    Type
REMARK                         _______ _______ _______ _____ _____    ______ ____
ROOT
ATOM      1  N   UNL     1       3.533   0.464  -6.218  0.00  0.00    -0.234 N 
ATOM      2  C   UNL     1       4.131  -0.137  -7.266  0.00  0.00    +0.273 C 
ATOM      3  O   UNL     1       4.173  -1.347  -7.328  0.00  0.00    -0.270 OA
ATOM      4  H   UNL     1       3.499   1.432  -6.169  0.00  0.00    +0.173 HD
ENDROOT
BRANCH   2   5
ATOM      5  C   UNL     1       4.748   0.695  -8.360  0.00  0.00    +0.297 C 
ATOM      6  C   UNL     1       3.651   1.473  -9.100  0.00  0.00    +0.283 C 
ATOM      7  O   UNL     1       4.269   2.240 -10.139  0.00  0.00    -0.484 OA
ATOM      8  C   UNL     1       5.184   1.595 -10.914  0.00  0.00    +0.162 A 
ATOM      9  C   UNL     1       5.547   2.141 -12.136  0.00  0.00    +0.049 A 
ATOM     10  C   UNL     1       6.477   1.500 -12.932  0.00  0.00    +0.004 A 
ATOM     11  C   UNL     1       7.048   0.312 -12.513  0.00  0.00    +0.004 A 
ATOM     12  C   UNL     1       6.689  -0.238 -11.297  0.00  0.00    +0.049 A 
ATOM     13  C   UNL     1       5.756   0.400 -10.494  0.00  0.00    +0.163 A 
ATOM     14  O   UNL     1       5.407  -0.158  -9.302  0.00  0.00    -0.472 OA
ENDBRANCH   2   5
BRANCH   1  15
ATOM     15  N   UNL     1       2.959  -0.310  -5.201  0.00  0.00    -0.271 N 
ATOM     16  H   UNL     1       2.992  -1.278  -5.250  0.00  0.00    +0.169 HD
BRANCH  15  20
ATOM     17  C   UNL     1       0.606  -0.608  -1.057  0.00  0.00    +0.169 C 
ATOM     18  C   UNL     1       1.162   0.146  -2.043  0.00  0.00    +0.059 C 
ATOM     19  C   UNL     1       1.790  -0.483  -3.142  0.00  0.00    -0.005 C 
ATOM     20  C   UNL     1       2.363   0.289  -4.158  0.00  0.00    +0.095 C 
ATOM     21  C   UNL     1       1.839  -1.893  -3.213  0.00  0.00    +0.033 C 
ATOM     22  C   UNL     1       1.282  -2.643  -2.226  0.00  0.00    +0.092 C 
ATOM     23  C   UNL     1       0.662  -2.016  -1.129  0.00  0.00    +0.238 C 
ATOM     24  O   UNL     1       0.166  -2.694  -0.238  0.00  0.00    -0.282 OA
ATOM     25 CL   UNL     1       1.342  -4.375  -2.315  0.00  0.00    -0.079 Cl
BRANCH  17  27
ATOM     26  C   UNL     1      -0.017   1.425   0.010  0.00  0.00    +0.277 C 
ATOM     27  O   UNL     1       0.002  -0.004   0.002  0.00  0.00    -0.491 OA
ENDBRANCH  17  27
ENDBRANCH  15  20
ENDBRANCH   1  15
TORSDOF 4
