REMARK  Name = ZINC57997909
REMARK  6 active torsions:
REMARK  status: ('A' for Active; 'I' for Inactive)
REMARK    1  A    between atoms: C_3  and  C_6
REMARK    2  A    between atoms: C_6  and  C_8
REMARK    3  A    between atoms: C_6  and  N_13
REMARK    4  A    between atoms: N_13  and  C_14
REMARK    5  A    between atoms: C_14  and  C_15
REMARK    6  A    between atoms: C_18  and  O_22
REMARK                            x       y       z     vdW  Elec       q    Type
REMARK                         _______ _______ _______ _____ _____    ______ ____
ROOT
ATOM      1  N   UNL     1       4.589   1.008   0.854  0.00  0.00    +0.387 N 
ATOM      2  H   UNL     1       4.506   0.042   0.573  0.00  0.00    -0.085 HD
ATOM      3  H   UNL     1       5.553   1.297   0.783  0.00  0.00    -0.085 HD
ENDROOT
BRANCH   1   4
ATOM      4  C   UNL     1       3.761   1.845  -0.024  0.00  0.00    -0.030 C 
BRANCH   4   7
ATOM      5  C   UNL     1      -0.016   1.351   0.009  0.00  0.00    +0.008 A 
ATOM      6  C   UNL     1       1.183   2.038   0.002  0.00  0.00    +0.009 A 
ATOM      7  C   UNL     1       2.343   1.336  -0.013  0.00  0.00    -0.024 A 
ATOM      8  S   UNL     1       1.754  -0.349  -0.017  0.00  0.00    -0.103 S 
ATOM      9  C   UNL     1       0.002  -0.004   0.002  0.00  0.00    +0.045 A 
ENDBRANCH   4   7
BRANCH   4  10
ATOM     10  C   UNL     1       4.312   1.789  -1.451  0.00  0.00    -0.020 C 
ATOM     11  C   UNL     1       4.061   0.394  -2.074  0.00  0.00    +0.002 C 
ATOM     12  C   UNL     1       4.095   0.687  -3.594  0.00  0.00    +0.000 C 
ATOM     13  C   UNL     1       3.398   2.057  -3.731  0.00  0.00    +0.000 C 
ATOM     14  C   UNL     1       3.536   2.757  -2.368  0.00  0.00    +0.002 C 
ENDBRANCH   4  10
ENDBRANCH   1   4
BRANCH   1  15
ATOM     15  C   UNL     1       4.134   1.155   2.243  0.00  0.00    -0.046 C 
BRANCH  15  16
ATOM     16  C   UNL     1       4.984   0.296   3.143  0.00  0.00    -0.063 A 
ATOM     17  C   UNL     1       4.615  -1.012   3.399  0.00  0.00    +0.005 A 
ATOM     18  C   UNL     1       5.391  -1.801   4.224  0.00  0.00    +0.047 A 
ATOM     19  C   UNL     1       6.543  -1.282   4.797  0.00  0.00    +0.131 A 
ATOM     20  C   UNL     1       6.912   0.031   4.539  0.00  0.00    +0.059 A 
ATOM     21  C   UNL     1       6.134   0.816   3.708  0.00  0.00    +0.020 A 
ATOM     22 BR   UNL     1       8.480   0.745   5.318  0.00  0.00    -0.047 Br
BRANCH  19  23
ATOM     23  O   UNL     1       7.308  -2.056   5.610  0.00  0.00    -0.506 OA
ATOM     24  H   UNL     1       7.999  -2.550   5.147  0.00  0.00    +0.292 HD
ENDBRANCH  19  23
ENDBRANCH  15  16
ENDBRANCH   1  15
TORSDOF 6
