REMARK  Name = ZINC13466409
REMARK  8 active torsions:
REMARK  status: ('A' for Active; 'I' for Inactive)
REMARK    1  A    between atoms: C_1  and  C_2
REMARK    2  A    between atoms: C_3  and  C_27
REMARK    3  A    between atoms: C_5  and  N_11
REMARK    4  A    between atoms: C_6  and  C_7
REMARK    5  A    between atoms: C_7  and  O_9
REMARK    6  A    between atoms: O_9  and  C_10
REMARK    7  A    between atoms: C_12  and  C_14
REMARK    8  A    between atoms: C_21  and  C_23
REMARK                            x       y       z     vdW  Elec       q    Type
REMARK                         _______ _______ _______ _____ _____    ______ ____
ROOT
ATOM      1  N   UNL     1       2.517  -1.653  -3.301  0.00  0.00    -0.279 N 
ATOM      2  C   UNL     1       2.750  -1.002  -2.144  0.00  0.00    +0.222 C 
ATOM      3  O   UNL     1       3.678  -1.336  -1.437  0.00  0.00    -0.275 OA
ATOM      4  H   UNL     1       1.775  -1.386  -3.866  0.00  0.00    +0.155 HD
ENDROOT
BRANCH   1   9
ATOM      5  C   UNL     1       4.265  -5.439  -6.172  0.00  0.00    +0.045 C 
ATOM      6  C   UNL     1       4.251  -4.526  -4.973  0.00  0.00    -0.025 A 
ATOM      7  C   UNL     1       5.165  -4.642  -3.993  0.00  0.00    -0.008 A 
ATOM      8  S   UNL     1       4.707  -3.356  -2.850  0.00  0.00    -0.078 S 
ATOM      9  C   UNL     1       3.336  -2.703  -3.683  0.00  0.00    +0.086 A 
ATOM     10  C   UNL     1       3.254  -3.493  -4.825  0.00  0.00    +0.091 A 
ATOM     11  C   UNL     1       6.303  -5.625  -3.887  0.00  0.00    +0.052 C 
BRANCH  10  12
ATOM     12  C   UNL     1       2.209  -3.284  -5.830  0.00  0.00    +0.342 C 
ATOM     13  O   UNL     1       2.402  -2.523  -6.759  0.00  0.00    -0.245 OA
BRANCH  12  14
ATOM     14  O   UNL     1       1.033  -3.935  -5.725  0.00  0.00    -0.464 OA
ATOM     15  C   UNL     1       0.043  -3.680  -6.757  0.00  0.00    +0.280 C 
ENDBRANCH  12  14
ENDBRANCH  10  12
ENDBRANCH   1   9
BRANCH   2  16
ATOM     16  C   UNL     1       1.859   0.140  -1.729  0.00  0.00    +0.096 C 
ATOM     17  C   UNL     1       2.597   1.078  -0.721  0.00  0.00    +0.025 C 
ATOM     18  C   UNL     1       2.367   0.294   0.643  0.00  0.00    +0.016 C 
ATOM     19  C   UNL     1       0.804   0.307   0.471  0.00  0.00    +0.027 C 
ATOM     20  C   UNL     1       0.645  -0.382  -0.921  0.00  0.00    +0.121 C 
ATOM     21  C   UNL     1       0.586   1.796   0.178  0.00  0.00    -0.027 C 
ATOM     22  C   UNL     1       1.628   2.245  -0.493  0.00  0.00    -0.027 C 
BRANCH  20  23
ATOM     23  C   UNL     1       0.708  -1.881  -0.781  0.00  0.00    +0.360 C 
ATOM     24  O   UNL     1       1.276  -2.377   0.164  0.00  0.00    -0.246 OA
ATOM     25  O   UNL     1       0.133  -2.667  -1.706  0.00  0.00    -0.246 OA
ENDBRANCH  20  23
ENDBRANCH   2  16
TORSDOF 5
