REMARK  Name = ZINC36704376
REMARK  12 active torsions:
REMARK  status: ('A' for Active; 'I' for Inactive)
REMARK    1  A    between atoms: C_1  and  C_2
REMARK    2  A    between atoms: C_2  and  O_3
REMARK    3  A    between atoms: O_3  and  C_4
REMARK    4  A    between atoms: N_13  and  C_14
REMARK    5  A    between atoms: C_14  and  C_15
REMARK    6  A    between atoms: C_15  and  C_16
REMARK    7  A    between atoms: C_16  and  N_17
REMARK    8  A    between atoms: N_17  and  C_18
REMARK    9  A    between atoms: N_17  and  C_19
REMARK   10  A    between atoms: C_20  and  C_22
REMARK   11  A    between atoms: N_27  and  S_28
REMARK   12  A    between atoms: S_28  and  C_31
REMARK                            x       y       z     vdW  Elec       q    Type
REMARK                         _______ _______ _______ _____ _____    ______ ____
ROOT
ATOM      1  C   UNL     1       1.511  -3.155  -1.346  0.00  0.00    +0.147 A 
ATOM      2  C   UNL     1       0.750  -4.087  -0.679  0.00  0.00    +0.048 A 
ATOM      3  C   UNL     1       0.174  -5.160  -1.343  0.00  0.00    +0.005 A 
ATOM      4  C   UNL     1       0.367  -5.297  -2.705  0.00  0.00    +0.017 A 
ATOM      5  C   UNL     1       1.126  -4.373  -3.381  0.00  0.00    +0.044 A 
ATOM      6  C   UNL     1       1.725  -3.264  -2.744  0.00  0.00    +0.122 A 
ATOM      7  N   UNL     1       2.435  -2.440  -3.546  0.00  0.00    -0.221 NA
ATOM      8  C   UNL     1       2.561  -2.648  -4.835  0.00  0.00    +0.168 A 
ATOM      9  S   UNL     1       1.627  -4.153  -5.072  0.00  0.00    -0.052 S 
ATOM     10  N   UNL     1       3.252  -1.897  -5.773  0.00  0.00    -0.249 N 
ATOM     11  C   UNL     1       3.830  -0.734  -5.412  0.00  0.00    +0.240 C 
ATOM     12  O   UNL     1       3.808  -0.380  -4.252  0.00  0.00    -0.273 OA
ENDROOT
BRANCH  11  13
ATOM     13  C   UNL     1       4.505   0.126  -6.449  0.00  0.00    +0.166 C 
ATOM     14  C   UNL     1       6.008  -0.218  -6.520  0.00  0.00    +0.031 C 
ATOM     15  C   UNL     1       6.672   1.168  -6.729  0.00  0.00    +0.019 C 
ATOM     16  C   UNL     1       5.757   2.083  -5.878  0.00  0.00    +0.110 C 
ATOM     17  N   UNL     1       4.396   1.543  -6.072  0.00  0.00    -0.164 NA
BRANCH  17  18
ATOM     18  S   UNL     1       2.983   2.389  -5.895  0.00  0.00    +0.068 S 
ATOM     19  O   UNL     1       3.270   3.737  -6.240  0.00  0.00    -0.152 OA
ATOM     20  O   UNL     1       1.973   1.633  -6.549  0.00  0.00    -0.152 OA
BRANCH  18  21
ATOM     21  C   UNL     1       2.584   2.383  -4.178  0.00  0.00    +0.143 A 
ATOM     22  C   UNL     1       3.033   3.200  -3.195  0.00  0.00    +0.036 A 
ATOM     23  C   UNL     1       2.577   3.009  -1.904  0.00  0.00    +0.010 A 
ATOM     24  C   UNL     1       1.695   2.009  -1.660  0.00  0.00    +0.047 A 
ATOM     25  S   UNL     1       1.478   1.303  -3.285  0.00  0.00    -0.077 S 
ENDBRANCH  18  21
ENDBRANCH  17  18
ENDBRANCH  11  13
BRANCH   1  26
ATOM     26  O   UNL     1       2.059  -2.117  -0.660  0.00  0.00    -0.490 OA
BRANCH  26  28
ATOM     27  C   UNL     1       2.511  -0.847   1.345  0.00  0.00    +0.048 C 
ATOM     28  C   UNL     1       1.880  -2.111   0.758  0.00  0.00    +0.226 C 
ENDBRANCH  26  28
ENDBRANCH   1  26
BRANCH  10  29
ATOM     29  C   UNL     1       3.353  -2.366  -7.157  0.00  0.00    +0.114 C 
BRANCH  29  30
ATOM     30  C   UNL     1       2.118  -1.916  -7.940  0.00  0.00    +0.001 C 
BRANCH  30  31
ATOM     31  C   UNL     1       2.224  -2.407  -9.385  0.00  0.00    -0.078 C 
BRANCH  31  32
ATOM     32  N   UNL     1       1.038  -1.974 -10.137  0.00  0.00    +0.376 N 
ATOM     33  C   UNL     1       1.194  -2.341 -11.551  0.00  0.00    -0.097 C 
ATOM     34  C   UNL     1      -0.155  -2.633  -9.590  0.00  0.00    -0.097 C 
ATOM     35  H   UNL     1       0.936  -0.974 -10.058  0.00  0.00    -0.083 HD
ENDBRANCH  31  32
ENDBRANCH  30  31
ENDBRANCH  29  30
ENDBRANCH  10  29
TORSDOF 9
