REMARK  Name = ZINC41026351
REMARK  7 active torsions:
REMARK  status: ('A' for Active; 'I' for Inactive)
REMARK    1  A    between atoms: C_4  and  C_7
REMARK    2  A    between atoms: C_7  and  C_8
REMARK    3  A    between atoms: C_8  and  C_9
REMARK    4  A    between atoms: C_9  and  N_10
REMARK    5  A    between atoms: N_17  and  C_20
REMARK    6  A    between atoms: N_26  and  C_27
REMARK    7  A    between atoms: C_28  and  C_35
REMARK                            x       y       z     vdW  Elec       q    Type
REMARK                         _______ _______ _______ _____ _____    ______ ____
ROOT
ATOM      1  N   UNL     1       5.947  -1.955   2.757  0.00  0.00    -0.313 N 
ATOM      2  C   UNL     1       7.137  -2.621   2.994  0.00  0.00    +0.219 A 
ATOM      3  N   UNL     1       7.863  -3.022   1.957  0.00  0.00    -0.199 NA
ATOM      4  C   UNL     1       9.012  -3.663   2.130  0.00  0.00    +0.139 A 
ATOM      5  C   UNL     1       9.450  -3.913   3.446  0.00  0.00    +0.079 A 
ATOM      6  C   UNL     1      10.579  -4.545   4.011  0.00  0.00    +0.148 A 
ATOM      7  N   UNL     1      10.476  -4.493   5.309  0.00  0.00    -0.172 NA
ATOM      8  N   UNL     1       9.292  -3.834   5.663  0.00  0.00    -0.214 N 
ATOM      9  C   UNL     1       8.647  -3.470   4.515  0.00  0.00    +0.170 A 
ATOM     10  N   UNL     1       7.512  -2.829   4.245  0.00  0.00    -0.195 NA
ATOM     11  N   UNL     1       9.762  -4.077   1.045  0.00  0.00    -0.293 N 
ATOM     12  H   UNL     1       5.405  -1.651   3.501  0.00  0.00    +0.149 HD
ATOM     13  H   UNL     1      10.600  -4.546   1.184  0.00  0.00    +0.154 HD
ENDROOT
BRANCH  11  14
ATOM     14  C   UNL     1       9.316  -3.824  -0.241  0.00  0.00    +0.083 A 
ATOM     15  C   UNL     1       9.925  -4.166  -1.435  0.00  0.00    +0.068 A 
ATOM     16  C   UNL     1       9.243  -3.779  -2.670  0.00  0.00    -0.023 A 
ATOM     17  C   UNL     1       8.085  -3.125  -2.474  0.00  0.00    -0.004 A 
ATOM     18  S   UNL     1       7.911  -3.039  -0.710  0.00  0.00    -0.077 S 
ATOM     19  C   UNL     1       7.427  -2.747  -3.774  0.00  0.00    +0.043 C 
ATOM     20  C   UNL     1       8.546  -2.879  -4.830  0.00  0.00    +0.010 C 
ATOM     21  C   UNL     1       9.480  -3.915  -4.172  0.00  0.00    +0.037 C 
BRANCH  15  22
ATOM     22  C   UNL     1      11.202  -4.885  -1.462  0.00  0.00    +0.244 C 
ATOM     23  O   UNL     1      11.214  -6.102  -1.475  0.00  0.00    -0.270 OA
ATOM     24  N   UNL     1      12.362  -4.199  -1.473  0.00  0.00    -0.325 N 
ATOM     25  H   UNL     1      12.352  -3.229  -1.463  0.00  0.00    +0.145 HD
ATOM     26  H   UNL     1      13.207  -4.675  -1.491  0.00  0.00    +0.145 HD
ENDBRANCH  15  22
ENDBRANCH  11  14
BRANCH   8  27
ATOM     27  C   UNL     1       8.846  -3.591   6.968  0.00  0.00    +0.068 A 
ATOM     28  C   UNL     1       8.154  -2.423   7.261  0.00  0.00    +0.028 A 
ATOM     29  C   UNL     1       7.715  -2.187   8.548  0.00  0.00    +0.002 A 
ATOM     30  C   UNL     1       7.963  -3.112   9.546  0.00  0.00    +0.000 A 
ATOM     31  C   UNL     1       8.652  -4.276   9.258  0.00  0.00    +0.002 A 
ATOM     32  C   UNL     1       9.089  -4.521   7.971  0.00  0.00    +0.028 A 
ENDBRANCH   8  27
BRANCH   1  33
ATOM     33  C   UNL     1       5.507  -1.710   1.381  0.00  0.00    +0.105 C 
BRANCH  33  34
ATOM     34  C   UNL     1       4.171  -0.963   1.399  0.00  0.00    +0.023 C 
BRANCH  34  35
ATOM     35  C   UNL     1       3.711  -0.707  -0.038  0.00  0.00    +0.036 C 
BRANCH  35  39
ATOM     36  C   UNL     1      -0.017   1.378   0.010  0.00  0.00    +0.000 A 
ATOM     37  C   UNL     1       1.171   2.086   0.002  0.00  0.00    +0.000 A 
ATOM     38  C   UNL     1       2.377   1.411  -0.013  0.00  0.00    +0.003 A 
ATOM     39  C   UNL     1       2.396   0.029  -0.020  0.00  0.00    -0.047 A 
ATOM     40  C   UNL     1       1.208  -0.679  -0.012  0.00  0.00    +0.003 A 
ATOM     41  C   UNL     1       0.002  -0.004   0.002  0.00  0.00    +0.000 A 
ENDBRANCH  35  39
ENDBRANCH  34  35
ENDBRANCH  33  34
ENDBRANCH   1  33
TORSDOF 7
