REMARK  Name = ZINC36346532
REMARK  16 active torsions:
REMARK  status: ('A' for Active; 'I' for Inactive)
REMARK    1  A    between atoms: C_1  and  C_2
REMARK    2  A    between atoms: C_2  and  C_3
REMARK    3  A    between atoms: C_4  and  C_22
REMARK    4  A    between atoms: C_5  and  O_14
REMARK    5  A    between atoms: N_6  and  C_8
REMARK    6  A    between atoms: O_14  and  C_15
REMARK    7  A    between atoms: C_18  and  C_21
REMARK    8  A    between atoms: C_22  and  N_23
REMARK    9  A    between atoms: N_23  and  C_24
REMARK   10  A    between atoms: N_23  and  C_28
REMARK   11  A    between atoms: C_24  and  C_25
REMARK   12  A    between atoms: C_28  and  C_29
REMARK   13  A    between atoms: C_29  and  C_31
REMARK   14  A    between atoms: C_29  and  O_34
REMARK   15  A    between atoms: C_31  and  C_32
REMARK   16  A    between atoms: C_31  and  C_33
REMARK                            x       y       z     vdW  Elec       q    Type
REMARK                         _______ _______ _______ _____ _____    ______ ____
ROOT
ATOM      1  C   UNL     1       0.775   0.675   0.610  0.00  0.00    +0.068 A 
ATOM      2  C   UNL     1       2.030   0.065   0.700  0.00  0.00    +0.021 A 
ATOM      3  C   UNL     1       2.194  -0.367   1.979  0.00  0.00    +0.225 A 
ATOM      4  N   UNL     1       1.070  -0.035   2.669  0.00  0.00    -0.200 N 
ATOM      5  N   UNL     1       0.203   0.621   1.786  0.00  0.00    -0.168 NA
ENDROOT
BRANCH   4   6
ATOM      6  C   UNL     1       0.825  -0.298   4.024  0.00  0.00    +0.069 A 
ATOM      7  C   UNL     1       1.171  -1.528   4.568  0.00  0.00    +0.028 A 
ATOM      8  C   UNL     1       0.928  -1.784   5.903  0.00  0.00    +0.002 A 
ATOM      9  C   UNL     1       0.342  -0.816   6.698  0.00  0.00    +0.000 A 
ATOM     10  C   UNL     1      -0.004   0.409   6.160  0.00  0.00    +0.002 A 
ATOM     11  C   UNL     1       0.242   0.673   4.827  0.00  0.00    +0.028 A 
ENDBRANCH   4   6
BRANCH   1  13
ATOM     12  C   UNL     1       0.581   2.771  -0.700  0.00  0.00    +0.010 C 
ATOM     13  C   UNL     1       0.184   1.295  -0.630  0.00  0.00    +0.054 C 
ENDBRANCH   1  13
BRANCH   3  14
ATOM     14  O   UNL     1       3.280  -1.012   2.475  0.00  0.00    -0.438 OA
BRANCH  14  15
ATOM     15  C   UNL     1       3.340  -2.362   2.333  0.00  0.00    +0.130 A 
ATOM     16  C   UNL     1       2.367  -3.028   1.602  0.00  0.00    +0.046 A 
ATOM     17  C   UNL     1       2.431  -4.401   1.459  0.00  0.00    +0.007 A 
ATOM     18  C   UNL     1       3.463  -5.111   2.044  0.00  0.00    -0.050 A 
ATOM     19  C   UNL     1       4.434  -4.449   2.773  0.00  0.00    +0.007 A 
ATOM     20  C   UNL     1       4.378  -3.076   2.914  0.00  0.00    +0.046 A 
ATOM     21  C   UNL     1       3.529  -6.608   1.887  0.00  0.00    +0.044 C 
ENDBRANCH  14  15
ENDBRANCH   3  14
BRANCH   2  22
ATOM     22  C   UNL     1       3.025  -0.087  -0.422  0.00  0.00    -0.036 C 
BRANCH  22  23
ATOM     23  N   UNL     1       3.915   1.081  -0.449  0.00  0.00    +0.384 N 
ATOM     24  H   UNL     1       3.364   1.923  -0.512  0.00  0.00    -0.081 HD
BRANCH  23  25
ATOM     25  C   UNL     1       4.718   1.112   0.781  0.00  0.00    -0.075 C 
BRANCH  25  26
ATOM     26  C   UNL     1       5.548   2.397   0.816  0.00  0.00    -0.028 C 
ATOM     27  C   UNL     1       7.071   2.257   0.759  0.00  0.00    +0.002 C 
ATOM     28  C   UNL     1       6.387   2.663   2.067  0.00  0.00    +0.002 C 
ENDBRANCH  25  26
ENDBRANCH  23  25
BRANCH  23  29
ATOM     29  C   UNL     1       4.806   0.991  -1.613  0.00  0.00    -0.046 C 
BRANCH  29  30
ATOM     30  C   UNL     1       3.982   1.108  -2.897  0.00  0.00    +0.101 C 
BRANCH  30  31
ATOM     31  C   UNL     1       4.903   0.965  -4.109  0.00  0.00    +0.010 C 
ATOM     32  C   UNL     1       4.079   1.083  -5.393  0.00  0.00    +0.010 C 
ATOM     33  C   UNL     1       5.960   2.071  -4.080  0.00  0.00    +0.010 C 
ENDBRANCH  30  31
BRANCH  30  34
ATOM     34  O   UNL     1       3.338   2.383  -2.934  0.00  0.00    -0.393 OA
ATOM     35  H   UNL     1       3.950   3.131  -2.980  0.00  0.00    +0.210 HD
ENDBRANCH  30  34
ENDBRANCH  29  30
ENDBRANCH  23  29
ENDBRANCH  22  23
ENDBRANCH   2  22
TORSDOF 12
