REMARK  Name = ZINC37136952
REMARK  8 active torsions:
REMARK  status: ('A' for Active; 'I' for Inactive)
REMARK    1  A    between atoms: C_1  and  C_2
REMARK    2  A    between atoms: C_2  and  C_4
REMARK    3  A    between atoms: C_2  and  N_12
REMARK    4  A    between atoms: N_9  and  C_11
REMARK    5  A    between atoms: N_12  and  C_13
REMARK    6  A    between atoms: C_16  and  C_19
REMARK    7  A    between atoms: C_19  and  S_20
REMARK    8  A    between atoms: S_20  and  N_23
REMARK                            x       y       z     vdW  Elec       q    Type
REMARK                         _______ _______ _______ _____ _____    ______ ____
ROOT
ATOM      1  C   UNL     1      -2.075  -0.647  -1.187  0.00  0.00    +0.027 A 
ATOM      2  C   UNL     1      -1.471  -0.308  -2.390  0.00  0.00    +0.023 A 
ATOM      3  C   UNL     1      -2.169  -0.445  -3.574  0.00  0.00    +0.007 A 
ATOM      4  C   UNL     1      -3.468  -0.918  -3.562  0.00  0.00    -0.025 A 
ATOM      5  C   UNL     1      -4.073  -1.257  -2.366  0.00  0.00    +0.007 A 
ATOM      6  C   UNL     1      -3.379  -1.128  -1.179  0.00  0.00    +0.023 A 
ENDROOT
BRANCH   1   7
ATOM      7  N   UNL     1      -1.372  -0.511   0.012  0.00  0.00    -0.341 N 
ATOM      8  H   UNL     1      -1.794  -0.752   0.852  0.00  0.00    +0.146 HD
BRANCH   7  10
ATOM      9  C   UNL     1      -0.019   1.526   0.010  0.00  0.00    +0.028 C 
ATOM     10  C   UNL     1       0.002  -0.004   0.002  0.00  0.00    +0.069 C 
BRANCH  10  11
ATOM     11  C   UNL     1       0.742  -0.511   1.242  0.00  0.00    -0.008 C 
ATOM     12  C   UNL     1       0.765  -2.042   1.233  0.00  0.00    +0.002 C 
ATOM     13  C   UNL     1       1.575  -2.537   2.435  0.00  0.00    -0.018 C 
ATOM     14  C   UNL     1       2.981  -1.936   2.379  0.00  0.00    -0.079 C 
ATOM     15  N   UNL     1       2.892  -0.471   2.417  0.00  0.00    +0.378 N 
ATOM     16  C   UNL     1       2.179   0.017   1.230  0.00  0.00    -0.074 C 
ATOM     17  C   UNL     1       4.245   0.099   2.442  0.00  0.00    -0.096 C 
ATOM     18  H   UNL     1       2.394  -0.187   3.247  0.00  0.00    -0.082 HD
ENDBRANCH  10  11
ENDBRANCH   7  10
ENDBRANCH   1   7
BRANCH   4  19
ATOM     19  C   UNL     1      -4.227  -1.065  -4.856  0.00  0.00    +0.219 C 
BRANCH  19  20
ATOM     20  S   UNL     1      -3.950  -2.724  -5.535  0.00  0.00    +0.031 S 
ATOM     21  O   UNL     1      -2.598  -2.864  -5.947  0.00  0.00    -0.158 OA
ATOM     22  O   UNL     1      -4.559  -3.701  -4.702  0.00  0.00    -0.158 OA
BRANCH  20  23
ATOM     23  N   UNL     1      -4.826  -2.761  -6.939  0.00  0.00    -0.208 NA
ATOM     24  H   UNL     1      -5.334  -1.982  -7.215  0.00  0.00    +0.144 HD
ATOM     25  H   UNL     1      -4.832  -3.562  -7.487  0.00  0.00    +0.144 HD
ENDBRANCH  20  23
ENDBRANCH  19  20
ENDBRANCH   4  19
TORSDOF 6
