REMARK  Name = ZINC06637323
REMARK  9 active torsions:
REMARK  status: ('A' for Active; 'I' for Inactive)
REMARK    1  A    between atoms: C_1  and  C_2
REMARK    2  A    between atoms: C_2  and  C_4
REMARK    3  A    between atoms: C_2  and  N_17
REMARK    4  A    between atoms: N_6  and  C_7
REMARK    5  A    between atoms: C_10  and  N_14
REMARK    6  A    between atoms: N_17  and  C_18
REMARK    7  A    between atoms: C_18  and  C_19
REMARK    8  A    between atoms: C_22  and  S_25
REMARK    9  A    between atoms: S_25  and  N_28
REMARK                            x       y       z     vdW  Elec       q    Type
REMARK                         _______ _______ _______ _____ _____    ______ ____
ROOT
ATOM      1  C   UNL     1      -0.021   1.539   0.029  0.00  0.00    -0.004 C 
ATOM      2  C   UNL     1      -0.002   0.009   0.010  0.00  0.00    +0.014 C 
ENDROOT
BRANCH   2   3
ATOM      3  C   UNL     1       0.730  -0.500   1.224  0.00  0.00    +0.203 C 
ATOM      4  O   UNL     1       0.159  -1.215   2.021  0.00  0.00    -0.277 OA
ATOM      5  N   UNL     1       2.019  -0.161   1.426  0.00  0.00    -0.286 N 
ATOM      6  H   UNL     1       2.499   0.343   0.750  0.00  0.00    +0.155 HD
BRANCH   5   7
ATOM      7  C   UNL     1       2.664  -0.537   2.609  0.00  0.00    +0.052 A 
ATOM      8  C   UNL     1       1.925  -0.778   3.759  0.00  0.00    +0.027 A 
ATOM      9  C   UNL     1       2.565  -1.149   4.926  0.00  0.00    +0.034 A 
ATOM     10  C   UNL     1       3.941  -1.281   4.950  0.00  0.00    +0.128 A 
ATOM     11  C   UNL     1       4.682  -1.041   3.807  0.00  0.00    +0.054 A 
ATOM     12  C   UNL     1       4.047  -0.675   2.635  0.00  0.00    +0.064 A 
ATOM     13 CL   UNL     1       4.976  -0.381   1.198  0.00  0.00    -0.082 Cl
BRANCH  10  14
ATOM     14  N   UNL     1       4.623  -1.678   6.202  0.00  0.00    +0.056 N 
ATOM     15  O   UNL     1       3.977  -1.887   7.202  0.00  0.00    -0.126 OA
ATOM     16  O   UNL     1       5.827  -1.793   6.224  0.00  0.00    -0.126 OA
ENDBRANCH  10  14
ENDBRANCH   5   7
ENDBRANCH   2   3
BRANCH   2  17
ATOM     17  N   UNL     1      -1.381  -0.498   0.021  0.00  0.00    +0.389 N 
ATOM     18  H   UNL     1      -1.369  -1.504   0.090  0.00  0.00    -0.084 HD
ATOM     19  H   UNL     1      -1.875  -0.112   0.811  0.00  0.00    -0.084 HD
BRANCH  17  20
ATOM     20  C   UNL     1      -2.058  -0.102  -1.221  0.00  0.00    -0.046 C 
BRANCH  20  21
ATOM     21  C   UNL     1      -3.473  -0.622  -1.210  0.00  0.00    -0.064 A 
ATOM     22  C   UNL     1      -3.753  -1.874  -1.723  0.00  0.00    +0.003 A 
ATOM     23  C   UNL     1      -5.050  -2.351  -1.713  0.00  0.00    +0.029 A 
ATOM     24  C   UNL     1      -6.067  -1.576  -1.189  0.00  0.00    +0.105 A 
ATOM     25  C   UNL     1      -5.787  -0.323  -0.674  0.00  0.00    +0.029 A 
ATOM     26  C   UNL     1      -4.489   0.152  -0.681  0.00  0.00    +0.003 A 
BRANCH  24  27
ATOM     27  S   UNL     1      -7.721  -2.183  -1.177  0.00  0.00    +0.056 S 
ATOM     28  O   UNL     1      -8.572  -1.045  -1.130  0.00  0.00    -0.153 OA
ATOM     29  O   UNL     1      -7.805  -3.155  -2.210  0.00  0.00    -0.153 OA
BRANCH  27  30
ATOM     30  N   UNL     1      -7.935  -2.993   0.252  0.00  0.00    -0.204 NA
ATOM     31  H   UNL     1      -7.206  -3.054   0.889  0.00  0.00    +0.144 HD
ATOM     32  H   UNL     1      -8.790  -3.406   0.452  0.00  0.00    +0.144 HD
ENDBRANCH  27  30
ENDBRANCH  24  27
ENDBRANCH  20  21
ENDBRANCH  17  20
ENDBRANCH   2  17
TORSDOF 8
