REMARK  Name = ZINC40778194
REMARK  4 active torsions:
REMARK  status: ('A' for Active; 'I' for Inactive)
REMARK    1  A    between atoms: C_1  and  C_2
REMARK    2  A    between atoms: C_2  and  N_3
REMARK    3  A    between atoms: C_11  and  C_14
REMARK    4  A    between atoms: C_11  and  C_15
REMARK                            x       y       z     vdW  Elec       q    Type
REMARK                         _______ _______ _______ _____ _____    ______ ____
ROOT
ATOM      1  N   UNL     1      -1.374  -0.186  -0.220  0.00  0.00    -0.265 N 
ATOM      2  C   UNL     1      -1.797  -0.610   1.047  0.00  0.00    +0.078 A 
ATOM      3  C   UNL     1      -1.182  -0.131   2.193  0.00  0.00    +0.027 A 
ATOM      4  C   UNL     1      -1.620  -0.549   3.436  0.00  0.00    +0.002 A 
ATOM      5  C   UNL     1      -2.670  -1.443   3.538  0.00  0.00    +0.004 A 
ATOM      6  C   UNL     1      -3.286  -1.928   2.398  0.00  0.00    +0.047 A 
ATOM      7  C   UNL     1      -2.848  -1.518   1.150  0.00  0.00    +0.144 A 
ATOM      8  O   UNL     1      -3.425  -2.013   0.022  0.00  0.00    -0.465 OA
ATOM      9  C   UNL     1      -3.466  -1.150  -1.117  0.00  0.00    +0.258 C 
ATOM     10  C   UNL     1      -2.127  -0.482  -1.299  0.00  0.00    +0.273 C 
ATOM     11  O   UNL     1      -1.727  -0.215  -2.413  0.00  0.00    -0.270 OA
ATOM     12  C   UNL     1      -4.539  -0.080  -0.906  0.00  0.00    +0.076 C 
ENDROOT
BRANCH   9  13
ATOM     13  C   UNL     1      -3.799  -1.957  -2.345  0.00  0.00    +0.269 C 
ATOM     14  O   UNL     1      -3.194  -1.764  -3.379  0.00  0.00    -0.271 OA
ATOM     15  N   UNL     1      -4.768  -2.892  -2.296  0.00  0.00    -0.293 N 
ATOM     16  C   UNL     1      -5.609  -3.060  -1.099  0.00  0.00    +0.113 C 
ATOM     17  C   UNL     1      -7.048  -2.719  -1.485  0.00  0.00    +0.054 C 
ATOM     18  C   UNL     1      -7.437  -3.409  -2.765  0.00  0.00    -0.041 A 
ATOM     19  C   UNL     1      -8.793  -3.560  -3.030  0.00  0.00    +0.004 A 
ATOM     20  C   UNL     1      -9.218  -4.174  -4.189  0.00  0.00    +0.000 A 
ATOM     21  C   UNL     1      -8.289  -4.644  -5.099  0.00  0.00    +0.000 A 
ATOM     22  C   UNL     1      -6.942  -4.498  -4.838  0.00  0.00    +0.005 A 
ATOM     23  C   UNL     1      -6.513  -3.886  -3.668  0.00  0.00    -0.027 A 
ATOM     24  C   UNL     1      -5.031  -3.779  -3.434  0.00  0.00    +0.143 C 
ENDBRANCH   9  13
BRANCH   1  26
ATOM     25  C   UNL     1      -0.430   2.070  -0.248  0.00  0.00    +0.025 C 
ATOM     26  C   UNL     1      -0.131   0.575  -0.369  0.00  0.00    +0.110 C 
ENDBRANCH   1  26
TORSDOF 2
