REMARK  Name = ZINC15675851
REMARK  9 active torsions:
REMARK  status: ('A' for Active; 'I' for Inactive)
REMARK    1  A    between atoms: C_1  and  C_2
REMARK    2  A    between atoms: C_11  and  C_24
REMARK    3  A    between atoms: C_11  and  C_25
REMARK    4  A    between atoms: N_12  and  C_15
REMARK    5  A    between atoms: C_15  and  C_16
REMARK    6  A    between atoms: C_16  and  N_80
REMARK    7  A    between atoms: C_17  and  N_80
REMARK    8  A    between atoms: C_18  and  N_80
REMARK    9  A    between atoms: N_27  and  C_28
REMARK                            x       y       z     vdW  Elec       q    Type
REMARK                         _______ _______ _______ _____ _____    ______ ____
ROOT
ATOM      1  C   UNL     1      -4.547   7.029  -1.134  0.00  0.00    +0.086 C 
ATOM      2  C   UNL     1      -3.801   6.216  -0.108  0.00  0.00    +0.105 A 
ATOM      3  C   UNL     1      -4.191   5.021   0.369  0.00  0.00    +0.071 A 
ATOM      4  C   UNL     1      -3.216   4.604   1.307  0.00  0.00    +0.088 A 
ATOM      5  C   UNL     1      -2.254   5.613   1.339  0.00  0.00    +0.154 A 
ATOM      6  O   UNL     1      -2.643   6.572   0.472  0.00  0.00    -0.458 OA
ATOM      7  C   UNL     1      -1.264   5.226   2.255  0.00  0.00    +0.079 A 
ATOM      8  C   UNL     1      -1.625   4.012   2.759  0.00  0.00    +0.109 A 
ATOM      9  N   UNL     1      -2.836   3.634   2.184  0.00  0.00    -0.331 N 
ATOM     10  C   UNL     1      -3.501   2.379   2.548  0.00  0.00    +0.157 C 
ATOM     11  C   UNL     1      -2.446   1.350   2.951  0.00  0.00    +0.128 C 
ATOM     12  N   UNL     1      -1.456   1.894   3.874  0.00  0.00    -0.282 N 
ATOM     13  C   UNL     1      -0.950   3.141   3.729  0.00  0.00    +0.264 C 
ATOM     14  O   UNL     1       0.015   3.519   4.368  0.00  0.00    -0.268 OA
ATOM     15  C   UNL     1      -3.143   0.164   3.620  0.00  0.00    +0.043 C 
ENDROOT
BRANCH  11  16
ATOM     16  C   UNL     1      -1.741   0.864   1.711  0.00  0.00    +0.238 C 
ATOM     17  O   UNL     1      -2.112  -0.151   1.161  0.00  0.00    -0.273 OA
ATOM     18  N   UNL     1      -0.698   1.558   1.214  0.00  0.00    -0.311 N 
ATOM     19  H   UNL     1      -0.402   2.370   1.653  0.00  0.00    +0.149 HD
BRANCH  18  20
ATOM     20  C   UNL     1      -0.013   1.086   0.008  0.00  0.00    +0.073 C 
ATOM     21  C   UNL     1      -0.753   1.593  -1.231  0.00  0.00    +0.022 C 
ATOM     22  C   UNL     1       0.150   1.452  -2.458  0.00  0.00    +0.002 C 
ATOM     23  C   UNL     1       0.200  -0.015  -2.889  0.00  0.00    +0.000 C 
ATOM     24  C   UNL     1       1.104  -0.797  -1.935  0.00  0.00    +0.000 C 
ATOM     25  C   UNL     1       2.376   0.008  -1.661  0.00  0.00    +0.000 C 
ATOM     26  C   UNL     1       2.395   0.450  -0.196  0.00  0.00    +0.002 C 
ATOM     27  C   UNL     1       1.423   1.615  -0.003  0.00  0.00    +0.022 C 
ENDBRANCH  18  20
ENDBRANCH  11  16
BRANCH  12  28
ATOM     28  C   UNL     1      -0.996   1.066   4.992  0.00  0.00    +0.091 C 
BRANCH  28  29
ATOM     29  C   UNL     1       0.223   0.251   4.555  0.00  0.00    -0.060 C 
BRANCH  29  31
ATOM     30  C   UNL     1       1.195   0.254   6.772  0.00  0.00    -0.096 C 
ATOM     31  N   UNL     1       0.662  -0.594   5.685  0.00  0.00    +0.381 N 
ATOM     32  H   UNL     1      -0.145  -1.122   6.039  0.00  0.00    -0.082 HD
BRANCH  31  33
ATOM     33  C   UNL     1       1.698  -1.546   5.232  0.00  0.00    -0.069 C 
ATOM     34  C   UNL     1       1.098  -2.458   4.160  0.00  0.00    -0.015 C 
ATOM     35  C   UNL     1       2.153  -3.465   3.699  0.00  0.00    -0.002 C 
ATOM     36  C   UNL     1       2.608  -4.310   4.890  0.00  0.00    -0.000 C 
ATOM     37  C   UNL     1       3.208  -3.397   5.962  0.00  0.00    -0.002 C 
ATOM     38  C   UNL     1       2.152  -2.391   6.424  0.00  0.00    -0.015 C 
ENDBRANCH  31  33
ENDBRANCH  29  31
ENDBRANCH  28  29
ENDBRANCH  12  28
TORSDOF 6
