REMARK  Name = ZINC44762925
REMARK  4 active torsions:
REMARK  status: ('A' for Active; 'I' for Inactive)
REMARK    1  A    between atoms: C_4  and  C_7
REMARK    2  A    between atoms: C_4  and  C_9
REMARK    3  A    between atoms: C_7  and  N_8
REMARK    4  A    between atoms: N_11  and  C_12
REMARK                            x       y       z     vdW  Elec       q    Type
REMARK                         _______ _______ _______ _____ _____    ______ ____
ROOT
ATOM      1  C   UNL     1       0.675   1.974  -0.275  0.00  0.00    +0.000 C 
ATOM      2  C   UNL     1       2.196   2.107  -0.171  0.00  0.00    +0.001 C 
ATOM      3  C   UNL     1       2.676   1.471   1.135  0.00  0.00    +0.014 C 
ATOM      4  C   UNL     1       2.291  -0.010   1.152  0.00  0.00    +0.031 C 
ATOM      5  C   UNL     1       0.771  -0.143   1.049  0.00  0.00    +0.014 C 
ATOM      6  C   UNL     1       0.291   0.493  -0.258  0.00  0.00    +0.001 C 
ENDROOT
BRANCH   4   7
ATOM      7  C   UNL     1       2.938  -0.710  -0.015  0.00  0.00    +0.218 C 
ATOM      8  O   UNL     1       2.263  -1.373  -0.774  0.00  0.00    -0.275 OA
ATOM      9  N   UNL     1       4.266  -0.600  -0.215  0.00  0.00    -0.312 N 
ATOM     10  H   UNL     1       4.794  -0.012   0.347  0.00  0.00    +0.149 HD
BRANCH   9  11
ATOM     11  C   UNL     1       4.912  -1.367  -1.283  0.00  0.00    +0.077 C 
ATOM     12  C   UNL     1       5.266  -2.765  -0.767  0.00  0.00    +0.050 C 
ATOM     13  C   UNL     1       6.010  -3.532  -1.863  0.00  0.00    +0.161 C 
ATOM     14  O   UNL     1       7.177  -2.802  -2.245  0.00  0.00    -0.380 OA
ATOM     15  C   UNL     1       6.905  -1.505  -2.779  0.00  0.00    +0.161 C 
ATOM     16  C   UNL     1       6.197  -0.656  -1.720  0.00  0.00    +0.050 C 
ENDBRANCH   9  11
ENDBRANCH   4   7
BRANCH   4  17
ATOM     17  C   UNL     1       2.771  -0.646   2.458  0.00  0.00    -0.070 C 
BRANCH  17  18
ATOM     18  N   UNL     1       2.353  -2.054   2.500  0.00  0.00    +0.379 N 
ATOM     19  H   UNL     1       2.631  -2.461   3.380  0.00  0.00    -0.090 HD
ATOM     20  H   UNL     1       1.350  -2.110   2.405  0.00  0.00    -0.090 HD
ATOM     21  H   UNL     1       2.791  -2.557   1.743  0.00  0.00    -0.090 HD
ENDBRANCH  17  18
ENDBRANCH   4  17
TORSDOF 4
