REMARK  Name = ZINC02459703
REMARK  4 active torsions:
REMARK  status: ('A' for Active; 'I' for Inactive)
REMARK    1  A    between atoms: C_1  and  C_2
REMARK    2  A    between atoms: C_5  and  S_23
REMARK    3  A    between atoms: C_10  and  C_11
REMARK    4  A    between atoms: S_23  and  N_26
REMARK                            x       y       z     vdW  Elec       q    Type
REMARK                         _______ _______ _______ _____ _____    ______ ____
ROOT
ATOM      1  C   UNL     1      -0.118   1.489   0.004  0.00  0.00    +0.048 C 
ATOM      2  C   UNL     1       0.006  -0.013   0.001  0.00  0.00    +0.008 A 
ATOM      3  C   UNL     1       0.088  -0.886  -1.170  0.00  0.00    +0.026 A 
ATOM      4  C   UNL     1       0.079  -0.668  -2.550  0.00  0.00    +0.040 A 
ATOM      5  C   UNL     1       0.174  -1.730  -3.404  0.00  0.00    +0.106 A 
ATOM      6  C   UNL     1       0.278  -3.023  -2.909  0.00  0.00    +0.032 A 
ATOM      7  C   UNL     1       0.287  -3.259  -1.552  0.00  0.00    +0.049 A 
ATOM      8  C   UNL     1       0.193  -2.194  -0.663  0.00  0.00    +0.136 A 
ATOM      9  O   UNL     1       0.177  -2.113   0.682  0.00  0.00    -0.450 OA
ATOM     10  C   UNL     1       0.072  -0.829   1.084  0.00  0.00    +0.194 A 
ENDROOT
BRANCH  10  11
ATOM     11  C   UNL     1       0.031  -0.382   2.484  0.00  0.00    +0.283 C 
ATOM     12  O   UNL     1       0.069   0.806   2.744  0.00  0.00    -0.267 OA
ATOM     13  N   UNL     1      -0.048  -1.288   3.478  0.00  0.00    -0.290 N 
ATOM     14  C   UNL     1      -0.159  -0.871   4.886  0.00  0.00    +0.113 C 
ATOM     15  C   UNL     1      -1.515  -1.344   5.410  0.00  0.00    +0.054 C 
ATOM     16  C   UNL     1      -1.759  -2.784   5.043  0.00  0.00    -0.041 A 
ATOM     17  C   UNL     1      -2.707  -3.484   5.779  0.00  0.00    +0.004 A 
ATOM     18  C   UNL     1      -2.986  -4.803   5.489  0.00  0.00    +0.000 A 
ATOM     19  C   UNL     1      -2.319  -5.436   4.456  0.00  0.00    +0.000 A 
ATOM     20  C   UNL     1      -1.375  -4.744   3.726  0.00  0.00    +0.005 A 
ATOM     21  C   UNL     1      -1.089  -3.418   4.021  0.00  0.00    -0.027 A 
ATOM     22  C   UNL     1      -0.034  -2.728   3.201  0.00  0.00    +0.143 C 
ENDBRANCH  10  11
BRANCH   5  23
ATOM     23  S   UNL     1       0.163  -1.457  -5.144  0.00  0.00    +0.061 S 
ATOM     24  O   UNL     1      -0.285  -2.666  -5.742  0.00  0.00    -0.153 OA
ATOM     25  O   UNL     1      -0.492  -0.214  -5.356  0.00  0.00    -0.153 OA
BRANCH  23  26
ATOM     26  N   UNL     1       1.736  -1.250  -5.617  0.00  0.00    -0.177 NA
ATOM     27  C   UNL     1       2.291   0.085  -5.613  0.00  0.00    +0.109 C 
ATOM     28  C   UNL     1       2.036   0.758  -6.984  0.00  0.00    +0.017 C 
ATOM     29  C   UNL     1       2.880   0.144  -8.020  0.00  0.00    +0.001 C 
ATOM     30  C   UNL     1       2.597  -1.335  -8.267  0.00  0.00    +0.001 C 
ATOM     31  C   UNL     1       3.373  -2.165  -7.274  0.00  0.00    +0.017 C 
ATOM     32  C   UNL     1       2.516  -2.437  -6.020  0.00  0.00    +0.109 C 
ENDBRANCH  23  26
ENDBRANCH   5  23
TORSDOF 3
