REMARK  Name = ZINC29126338
REMARK  7 active torsions:
REMARK  status: ('A' for Active; 'I' for Inactive)
REMARK    1  A    between atoms: C_1  and  C_2
REMARK    2  A    between atoms: C_2  and  C_3
REMARK    3  A    between atoms: C_2  and  C_4
REMARK    4  A    between atoms: C_2  and  C_12
REMARK    5  A    between atoms: N_10  and  C_11
REMARK    6  A    between atoms: N_14  and  C_15
REMARK    7  A    between atoms: C_24  and  C_27
REMARK                            x       y       z     vdW  Elec       q    Type
REMARK                         _______ _______ _______ _____ _____    ______ ____
ROOT
ATOM      1  C   UNL     1       0.677  -0.234  -1.326  0.00  0.00    +0.223 C 
ATOM      2  O   UNL     1       0.053  -0.714  -2.248  0.00  0.00    -0.275 OA
ATOM      3  N   UNL     1       1.974   0.095  -1.488  0.00  0.00    -0.311 N 
ATOM      4  H   UNL     1       2.473   0.479  -0.750  0.00  0.00    +0.149 HD
ENDROOT
BRANCH   3   5
ATOM      5  C   UNL     1       2.631  -0.128  -2.778  0.00  0.00    +0.079 C 
ATOM      6  C   UNL     1       2.365   1.065  -3.699  0.00  0.00    +0.011 C 
ATOM      7  C   UNL     1       3.050   0.832  -5.046  0.00  0.00    +0.009 C 
ATOM      8  C   UNL     1       4.558   0.678  -4.832  0.00  0.00    -0.009 C 
ATOM      9  C   UNL     1       4.823  -0.515  -3.912  0.00  0.00    +0.009 C 
ATOM     10  C   UNL     1       4.138  -0.282  -2.564  0.00  0.00    +0.011 C 
ATOM     11  C   UNL     1       4.694   0.991  -1.923  0.00  0.00    +0.021 C 
ATOM     12  C   UNL     1       4.428   2.184  -2.843  0.00  0.00    +0.048 C 
ATOM     13  C   UNL     1       2.921   2.338  -3.057  0.00  0.00    +0.021 C 
ATOM     14  C   UNL     1       5.114   1.951  -4.191  0.00  0.00    +0.019 C 
BRANCH  12  15
ATOM     15  C   UNL     1       4.976   3.438  -2.211  0.00  0.00    +0.217 C 
ATOM     16  O   UNL     1       5.525   3.382  -1.131  0.00  0.00    -0.275 OA
ATOM     17  N   UNL     1       4.856   4.620  -2.846  0.00  0.00    -0.329 N 
ATOM     18  H   UNL     1       4.417   4.665  -3.710  0.00  0.00    +0.145 HD
ATOM     19  H   UNL     1       5.209   5.427  -2.439  0.00  0.00    +0.145 HD
ENDBRANCH  12  15
ENDBRANCH   3   5
BRANCH   1  21
ATOM     20  C   UNL     1      -0.070   1.498   0.284  0.00  0.00    +0.025 C 
ATOM     21  C   UNL     1       0.002  -0.004   0.002  0.00  0.00    +0.068 C 
ATOM     22  C   UNL     1       0.804  -0.693   1.108  0.00  0.00    +0.025 C 
BRANCH  21  23
ATOM     23  C   UNL     1      -1.392  -0.576  -0.038  0.00  0.00    -0.017 A 
ATOM     24  C   UNL     1      -2.496   0.263   0.045  0.00  0.00    +0.009 A 
ATOM     25  C   UNL     1      -3.758  -0.302   0.005  0.00  0.00    +0.042 A 
ATOM     26  C   UNL     1      -3.877  -1.683  -0.117  0.00  0.00    +0.096 A 
ATOM     27  N   UNL     1      -2.800  -2.449  -0.193  0.00  0.00    -0.350 N 
ATOM     28  C   UNL     1      -1.584  -1.937  -0.163  0.00  0.00    +0.088 A 
ATOM     29  N   UNL     1      -5.139  -2.264  -0.158  0.00  0.00    -0.334 N 
ATOM     30  C   UNL     1      -6.336  -1.424  -0.073  0.00  0.00    +0.127 C 
ATOM     31  H   UNL     1      -5.228  -3.227  -0.242  0.00  0.00    +0.147 HD
ATOM     32  H   UNL     1      -2.907  -3.409  -0.277  0.00  0.00    +0.167 HD
ENDBRANCH  21  23
ENDBRANCH   1  21
TORSDOF 4
