REMARK  Name = ZINC62553035
REMARK  4 active torsions:
REMARK  status: ('A' for Active; 'I' for Inactive)
REMARK    1  A    between atoms: C_1  and  C_2
REMARK    2  A    between atoms: N_8  and  S_14
REMARK    3  A    between atoms: C_11  and  O_13
REMARK    4  A    between atoms: S_14  and  C_17
REMARK                            x       y       z     vdW  Elec       q    Type
REMARK                         _______ _______ _______ _____ _____    ______ ____
ROOT
ATOM      1  C   UNL     1      -1.178  -0.054   2.067  0.00  0.00    +0.046 C 
ATOM      2  C   UNL     1      -0.711  -0.875   3.241  0.00  0.00    -0.027 A 
ATOM      3  C   UNL     1      -1.253  -2.124   3.468  0.00  0.00    +0.005 A 
ATOM      4  C   UNL     1      -0.823  -2.876   4.546  0.00  0.00    +0.001 A 
ATOM      5  C   UNL     1       0.145  -2.380   5.397  0.00  0.00    +0.008 A 
ATOM      6  C   UNL     1       0.693  -1.127   5.178  0.00  0.00    +0.004 A 
ATOM      7  C   UNL     1       0.269  -0.377   4.091  0.00  0.00    +0.060 A 
ATOM      8  N   UNL     1       0.816   0.886   3.835  0.00  0.00    -0.202 N 
ATOM      9  C   UNL     1       1.620   1.537   4.878  0.00  0.00    +0.134 C 
ATOM     10  C   UNL     1       2.575   0.485   5.458  0.00  0.00    +0.057 C 
ATOM     11  C   UNL     1       1.742  -0.614   6.128  0.00  0.00    +0.148 C 
ENDROOT
BRANCH   8  12
ATOM     12  S   UNL     1       0.560   1.634   2.380  0.00  0.00    +0.075 S 
ATOM     13  O   UNL     1       1.556   2.641   2.261  0.00  0.00    -0.150 OA
ATOM     14  O   UNL     1       0.399   0.603   1.416  0.00  0.00    -0.150 OA
BRANCH  12  15
ATOM     15  C   UNL     1      -0.988   2.469   2.489  0.00  0.00    +0.112 A 
ATOM     16  C   UNL     1      -1.728   2.703   1.344  0.00  0.00    +0.032 A 
ATOM     17  C   UNL     1      -2.942   3.358   1.425  0.00  0.00    +0.051 A 
ATOM     18  C   UNL     1      -3.423   3.781   2.655  0.00  0.00    +0.162 A 
ATOM     19  C   UNL     1      -2.681   3.543   3.806  0.00  0.00    +0.164 A 
ATOM     20  C   UNL     1      -1.465   2.882   3.718  0.00  0.00    +0.078 A 
ATOM     21  O   UNL     1      -3.138   3.942   5.024  0.00  0.00    -0.485 OA
ATOM     22  C   UNL     1      -4.181   4.923   5.030  0.00  0.00    +0.270 C 
ATOM     23  C   UNL     1      -5.243   4.502   4.005  0.00  0.00    +0.270 C 
ATOM     24  O   UNL     1      -4.619   4.428   2.719  0.00  0.00    -0.485 OA
ENDBRANCH  12  15
ENDBRANCH   8  12
BRANCH  11  25
ATOM     25  O   UNL     1       2.609  -1.687   6.499  0.00  0.00    -0.387 OA
ATOM     26  H   UNL     1       3.312  -1.431   7.112  0.00  0.00    +0.210 HD
ENDBRANCH  11  25
TORSDOF 3
