REMARK  Name = ZINC39726889
REMARK  10 active torsions:
REMARK  status: ('A' for Active; 'I' for Inactive)
REMARK    1  A    between atoms: C_1  and  C_2
REMARK    2  A    between atoms: C_2  and  N_3
REMARK    3  A    between atoms: C_4  and  C_29
REMARK    4  A    between atoms: C_8  and  S_9
REMARK    5  A    between atoms: S_9  and  C_10
REMARK    6  A    between atoms: C_10  and  C_12
REMARK    7  A    between atoms: C_10  and  C_18
REMARK    8  A    between atoms: C_18  and  C_20
REMARK    9  A    between atoms: C_29  and  C_30
REMARK   10  A    between atoms: C_30  and  C_31
REMARK                            x       y       z     vdW  Elec       q    Type
REMARK                         _______ _______ _______ _____ _____    ______ ____
ROOT
ATOM      1  C   UNL     1      -3.066  -1.100  -3.744  0.00  0.00    +0.155 C 
ENDROOT
BRANCH   1   2
ATOM      2  C   UNL     1      -4.213  -0.154  -3.500  0.00  0.00    -0.027 A 
ATOM      3  C   UNL     1      -4.077   1.189  -3.801  0.00  0.00    +0.005 A 
ATOM      4  C   UNL     1      -5.129   2.057  -3.577  0.00  0.00    +0.000 A 
ATOM      5  C   UNL     1      -6.317   1.583  -3.053  0.00  0.00    +0.000 A 
ATOM      6  C   UNL     1      -6.453   0.241  -2.753  0.00  0.00    +0.000 A 
ATOM      7  C   UNL     1      -5.403  -0.628  -2.981  0.00  0.00    +0.005 A 
ENDBRANCH   1   2
BRANCH   1   8
ATOM      8  C   UNL     1      -2.705  -1.084  -5.207  0.00  0.00    +0.179 C 
ATOM      9  O   UNL     1      -1.813  -0.362  -5.604  0.00  0.00    -0.291 OA
BRANCH   8  10
ATOM     10  C   UNL     1      -3.402  -1.909  -6.115  0.00  0.00    +0.025 C 
ATOM     11  C   UNL     1      -3.192  -2.017  -7.478  0.00  0.00    +0.006 A 
ATOM     12  C   UNL     1      -2.283  -1.392  -8.364  0.00  0.00    +0.010 A 
ATOM     13  C   UNL     1      -2.300  -1.693  -9.682  0.00  0.00    +0.001 A 
ATOM     14  C   UNL     1      -3.198  -2.622 -10.232  0.00  0.00    +0.002 A 
ATOM     15  C   UNL     1      -4.106  -3.273  -9.473  0.00  0.00    +0.026 A 
ATOM     16  C   UNL     1      -4.155  -3.003  -8.026  0.00  0.00    +0.043 A 
ATOM     17  N   UNL     1      -4.912  -3.478  -7.078  0.00  0.00    -0.380 N 
ATOM     18  C   UNL     1      -4.531  -2.866  -5.801  0.00  0.00    +0.152 C 
ATOM     19  H   UNL     1      -5.614  -4.136  -7.198  0.00  0.00    +0.160 HD
ENDBRANCH   8  10
ENDBRANCH   1   8
BRANCH   1  20
ATOM     20  S   UNL     1      -1.633  -0.580  -2.761  0.00  0.00    -0.073 S 
BRANCH  20  25
ATOM     21  N   UNL     1      -1.372  -0.511   0.012  0.00  0.00    -0.289 N 
ATOM     22  C   UNL     1      -2.189  -0.817   1.199  0.00  0.00    +0.177 C 
ATOM     23  N   UNL     1      -3.467  -1.286   0.638  0.00  0.00    -0.246 N 
ATOM     24  N   UNL     1      -3.326  -1.229  -0.754  0.00  0.00    -0.163 NA
ATOM     25  C   UNL     1      -2.161  -0.792  -1.093  0.00  0.00    +0.176 C 
ATOM     26  H   UNL     1      -4.250  -1.577   1.133  0.00  0.00    +0.170 HD
BRANCH  21  28
ATOM     27  C   UNL     1      -0.019   1.526   0.010  0.00  0.00    +0.024 C 
ATOM     28  C   UNL     1       0.002  -0.004   0.002  0.00  0.00    +0.105 C 
ENDBRANCH  21  28
BRANCH  22  29
ATOM     29  C   UNL     1      -2.400   0.441   2.044  0.00  0.00    +0.053 C 
BRANCH  29  30
ATOM     30  C   UNL     1      -3.143   0.073   3.330  0.00  0.00    +0.099 C 
BRANCH  30  31
ATOM     31  C   UNL     1      -3.351   1.313   4.162  0.00  0.00    +0.211 C 
ATOM     32  O   UNL     1      -2.945   2.385   3.766  0.00  0.00    -0.276 OA
ATOM     33  N   UNL     1      -3.988   1.230   5.347  0.00  0.00    -0.329 N 
ATOM     34  H   UNL     1      -4.312   0.372   5.664  0.00  0.00    +0.145 HD
ATOM     35  H   UNL     1      -4.122   2.027   5.883  0.00  0.00    +0.145 HD
ENDBRANCH  30  31
ENDBRANCH  29  30
ENDBRANCH  22  29
ENDBRANCH  20  25
ENDBRANCH   1  20
TORSDOF 9
