REMARK  Name = ZINC09342893
REMARK  12 active torsions:
REMARK  status: ('A' for Active; 'I' for Inactive)
REMARK    1  A    between atoms: C_1  and  C_2
REMARK    2  A    between atoms: C_2  and  C_3
REMARK    3  A    between atoms: C_3  and  C_5
REMARK    4  A    between atoms: C_3  and  N_6
REMARK    5  A    between atoms: N_6  and  S_7
REMARK    6  A    between atoms: S_7  and  C_10
REMARK    7  A    between atoms: C_13  and  N_16
REMARK    8  A    between atoms: C_17  and  C_19
REMARK    9  A    between atoms: C_19  and  C_20
REMARK   10  A    between atoms: C_20  and  N_21
REMARK   11  A    between atoms: N_21  and  S_22
REMARK   12  A    between atoms: S_22  and  C_25
REMARK                            x       y       z     vdW  Elec       q    Type
REMARK                         _______ _______ _______ _____ _____    ______ ____
ROOT
ATOM      1  N   UNL     1       6.333  -0.701  -2.045  0.00  0.00    -0.285 N 
ATOM      2  C   UNL     1       7.553  -0.688  -1.473  0.00  0.00    +0.218 C 
ATOM      3  O   UNL     1       7.680  -1.003  -0.308  0.00  0.00    -0.275 OA
ATOM      4  H   UNL     1       6.241  -0.524  -2.994  0.00  0.00    +0.155 HD
ENDROOT
BRANCH   1   8
ATOM      5  C   UNL     1       2.958  -1.500   0.263  0.00  0.00    +0.105 A 
ATOM      6  C   UNL     1       3.006  -1.915  -1.056  0.00  0.00    +0.030 A 
ATOM      7  C   UNL     1       4.122  -1.647  -1.825  0.00  0.00    +0.025 A 
ATOM      8  C   UNL     1       5.200  -0.970  -1.270  0.00  0.00    +0.033 A 
ATOM      9  C   UNL     1       5.150  -0.560   0.056  0.00  0.00    +0.025 A 
ATOM     10  C   UNL     1       4.030  -0.827   0.819  0.00  0.00    +0.030 A 
BRANCH   5  11
ATOM     11  S   UNL     1       1.530  -1.838   1.239  0.00  0.00    +0.059 S 
ATOM     12  O   UNL     1       1.955  -1.833   2.595  0.00  0.00    -0.153 OA
ATOM     13  O   UNL     1       0.889  -2.959   0.645  0.00  0.00    -0.153 OA
BRANCH  11  14
ATOM     14  N   UNL     1       0.500  -0.554   1.061  0.00  0.00    -0.187 NA
ATOM     15  H   UNL     1       0.292   0.010   1.822  0.00  0.00    +0.148 HD
BRANCH  14  16
ATOM     16  C   UNL     1      -0.096  -0.269  -0.246  0.00  0.00    +0.073 C 
ATOM     17  C   UNL     1      -1.478  -0.920  -0.329  0.00  0.00    +0.025 C 
BRANCH  16  19
ATOM     18  C   UNL     1       1.157   1.881  -0.468  0.00  0.00    +0.005 C 
ATOM     19  C   UNL     1      -0.234   1.244  -0.425  0.00  0.00    +0.017 C 
ENDBRANCH  16  19
ENDBRANCH  14  16
ENDBRANCH  11  14
ENDBRANCH   5  11
ENDBRANCH   1   8
BRANCH   2  20
ATOM     20  C   UNL     1       8.760  -0.283  -2.280  0.00  0.00    +0.113 C 
BRANCH  20  21
ATOM     21  C   UNL     1      10.009  -0.354  -1.400  0.00  0.00    +0.115 C 
BRANCH  21  22
ATOM     22  N   UNL     1      11.182   0.040  -2.184  0.00  0.00    -0.189 NA
ATOM     23  H   UNL     1      11.127   0.081  -3.152  0.00  0.00    +0.148 HD
BRANCH  22  24
ATOM     24  S   UNL     1      12.602   0.417  -1.419  0.00  0.00    +0.058 S 
ATOM     25  O   UNL     1      13.542   0.727  -2.438  0.00  0.00    -0.153 OA
ATOM     26  O   UNL     1      12.274   1.330  -0.381  0.00  0.00    -0.153 OA
BRANCH  24  27
ATOM     27  C   UNL     1      13.176  -1.053  -0.635  0.00  0.00    +0.105 A 
ATOM     28  C   UNL     1      12.796  -1.337   0.664  0.00  0.00    +0.029 A 
ATOM     29  C   UNL     1      13.243  -2.492   1.278  0.00  0.00    +0.017 A 
ATOM     30  C   UNL     1      14.078  -3.358   0.597  0.00  0.00    +0.018 A 
ATOM     31  C   UNL     1      14.462  -3.071  -0.701  0.00  0.00    +0.017 A 
ATOM     32  C   UNL     1      14.011  -1.919  -1.316  0.00  0.00    +0.029 A 
ATOM     33 BR   UNL     1      14.695  -4.935   1.438  0.00  0.00    -0.050 Br
ENDBRANCH  24  27
ENDBRANCH  22  24
ENDBRANCH  21  22
ENDBRANCH  20  21
ENDBRANCH   2  20
TORSDOF 10
