REMARK  Name = ZINC36847367
REMARK  9 active torsions:
REMARK  status: ('A' for Active; 'I' for Inactive)
REMARK    1  A    between atoms: C_1  and  C_2
REMARK    2  A    between atoms: C_4  and  C_23
REMARK    3  A    between atoms: C_6  and  N_8
REMARK    4  A    between atoms: N_8  and  C_9
REMARK    5  A    between atoms: C_9  and  N_11
REMARK    6  A    between atoms: N_11  and  C_12
REMARK    7  A    between atoms: C_12  and  C_13
REMARK    8  A    between atoms: C_16  and  S_19
REMARK    9  A    between atoms: S_19  and  C_22
REMARK                            x       y       z     vdW  Elec       q    Type
REMARK                         _______ _______ _______ _____ _____    ______ ____
ROOT
ATOM      1  N   UNL     1       0.267  -2.819   4.717  0.00  0.00    -0.322 N 
ATOM      2  H   UNL     1       0.281  -3.789   4.707  0.00  0.00    +0.148 HD
ENDROOT
BRANCH   1   3
ATOM      3  C   UNL     1       0.151  -2.134   3.562  0.00  0.00    +0.135 C 
ATOM      4  S   UNL     1       0.127  -0.423   3.580  0.00  0.00    -0.019 S 
BRANCH   3   5
ATOM      5  N   UNL     1       0.053  -2.797   2.392  0.00  0.00    -0.297 N 
ATOM      6  H   UNL     1      -0.015  -3.765   2.388  0.00  0.00    +0.154 HD
BRANCH   5  12
ATOM      7  C   UNL     1       1.852   0.834  -0.391  0.00  0.00    +0.044 C 
ATOM      8  C   UNL     1       0.910  -0.325  -0.191  0.00  0.00    -0.048 A 
ATOM      9  C   UNL     1       0.039  -0.690  -1.201  0.00  0.00    +0.006 A 
ATOM     10  C   UNL     1      -0.827  -1.753  -1.022  0.00  0.00    -0.048 A 
ATOM     11  C   UNL     1      -0.825  -2.454   0.169  0.00  0.00    +0.026 A 
ATOM     12  C   UNL     1       0.048  -2.090   1.186  0.00  0.00    +0.033 A 
ATOM     13  C   UNL     1       0.920  -1.025   1.000  0.00  0.00    +0.026 A 
ATOM     14  C   UNL     1      -1.774  -2.147  -2.125  0.00  0.00    +0.044 C 
ENDBRANCH   5  12
ENDBRANCH   3   5
ENDBRANCH   1   3
BRANCH   1  15
ATOM     15  C   UNL     1       0.374  -2.099   5.988  0.00  0.00    +0.138 C 
BRANCH  15  16
ATOM     16  C   UNL     1       0.493  -3.088   7.118  0.00  0.00    -0.030 A 
ATOM     17  C   UNL     1      -0.645  -3.564   7.743  0.00  0.00    +0.007 A 
ATOM     18  C   UNL     1      -0.536  -4.472   8.779  0.00  0.00    +0.027 A 
ATOM     19  C   UNL     1       0.711  -4.905   9.191  0.00  0.00    +0.088 A 
ATOM     20  C   UNL     1       1.849  -4.430   8.566  0.00  0.00    +0.027 A 
ATOM     21  C   UNL     1       1.740  -3.525   7.526  0.00  0.00    +0.007 A 
BRANCH  19  22
ATOM     22  S   UNL     1       0.850  -6.061  10.513  0.00  0.00    -0.006 S 
ATOM     23  O   UNL     1       2.136  -5.823  11.070  0.00  0.00    -0.170 OA
ATOM     24  O   UNL     1      -0.324  -5.866  11.290  0.00  0.00    -0.170 OA
ATOM     25  C   UNL     1       0.807  -7.689   9.714  0.00  0.00    +0.200 C 
ENDBRANCH  19  22
ENDBRANCH  15  16
ENDBRANCH   1  15
TORSDOF 6
