REMARK  Name = ZINC39934703
REMARK  9 active torsions:
REMARK  status: ('A' for Active; 'I' for Inactive)
REMARK    1  A    between atoms: C_1  and  C_2
REMARK    2  A    between atoms: C_2  and  O_3
REMARK    3  A    between atoms: O_3  and  C_4
REMARK    4  A    between atoms: C_6  and  C_20
REMARK    5  A    between atoms: C_9  and  N_10
REMARK    6  A    between atoms: N_10  and  C_11
REMARK    7  A    between atoms: C_15  and  C_17
REMARK    8  A    between atoms: C_21  and  C_22
REMARK    9  A    between atoms: C_21  and  C_24
REMARK                            x       y       z     vdW  Elec       q    Type
REMARK                         _______ _______ _______ _____ _____    ______ ____
ROOT
ATOM      1  C   UNL     1       0.707  -1.692  -1.478  0.00  0.00    +0.142 A 
ATOM      2  C   UNL     1      -0.297  -2.266  -0.725  0.00  0.00    +0.055 A 
ATOM      3  C   UNL     1      -0.794  -3.528  -1.072  0.00  0.00    -0.020 A 
ATOM      4  C   UNL     1      -0.270  -4.202  -2.182  0.00  0.00    +0.010 A 
ATOM      5  C   UNL     1       0.731  -3.623  -2.929  0.00  0.00    +0.027 A 
ATOM      6  C   UNL     1       1.221  -2.367  -2.587  0.00  0.00    +0.074 A 
ENDROOT
BRANCH   6   7
ATOM      7  N   UNL     1       2.232  -1.783  -3.350  0.00  0.00    -0.312 N 
ATOM      8  H   UNL     1       2.654  -0.963  -3.049  0.00  0.00    +0.152 HD
BRANCH   7   9
ATOM      9  C   UNL     1       2.635  -2.378  -4.548  0.00  0.00    +0.032 A 
ATOM     10  C   UNL     1       1.686  -2.899  -5.420  0.00  0.00    +0.023 A 
ATOM     11  C   UNL     1       2.080  -3.490  -6.606  0.00  0.00    +0.003 A 
ATOM     12  C   UNL     1       3.418  -3.567  -6.933  0.00  0.00    +0.015 A 
ATOM     13  C   UNL     1       4.381  -3.047  -6.064  0.00  0.00    +0.065 A 
ATOM     14  C   UNL     1       3.982  -2.445  -4.869  0.00  0.00    +0.038 A 
BRANCH  13  15
ATOM     15  C   UNL     1       5.813  -3.128  -6.411  0.00  0.00    +0.387 C 
ATOM     16  O   UNL     1       6.159  -3.652  -7.461  0.00  0.00    -0.241 OA
ATOM     17  O   UNL     1       6.653  -2.672  -5.649  0.00  0.00    -0.241 OA
ENDBRANCH  13  15
ENDBRANCH   7   9
ENDBRANCH   6   7
BRANCH   3  18
ATOM     18  C   UNL     1      -1.862  -4.144  -0.273  0.00  0.00    +0.026 C 
ATOM     19  C   UNL     1      -2.696  -5.043  -0.839  0.00  0.00    +0.072 C 
BRANCH  19  20
ATOM     20  C   UNL     1      -3.641  -5.841   0.022  0.00  0.00    +0.216 C 
ATOM     21  N   UNL     1      -3.417  -7.278  -0.181  0.00  0.00    -0.359 N 
ATOM     22  C   UNL     1      -4.525  -7.786  -0.637  0.00  0.00    +0.060 A 
ATOM     23  C   UNL     1      -4.915  -9.149  -1.024  0.00  0.00    +0.027 A 
ATOM     24  C   UNL     1      -6.164  -9.381  -1.473  0.00  0.00    +0.002 A 
ATOM     25  C   UNL     1      -7.129  -8.364  -1.590  0.00  0.00    +0.002 A 
ATOM     26  C   UNL     1      -6.876  -7.081  -1.263  0.00  0.00    +0.027 A 
ATOM     27  C   UNL     1      -5.546  -6.710  -0.761  0.00  0.00    +0.060 A 
ATOM     28  N   UNL     1      -5.029  -5.578  -0.377  0.00  0.00    -0.359 N 
ATOM     29  H   UNL     1      -2.593  -7.760  -0.007  0.00  0.00    +0.162 HD
ATOM     30  H   UNL     1      -5.479  -4.719  -0.357  0.00  0.00    +0.162 HD
ENDBRANCH  19  20
BRANCH  19  31
ATOM     31  C   UNL     1      -2.681  -5.239  -2.257  0.00  0.00    +0.099 C 
ATOM     32  N   UNL     1      -2.670  -5.394  -3.383  0.00  0.00    -0.191 NA
ENDBRANCH  19  31
ENDBRANCH   3  18
BRANCH   1  33
ATOM     33  O   UNL     1       1.191  -0.466  -1.144  0.00  0.00    -0.490 OA
BRANCH  33  35
ATOM     34  C   UNL     1       1.286   1.527   0.220  0.00  0.00    +0.048 C 
ATOM     35  C   UNL     1       0.619   0.168   0.002  0.00  0.00    +0.226 C 
ENDBRANCH  33  35
ENDBRANCH   1  33
TORSDOF 8
