REMARK  Name = ZINC49966460
REMARK  8 active torsions:
REMARK  status: ('A' for Active; 'I' for Inactive)
REMARK    1  A    between atoms: C_1  and  N_2
REMARK    2  A    between atoms: N_2  and  C_3
REMARK    3  A    between atoms: N_2  and  C_11
REMARK    4  A    between atoms: C_8  and  O_9
REMARK    5  A    between atoms: O_9  and  C_10
REMARK    6  A    between atoms: C_11  and  C_13
REMARK    7  A    between atoms: C_11  and  C_15
REMARK    8  A    between atoms: C_13  and  N_14
REMARK                            x       y       z     vdW  Elec       q    Type
REMARK                         _______ _______ _______ _____ _____    ______ ____
ROOT
ATOM      1  C   UNL     1      -0.111  -0.731  -1.265  0.00  0.00    +0.086 C 
ENDROOT
BRANCH   1   2
ATOM      2  C   UNL     1       1.096  -0.441  -2.119  0.00  0.00    -0.028 A 
ATOM      3  C   UNL     1       1.862  -1.483  -2.610  0.00  0.00    +0.008 A 
ATOM      4  C   UNL     1       2.968  -1.219  -3.394  0.00  0.00    +0.040 A 
ATOM      5  C   UNL     1       3.311   0.090  -3.689  0.00  0.00    +0.137 A 
ATOM      6  C   UNL     1       2.544   1.133  -3.197  0.00  0.00    +0.053 A 
ATOM      7  C   UNL     1       1.434   0.866  -2.417  0.00  0.00    +0.023 A 
ATOM      8 BR   UNL     1       3.010   2.921  -3.599  0.00  0.00    -0.047 Br
ATOM      9  F   UNL     1       4.393   0.349  -4.455  0.00  0.00    -0.204 F 
ENDBRANCH   1   2
BRANCH   1  11
ATOM     10  C   UNL     1      -0.141   1.525  -0.104  0.00  0.00    +0.130 C 
ATOM     11  N   UNL     1      -0.042   0.065  -0.037  0.00  0.00    -0.325 N 
BRANCH  11  12
ATOM     12  C   UNL     1       0.118  -0.570   1.200  0.00  0.00    +0.072 A 
ATOM     13  C   UNL     1      -0.994  -0.966   1.928  0.00  0.00    +0.027 A 
ATOM     14  C   UNL     1      -0.834  -1.593   3.150  0.00  0.00    +0.002 A 
ATOM     15  C   UNL     1       0.434  -1.827   3.649  0.00  0.00    +0.004 A 
ATOM     16  C   UNL     1       1.548  -1.435   2.929  0.00  0.00    +0.047 A 
ATOM     17  C   UNL     1       1.396  -0.811   1.702  0.00  0.00    +0.141 A 
BRANCH  17  18
ATOM     18  O   UNL     1       2.490  -0.429   0.990  0.00  0.00    -0.493 OA
ATOM     19  C   UNL     1       3.768  -0.709   1.566  0.00  0.00    +0.277 C 
ENDBRANCH  17  18
ENDBRANCH  11  12
ENDBRANCH   1  11
BRANCH   1  20
ATOM     20  C   UNL     1      -1.381  -0.369  -2.037  0.00  0.00    -0.059 C 
BRANCH  20  21
ATOM     21  N   UNL     1      -2.550  -0.538  -1.163  0.00  0.00    +0.380 N 
ATOM     22  H   UNL     1      -2.604  -1.498  -0.856  0.00  0.00    -0.090 HD
ATOM     23  H   UNL     1      -2.460   0.067  -0.360  0.00  0.00    -0.090 HD
ATOM     24  H   UNL     1      -3.388  -0.300  -1.672  0.00  0.00    -0.090 HD
ENDBRANCH  20  21
ENDBRANCH   1  20
TORSDOF 6
