REMARK  Name = ZINC28570416
REMARK  11 active torsions:
REMARK  status: ('A' for Active; 'I' for Inactive)
REMARK    1  A    between atoms: C_1  and  C_2
REMARK    2  A    between atoms: C_5  and  N_22
REMARK    3  A    between atoms: C_6  and  O_21
REMARK    4  A    between atoms: C_7  and  C_8
REMARK    5  A    between atoms: C_8  and  C_9
REMARK    6  A    between atoms: N_11  and  C_12
REMARK    7  A    between atoms: C_12  and  C_13
REMARK    8  A    between atoms: C_18  and  C_19
REMARK    9  A    between atoms: N_22  and  S_23
REMARK   10  A    between atoms: S_23  and  C_26
REMARK   11  A    between atoms: C_31  and  C_32
REMARK                            x       y       z     vdW  Elec       q    Type
REMARK                         _______ _______ _______ _____ _____    ______ ____
ROOT
ATOM      1  C   UNL     1       0.653   1.248   1.035  0.00  0.00    +0.044 C 
ATOM      2  C   UNL     1       0.497  -0.228   0.773  0.00  0.00    -0.043 A 
ATOM      3  C   UNL     1       0.398  -0.691  -0.526  0.00  0.00    +0.006 A 
ATOM      4  C   UNL     1       0.255  -2.043  -0.772  0.00  0.00    +0.028 A 
ATOM      5  C   UNL     1       0.211  -2.940   0.286  0.00  0.00    +0.090 A 
ATOM      6  C   UNL     1       0.312  -2.472   1.595  0.00  0.00    +0.143 A 
ATOM      7  C   UNL     1       0.461  -1.116   1.832  0.00  0.00    +0.008 A 
ENDROOT
BRANCH   6   8
ATOM      8  O   UNL     1       0.270  -3.346   2.636  0.00  0.00    -0.505 OA
ATOM      9  H   UNL     1       1.136  -3.686   2.900  0.00  0.00    +0.292 HD
ENDBRANCH   6   8
BRANCH   5  10
ATOM     10  N   UNL     1       0.066  -4.310   0.039  0.00  0.00    -0.213 N 
ATOM     11  H   UNL     1      -0.453  -4.860   0.647  0.00  0.00    +0.174 HD
BRANCH  10  12
ATOM     12  S   UNL     1       0.780  -4.992  -1.290  0.00  0.00    +0.073 S 
ATOM     13  O   UNL     1       0.574  -6.394  -1.187  0.00  0.00    -0.150 OA
ATOM     14  O   UNL     1       0.349  -4.239  -2.414  0.00  0.00    -0.150 OA
BRANCH  12  15
ATOM     15  C   UNL     1       2.516  -4.727  -1.142  0.00  0.00    +0.113 A 
ATOM     16  C   UNL     1       3.175  -3.934  -2.062  0.00  0.00    +0.029 A 
ATOM     17  C   UNL     1       4.537  -3.725  -1.947  0.00  0.00    +0.003 A 
ATOM     18  C   UNL     1       5.240  -4.311  -0.911  0.00  0.00    +0.020 A 
ATOM     19  C   UNL     1       4.582  -5.105   0.010  0.00  0.00    +0.046 A 
ATOM     20  C   UNL     1       3.218  -5.308  -0.102  0.00  0.00    -0.006 A 
ATOM     21  C   UNL     1       2.498  -6.168   0.905  0.00  0.00    +0.047 C 
ATOM     22 CL   UNL     1       5.465  -5.840   1.311  0.00  0.00    -0.083 Cl
ENDBRANCH  12  15
ENDBRANCH  10  12
ENDBRANCH   5  10
BRANCH   7  23
ATOM     23  C   UNL     1       0.576  -0.607   3.246  0.00  0.00    +0.134 C 
BRANCH  23  24
ATOM     24  C   UNL     1      -0.798  -0.300   3.784  0.00  0.00    +0.218 C 
ATOM     25  O   UNL     1      -1.775  -0.477   3.087  0.00  0.00    -0.275 OA
ATOM     26  N   UNL     1      -0.941   0.171   5.038  0.00  0.00    -0.311 N 
ATOM     27  H   UNL     1      -0.160   0.312   5.595  0.00  0.00    +0.149 HD
BRANCH  26  28
ATOM     28  C   UNL     1      -2.277   0.469   5.561  0.00  0.00    +0.141 C 
BRANCH  28  29
ATOM     29  C   UNL     1      -2.161   0.978   6.974  0.00  0.00    -0.011 A 
ATOM     30  C   UNL     1      -2.398   0.128   8.047  0.00  0.00    +0.010 A 
ATOM     31  C   UNL     1      -2.281   0.634   9.329  0.00  0.00    +0.041 A 
ATOM     32  C   UNL     1      -1.933   1.971   9.499  0.00  0.00    +0.094 A 
ATOM     33  N   UNL     1      -1.716   2.749   8.450  0.00  0.00    -0.347 N 
ATOM     34  C   UNL     1      -1.814   2.292   7.216  0.00  0.00    +0.019 A 
ATOM     35  C   UNL     1      -1.550   3.217   6.056  0.00  0.00    +0.063 C 
ATOM     36  N   UNL     1      -1.812   2.493  10.781  0.00  0.00    -0.345 N 
ATOM     37  H   UNL     1      -1.971   1.927  11.553  0.00  0.00    +0.144 HD
ATOM     38  H   UNL     1      -1.570   3.424  10.905  0.00  0.00    +0.144 HD
ATOM     39  H   UNL     1      -1.474   3.678   8.592  0.00  0.00    +0.167 HD
ENDBRANCH  28  29
ENDBRANCH  26  28
ENDBRANCH  23  24
ENDBRANCH   7  23
TORSDOF 8
