REMARK  Name = ZINC27520808
REMARK  9 active torsions:
REMARK  status: ('A' for Active; 'I' for Inactive)
REMARK    1  A    between atoms: C_1  and  N_2
REMARK    2  A    between atoms: N_2  and  C_3
REMARK    3  A    between atoms: N_2  and  C_4
REMARK    4  A    between atoms: C_7  and  C_10
REMARK    5  A    between atoms: C_11  and  C_12
REMARK    6  A    between atoms: C_11  and  N_24
REMARK    7  A    between atoms: N_14  and  C_15
REMARK    8  A    between atoms: C_19  and  N_21
REMARK    9  A    between atoms: C_25  and  C_27
REMARK                            x       y       z     vdW  Elec       q    Type
REMARK                         _______ _______ _______ _____ _____    ______ ____
ROOT
ATOM      1  C   UNL     1      -2.568   0.800   0.029  0.00  0.00    +0.036 C 
ATOM      2  C   UNL     1      -3.650   1.607  -0.093  0.00  0.00    +0.097 C 
ENDROOT
BRANCH   1   6
ATOM      3  C   UNL     1       1.177   2.437   1.161  0.00  0.00    +0.029 A 
ATOM      4  C   UNL     1       1.101   1.555   0.087  0.00  0.00    +0.023 A 
ATOM      5  C   UNL     1      -0.111   1.019  -0.282  0.00  0.00    +0.010 A 
ATOM      6  C   UNL     1      -1.271   1.365   0.422  0.00  0.00    -0.023 A 
ATOM      7  C   UNL     1      -1.189   2.249   1.506  0.00  0.00    +0.010 A 
ATOM      8  C   UNL     1       0.028   2.780   1.867  0.00  0.00    +0.023 A 
BRANCH   3  10
ATOM      9  C   UNL     1       3.634   2.521   0.873  0.00  0.00    +0.129 C 
ATOM     10  N   UNL     1       2.406   2.977   1.531  0.00  0.00    -0.336 N 
ATOM     11  C   UNL     1       2.472   4.000   2.576  0.00  0.00    +0.129 C 
ENDBRANCH   3  10
ENDBRANCH   1   6
BRANCH   2  12
ATOM     12  C   UNL     1      -3.485   3.065  -0.060  0.00  0.00    +0.262 C 
ATOM     13  O   UNL     1      -2.369   3.551  -0.052  0.00  0.00    -0.268 OA
ATOM     14  N   UNL     1      -4.569   3.865  -0.037  0.00  0.00    -0.280 N 
ATOM     15  H   UNL     1      -5.575   3.426   0.037  0.00  0.00    +0.155 HD
BRANCH  14  16
ATOM     16  C   UNL     1      -4.415   5.253  -0.109  0.00  0.00    +0.036 A 
ATOM     17  C   UNL     1      -5.290   6.086   0.576  0.00  0.00    +0.023 A 
ATOM     18  C   UNL     1      -5.133   7.457   0.508  0.00  0.00    +0.004 A 
ATOM     19  C   UNL     1      -4.111   7.999  -0.250  0.00  0.00    +0.033 A 
ATOM     20  C   UNL     1      -3.242   7.173  -0.938  0.00  0.00    +0.128 A 
ATOM     21  C   UNL     1      -3.391   5.801  -0.869  0.00  0.00    +0.056 A 
BRANCH  20  22
ATOM     22  N   UNL     1      -2.150   7.758  -1.748  0.00  0.00    +0.056 N 
ATOM     23  O   UNL     1      -1.384   7.030  -2.354  0.00  0.00    -0.126 OA
ATOM     24  O   UNL     1      -2.018   8.967  -1.809  0.00  0.00    -0.126 OA
ENDBRANCH  20  22
ENDBRANCH  14  16
ENDBRANCH   2  12
BRANCH   2  25
ATOM     25  N   UNL     1      -4.924   1.050  -0.251  0.00  0.00    -0.277 N 
ATOM     26  C   UNL     1      -5.655   1.341  -1.345  0.00  0.00    +0.249 C 
ATOM     27  O   UNL     1      -5.173   2.011  -2.238  0.00  0.00    -0.270 OA
ATOM     28  H   UNL     1      -5.329   0.375   0.517  0.00  0.00    +0.155 HD
BRANCH  26  29
ATOM     29  C   UNL     1      -7.042   0.845  -1.460  0.00  0.00    +0.051 A 
ATOM     30  C   UNL     1      -7.597   0.070  -0.440  0.00  0.00    +0.014 A 
ATOM     31  C   UNL     1      -8.894  -0.386  -0.551  0.00  0.00    +0.001 A 
ATOM     32  C   UNL     1      -9.643  -0.085  -1.675  0.00  0.00    +0.001 A 
ATOM     33  C   UNL     1      -9.099   0.677  -2.693  0.00  0.00    +0.016 A 
ATOM     34  C   UNL     1      -7.803   1.144  -2.593  0.00  0.00    +0.030 A 
ATOM     35 BR   UNL     1      -7.061   2.186  -3.986  0.00  0.00    -0.050 Br
ENDBRANCH  26  29
ENDBRANCH   2  25
TORSDOF 7
