REMARK  Name = ZINC01833566
REMARK  9 active torsions:
REMARK  status: ('A' for Active; 'I' for Inactive)
REMARK    1  A    between atoms: C_1  and  C_2
REMARK    2  A    between atoms: C_2  and  C_17
REMARK    3  A    between atoms: N_3  and  N_4
REMARK    4  A    between atoms: C_13  and  C_15
REMARK    5  A    between atoms: C_13  and  C_16
REMARK    6  A    between atoms: C_17  and  N_19
REMARK    7  A    between atoms: N_19  and  N_20
REMARK    8  A    between atoms: C_29  and  C_31
REMARK    9  A    between atoms: C_29  and  C_32
REMARK                            x       y       z     vdW  Elec       q    Type
REMARK                         _______ _______ _______ _____ _____    ______ ____
ROOT
ATOM      1  C   UNL     1       0.245  -0.462  -1.305  0.00  0.00    +0.062 C 
ATOM      2  C   UNL     1       0.478   0.429  -2.282  0.00  0.00    +0.037 C 
ENDROOT
BRANCH   1   4
ATOM      3  C   UNL     1       0.516  -0.816   1.232  0.00  0.00    +0.069 C 
ATOM      4  C   UNL     1       0.012  -0.002   0.068  0.00  0.00    +0.080 C 
ATOM      5  N   UNL     1      -0.632   1.116   0.282  0.00  0.00    -0.176 NA
BRANCH   5   6
ATOM      6  N   UNL     1      -1.202   1.730  -0.699  0.00  0.00    -0.263 N 
ATOM      7  C   UNL     1      -1.745   2.914  -0.507  0.00  0.00    +0.120 C 
ATOM      8  C   UNL     1      -2.316   3.700  -1.626  0.00  0.00    +0.017 A 
ATOM      9  C   UNL     1      -2.151   3.263  -2.941  0.00  0.00    +0.011 A 
ATOM     10  C   UNL     1      -2.692   3.995  -3.978  0.00  0.00    +0.001 A 
ATOM     11  C   UNL     1      -3.396   5.157  -3.710  0.00  0.00    +0.000 A 
ATOM     12  C   UNL     1      -3.559   5.594  -2.409  0.00  0.00    +0.004 A 
ATOM     13  C   UNL     1      -3.020   4.874  -1.358  0.00  0.00    -0.035 A 
ATOM     14  C   UNL     1      -3.195   5.379   0.049  0.00  0.00    +0.061 C 
ATOM     15  C   UNL     1      -3.043   4.244   1.060  0.00  0.00    +0.032 C 
ATOM     16  N   UNL     1      -1.818   3.491   0.756  0.00  0.00    -0.324 N 
ATOM     17  C   UNL     1      -4.250   3.309   0.967  0.00  0.00    +0.031 C 
ATOM     18  C   UNL     1      -2.950   4.826   2.473  0.00  0.00    +0.031 C 
ATOM     19  H   UNL     1      -1.099   3.403   1.402  0.00  0.00    +0.148 HD
ATOM     20  H   UNL     1      -1.230   1.320  -1.577  0.00  0.00    +0.190 HD
ENDBRANCH   5   6
ENDBRANCH   1   4
BRANCH   1  21
ATOM     21  N   UNL     1       0.226  -1.826  -1.596  0.00  0.00    -0.258 N 
ATOM     22  H   UNL     1      -0.018  -2.465  -0.908  0.00  0.00    +0.172 HD
BRANCH  21  23
ATOM     23  N   UNL     1       0.558  -2.273  -2.881  0.00  0.00    -0.293 N 
ATOM     24  C   UNL     1       0.441  -3.535  -3.182  0.00  0.00    +0.117 C 
ATOM     25  C   UNL     1       0.891  -4.073  -4.490  0.00  0.00    +0.017 A 
ATOM     26  C   UNL     1       1.320  -3.201  -5.490  0.00  0.00    +0.011 A 
ATOM     27  C   UNL     1       1.746  -3.706  -6.702  0.00  0.00    +0.001 A 
ATOM     28  C   UNL     1       1.747  -5.073  -6.918  0.00  0.00    +0.000 A 
ATOM     29  C   UNL     1       1.320  -5.939  -5.930  0.00  0.00    +0.004 A 
ATOM     30  C   UNL     1       0.886  -5.449  -4.711  0.00  0.00    -0.035 A 
ATOM     31  C   UNL     1       0.406  -6.413  -3.660  0.00  0.00    +0.061 C 
ATOM     32  C   UNL     1       0.501  -5.799  -2.264  0.00  0.00    +0.032 C 
ATOM     33  N   UNL     1      -0.115  -4.464  -2.283  0.00  0.00    -0.324 N 
ATOM     34  C   UNL     1       1.971  -5.673  -1.859  0.00  0.00    +0.031 C 
ATOM     35  C   UNL     1      -0.234  -6.690  -1.261  0.00  0.00    +0.031 C 
ATOM     36  H   UNL     1      -0.865  -4.239  -1.710  0.00  0.00    +0.148 HD
ATOM     37  H   UNL     1       0.875  -1.643  -3.547  0.00  0.00    +0.186 HD
ENDBRANCH  21  23
ENDBRANCH   1  21
TORSDOF 4
