REMARK  Name = ZINC36378840
REMARK  6 active torsions:
REMARK  status: ('A' for Active; 'I' for Inactive)
REMARK    1  A    between atoms: C_1  and  S_2
REMARK    2  A    between atoms: S_2  and  C_3
REMARK    3  A    between atoms: C_3  and  C_4
REMARK    4  A    between atoms: C_6  and  O_24
REMARK    5  A    between atoms: C_8  and  O_23
REMARK    6  A    between atoms: C_10  and  N_13
REMARK                            x       y       z     vdW  Elec       q    Type
REMARK                         _______ _______ _______ _____ _____    ______ ____
ROOT
ATOM      1  C   UNL     1       0.966  -1.944  -1.668  0.00  0.00    +0.162 C 
ATOM      2  C   UNL     1       1.806  -2.310  -2.908  0.00  0.00    +0.177 C 
ATOM      3  C   UNL     1       0.849  -3.161  -3.777  0.00  0.00    +0.193 C 
ATOM      4  C   UNL     1      -0.198  -3.637  -2.737  0.00  0.00    +0.240 C 
ATOM      5  O   UNL     1      -0.347  -2.498  -1.859  0.00  0.00    -0.349 OA
ENDROOT
BRANCH   4   6
ATOM      6  N   UNL     1      -1.468  -3.958  -3.393  0.00  0.00    -0.266 N 
ATOM      7  C   UNL     1      -2.356  -3.022  -4.097  0.00  0.00    +0.253 C 
ATOM      8  N   UNL     1      -3.496  -3.809  -4.580  0.00  0.00    -0.256 NA
ATOM      9  C   UNL     1      -3.331  -5.038  -4.225  0.00  0.00    +0.164 C 
ATOM     10  C   UNL     1      -2.057  -5.183  -3.475  0.00  0.00    +0.157 C 
ATOM     11  N   UNL     1      -1.728  -6.385  -3.040  0.00  0.00    -0.221 NA
ATOM     12  C   UNL     1      -2.497  -7.441  -3.259  0.00  0.00    +0.213 C 
ATOM     13  N   UNL     1      -3.633  -7.418  -3.909  0.00  0.00    -0.163 NA
ATOM     14  C   UNL     1      -4.135  -6.280  -4.419  0.00  0.00    +0.290 C 
ATOM     15  O   UNL     1      -5.191  -6.265  -5.024  0.00  0.00    -0.266 OA
ENDBRANCH   4   6
BRANCH   3  16
ATOM     16  O   UNL     1       0.234  -2.362  -4.790  0.00  0.00    -0.385 OA
ATOM     17  H   UNL     1       0.860  -1.968  -5.413  0.00  0.00    +0.210 HD
ENDBRANCH   3  16
BRANCH   2  18
ATOM     18  O   UNL     1       2.952  -3.073  -2.527  0.00  0.00    -0.386 OA
ATOM     19  H   UNL     1       3.517  -3.330  -3.268  0.00  0.00    +0.210 HD
ENDBRANCH   2  18
BRANCH   1  20
ATOM     20  C   UNL     1       0.873  -0.423  -1.533  0.00  0.00    +0.103 C 
BRANCH  20  22
ATOM     21  C   UNL     1      -0.022   1.810   0.012  0.00  0.00    +0.084 C 
ATOM     22  S   UNL     1       0.002  -0.004   0.002  0.00  0.00    -0.161 S 
ENDBRANCH  20  22
ENDBRANCH   1  20
TORSDOF 5
