REMARK  Name = ZINC22463027
REMARK  13 active torsions:
REMARK  status: ('A' for Active; 'I' for Inactive)
REMARK    1  A    between atoms: C_1  and  S_2
REMARK    2  A    between atoms: S_2  and  C_3
REMARK    3  A    between atoms: C_3  and  C_4
REMARK    4  A    between atoms: C_4  and  C_5
REMARK    5  A    between atoms: C_5  and  C_7
REMARK    6  A    between atoms: C_5  and  N_24
REMARK    7  A    between atoms: N_9  and  C_10
REMARK    8  A    between atoms: C_10  and  C_11
REMARK    9  A    between atoms: C_11  and  C_13
REMARK   10  A    between atoms: C_11  and  N_19
REMARK   11  A    between atoms: N_24  and  S_25
REMARK   12  A    between atoms: S_25  and  C_28
REMARK   13  A    between atoms: C_29  and  C_30
REMARK                            x       y       z     vdW  Elec       q    Type
REMARK                         _______ _______ _______ _____ _____    ______ ____
ROOT
ATOM      1  C   UNL     1      -4.104   0.839   2.887  0.00  0.00    +0.163 C 
ENDROOT
BRANCH   1   2
ATOM      2  C   UNL     1      -3.508   0.484   1.548  0.00  0.00    +0.232 C 
ATOM      3  O   UNL     1      -4.096  -0.271   0.804  0.00  0.00    -0.274 OA
ATOM      4  N   UNL     1      -2.322   1.007   1.179  0.00  0.00    -0.315 N 
ATOM      5  H   UNL     1      -1.788   1.692   1.855  0.00  0.00    +0.149 HD
BRANCH   4   6
ATOM      6  C   UNL     1      -1.742   0.662  -0.121  0.00  0.00    +0.093 C 
BRANCH   6   7
ATOM      7  C   UNL     1      -0.347   1.278  -0.237  0.00  0.00    -0.020 C 
BRANCH   7   8
ATOM      8  C   UNL     1       0.568   0.645   0.779  0.00  0.00    -0.059 A 
ATOM      9  C   UNL     1       1.126  -0.594   0.530  0.00  0.00    +0.002 A 
ATOM     10  C   UNL     1       1.969  -1.173   1.460  0.00  0.00    +0.000 A 
ATOM     11  C   UNL     1       2.246  -0.516   2.645  0.00  0.00    +0.000 A 
ATOM     12  C   UNL     1       1.683   0.721   2.897  0.00  0.00    +0.000 A 
ATOM     13  C   UNL     1       0.844   1.302   1.964  0.00  0.00    +0.002 A 
ENDBRANCH   7   8
BRANCH   7  14
ATOM     14  N   UNL     1       0.182   1.041  -1.587  0.00  0.00    +0.385 N 
ATOM     15  C   UNL     1      -0.737   1.580  -2.622  0.00  0.00    -0.078 C 
ATOM     16  C   UNL     1       0.175   1.726  -3.865  0.00  0.00    -0.020 C 
ATOM     17  C   UNL     1       1.517   2.192  -3.257  0.00  0.00    -0.020 C 
ATOM     18  C   UNL     1       1.468   1.746  -1.784  0.00  0.00    -0.078 C 
ATOM     19  H   UNL     1       0.303  -0.049  -1.674  0.00  0.00    -0.081 HD
ENDBRANCH   7  14
ENDBRANCH   6   7
ENDBRANCH   4   6
ENDBRANCH   1   2
BRANCH   1  20
ATOM     20  N   UNL     1      -5.386   0.148   3.049  0.00  0.00    -0.179 NA
ATOM     21  H   UNL     1      -6.322   0.655   2.774  0.00  0.00    +0.149 HD
BRANCH  20  22
ATOM     22  S   UNL     1      -5.454  -1.289   3.869  0.00  0.00    +0.052 S 
ATOM     23  O   UNL     1      -6.817  -1.689   3.875  0.00  0.00    -0.154 OA
ATOM     24  O   UNL     1      -4.422  -2.109   3.338  0.00  0.00    -0.154 OA
BRANCH  22  25
ATOM     25  C   UNL     1      -5.020  -0.955   5.543  0.00  0.00    +0.153 C 
ATOM     26  C   UNL     1      -5.916  -1.120   6.506  0.00  0.00    +0.028 C 
BRANCH  26  27
ATOM     27  C   UNL     1      -5.593  -0.721   7.893  0.00  0.00    -0.024 A 
ATOM     28  C   UNL     1      -4.393  -0.067   8.172  0.00  0.00    +0.008 A 
ATOM     29  C   UNL     1      -4.100   0.308   9.467  0.00  0.00    +0.001 A 
ATOM     30  C   UNL     1      -4.988   0.025  10.490  0.00  0.00    +0.000 A 
ATOM     31  C   UNL     1      -6.178  -0.628  10.220  0.00  0.00    +0.001 A 
ATOM     32  C   UNL     1      -6.485  -1.003   8.928  0.00  0.00    +0.008 A 
ENDBRANCH  26  27
ENDBRANCH  22  25
ENDBRANCH  20  22
ENDBRANCH   1  20
BRANCH   1  33
ATOM     33  C   UNL     1      -4.327   2.350   2.962  0.00  0.00    +0.040 C 
BRANCH  33  34
ATOM     34  C   UNL     1      -4.801   2.727   4.367  0.00  0.00    +0.071 C 
BRANCH  34  36
ATOM     35  C   UNL     1      -5.592   4.809   6.160  0.00  0.00    +0.084 C 
ATOM     36  S   UNL     1      -5.199   4.496   4.416  0.00  0.00    -0.164 S 
ENDBRANCH  34  36
ENDBRANCH  33  34
ENDBRANCH   1  33
TORSDOF 12
