REMARK  Name = ZINC49525411
REMARK  8 active torsions:
REMARK  status: ('A' for Active; 'I' for Inactive)
REMARK    1  A    between atoms: C_1  and  C_2
REMARK    2  A    between atoms: C_7  and  C_8
REMARK    3  A    between atoms: C_8  and  C_10
REMARK    4  A    between atoms: C_8  and  N_11
REMARK    5  A    between atoms: N_11  and  C_12
REMARK    6  A    between atoms: C_14  and  N_22
REMARK    7  A    between atoms: C_16  and  S_18
REMARK    8  A    between atoms: S_18  and  N_21
REMARK                            x       y       z     vdW  Elec       q    Type
REMARK                         _______ _______ _______ _____ _____    ______ ____
ROOT
ATOM      1  C   UNL     1      -1.214  -0.235   4.633  0.00  0.00    +0.031 A 
ATOM      2  C   UNL     1      -1.358   1.144   4.708  0.00  0.00    +0.045 A 
ATOM      3  C   UNL     1      -2.031   1.710   5.782  0.00  0.00    +0.028 A 
ATOM      4  C   UNL     1      -2.557   0.895   6.778  0.00  0.00    +0.051 A 
ATOM      5  C   UNL     1      -2.411  -0.476   6.699  0.00  0.00    +0.108 A 
ATOM      6  C   UNL     1      -1.747  -1.043   5.629  0.00  0.00    +0.051 A 
ENDROOT
BRANCH   5   7
ATOM      7  S   UNL     1      -3.080  -1.505   7.964  0.00  0.00    +0.056 S 
ATOM      8  O   UNL     1      -2.337  -2.715   7.938  0.00  0.00    -0.153 OA
ATOM      9  O   UNL     1      -3.184  -0.699   9.130  0.00  0.00    -0.153 OA
BRANCH   7  10
ATOM     10  N   UNL     1      -4.627  -1.890   7.515  0.00  0.00    -0.204 NA
ATOM     11  H   UNL     1      -5.016  -2.735   7.790  0.00  0.00    +0.144 HD
ATOM     12  H   UNL     1      -5.144  -1.270   6.977  0.00  0.00    +0.144 HD
ENDBRANCH   7  10
ENDBRANCH   5   7
BRANCH   3  13
ATOM     13  N   UNL     1      -2.179   3.096   5.862  0.00  0.00    -0.358 N 
ATOM     14  H   UNL     1      -1.811   3.664   5.167  0.00  0.00    +0.142 HD
ATOM     15  H   UNL     1      -2.649   3.491   6.613  0.00  0.00    +0.142 HD
ENDBRANCH   3  13
BRANCH   1  16
ATOM     16  N   UNL     1      -0.537  -0.808   3.554  0.00  0.00    -0.337 N 
ATOM     17  H   UNL     1      -0.440  -1.772   3.500  0.00  0.00    +0.147 HD
BRANCH  16  18
ATOM     18  C   UNL     1       0.025   0.045   2.504  0.00  0.00    +0.098 C 
ATOM     19  C   UNL     1       1.420   0.515   2.922  0.00  0.00    +0.033 C 
BRANCH  18  26
ATOM     20  C   UNL     1      -0.067   1.421  -0.034  0.00  0.00    +0.044 C 
ATOM     21  C   UNL     1       0.078  -0.079   0.005  0.00  0.00    -0.046 A 
ATOM     22  C   UNL     1       0.172  -0.795  -1.173  0.00  0.00    +0.004 A 
ATOM     23  C   UNL     1       0.305  -2.170  -1.137  0.00  0.00    +0.000 A 
ATOM     24  C   UNL     1       0.345  -2.829   0.077  0.00  0.00    +0.000 A 
ATOM     25  C   UNL     1       0.251  -2.113   1.256  0.00  0.00    +0.006 A 
ATOM     26  C   UNL     1       0.122  -0.737   1.220  0.00  0.00    -0.025 A 
ENDBRANCH  18  26
ENDBRANCH  16  18
ENDBRANCH   1  16
TORSDOF 6
