REMARK  Name = ZINC04476663
REMARK  7 active torsions:
REMARK  status: ('A' for Active; 'I' for Inactive)
REMARK    1  A    between atoms: C_1  and  N_43
REMARK    2  A    between atoms: C_7  and  C_9
REMARK    3  A    between atoms: C_9  and  C_22
REMARK    4  A    between atoms: N_10  and  N_11
REMARK    5  A    between atoms: N_11  and  C_12
REMARK    6  A    between atoms: C_17  and  C_18
REMARK    7  A    between atoms: C_22  and  N_24
REMARK                            x       y       z     vdW  Elec       q    Type
REMARK                         _______ _______ _______ _____ _____    ______ ____
ROOT
ATOM      1  C   UNL     1      -0.815  -2.176  -0.938  0.00  0.00    +0.171 C 
ATOM      2  N   UNL     1      -0.129  -2.896  -0.074  0.00  0.00    -0.175 NA
ENDROOT
BRANCH   1   9
ATOM      3  C   UNL     1       1.914   1.833  -4.824  0.00  0.00    -0.096 C 
ATOM      4  C   UNL     1       0.387   1.910  -2.946  0.00  0.00    -0.060 C 
ATOM      5  C   UNL     1       0.194   1.450  -1.498  0.00  0.00    +0.089 C 
ATOM      6  N   UNL     1       0.203  -0.021  -1.470  0.00  0.00    -0.300 N 
ATOM      7  C   UNL     1       1.317  -0.723  -2.126  0.00  0.00    +0.089 C 
ATOM      8  C   UNL     1       1.466  -0.176  -3.550  0.00  0.00    -0.060 C 
ATOM      9  C   UNL     1      -0.784  -0.707  -0.860  0.00  0.00    +0.269 C 
ATOM     10  O   UNL     1      -1.648  -0.112  -0.245  0.00  0.00    -0.268 OA
ATOM     11  N   UNL     1       1.621   1.293  -3.481  0.00  0.00    +0.380 N 
ATOM     12  H   UNL     1       2.403   1.516  -2.854  0.00  0.00    -0.082 HD
ENDBRANCH   1   9
BRANCH   2  13
ATOM     13  N   UNL     1       0.490  -2.319   0.900  0.00  0.00    -0.236 N 
ATOM     14  H   UNL     1       0.511  -1.351   0.955  0.00  0.00    +0.174 HD
BRANCH  13  15
ATOM     15  C   UNL     1       1.128  -3.087   1.874  0.00  0.00    +0.060 A 
ATOM     16  C   UNL     1       1.183  -4.470   1.745  0.00  0.00    +0.025 A 
ATOM     17  C   UNL     1       1.821  -5.227   2.708  0.00  0.00    +0.002 A 
ATOM     18  C   UNL     1       2.395  -4.611   3.805  0.00  0.00    +0.001 A 
ATOM     19  C   UNL     1       2.337  -3.236   3.940  0.00  0.00    +0.014 A 
ATOM     20  C   UNL     1       1.706  -2.472   2.978  0.00  0.00    +0.077 A 
BRANCH  20  21
ATOM     21  C   UNL     1       1.643  -0.974   3.126  0.00  0.00    +0.419 C 
ATOM     22  F   UNL     1       2.369  -0.586   4.257  0.00  0.00    -0.166 F 
ATOM     23  F   UNL     1       2.193  -0.370   1.990  0.00  0.00    -0.166 F 
ATOM     24  F   UNL     1       0.310  -0.575   3.267  0.00  0.00    -0.166 F 
ENDBRANCH  20  21
ENDBRANCH  13  15
ENDBRANCH   2  13
BRANCH   1  25
ATOM     25  C   UNL     1      -1.612  -2.840  -1.978  0.00  0.00    +0.102 C 
ATOM     26  S   UNL     1      -2.504  -1.904  -3.100  0.00  0.00    -0.033 S 
BRANCH  25  27
ATOM     27  N   UNL     1      -1.641  -4.185  -2.050  0.00  0.00    -0.350 N 
ATOM     28  H   UNL     1      -1.135  -4.715  -1.414  0.00  0.00    +0.143 HD
ATOM     29  H   UNL     1      -2.167  -4.623  -2.736  0.00  0.00    +0.143 HD
ENDBRANCH  25  27
ENDBRANCH   1  25
TORSDOF 6
