REMARK  Name = ZINC35462823
REMARK  5 active torsions:
REMARK  status: ('A' for Active; 'I' for Inactive)
REMARK    1  A    between atoms: C_1  and  C_2
REMARK    2  A    between atoms: C_4  and  C_26
REMARK    3  A    between atoms: C_5  and  N_9
REMARK    4  A    between atoms: C_6  and  C_8
REMARK    5  A    between atoms: C_10  and  C_12
REMARK                            x       y       z     vdW  Elec       q    Type
REMARK                         _______ _______ _______ _____ _____    ______ ____
ROOT
ATOM      1  C   UNL     1       0.485  -6.473   0.556  0.00  0.00    +0.247 C 
ATOM      2  N   UNL     1       1.377  -7.043   1.562  0.00  0.00    -0.319 N 
ATOM      3  C   UNL     1       1.063  -7.102   2.917  0.00  0.00    +0.058 A 
ATOM      4  C   UNL     1       2.100  -7.221   3.842  0.00  0.00    +0.063 A 
ATOM      5  C   UNL     1       1.821  -7.299   5.192  0.00  0.00    +0.125 A 
ATOM      6  C   UNL     1       0.509  -7.261   5.636  0.00  0.00    +0.040 A 
ATOM      7  C   UNL     1      -0.523  -7.136   4.724  0.00  0.00    +0.033 A 
ATOM      8  C   UNL     1      -0.246  -7.049   3.376  0.00  0.00    +0.126 A 
ATOM      9  S   UNL     1      -1.567  -6.850   2.218  0.00  0.00    +0.062 S 
ATOM     10  O   UNL     1      -2.459  -7.938   2.415  0.00  0.00    -0.153 OA
ATOM     11  O   UNL     1      -1.982  -5.492   2.291  0.00  0.00    -0.153 OA
ATOM     12  N   UNL     1      -0.859  -7.064   0.720  0.00  0.00    -0.161 NA
ATOM     13  F   UNL     1       2.830  -7.414   6.082  0.00  0.00    -0.205 F 
ATOM     14  H   UNL     1       2.231  -7.399   1.271  0.00  0.00    +0.148 HD
ATOM     15  H   UNL     1      -1.299  -7.548   0.004  0.00  0.00    +0.151 HD
ENDROOT
BRANCH   1  17
ATOM     16  N   UNL     1      -0.345  -4.236  -0.100  0.00  0.00    -0.282 N 
ATOM     17  C   UNL     1       0.405  -4.979   0.739  0.00  0.00    +0.254 C 
ATOM     18  O   UNL     1       1.015  -4.445   1.641  0.00  0.00    -0.272 OA
ATOM     19  H   UNL     1      -0.902  -4.670  -0.765  0.00  0.00    +0.155 HD
BRANCH  16  24
ATOM     20  C   UNL     1      -0.245   1.424   0.263  0.00  0.00    +0.044 C 
ATOM     21  C   UNL     1      -0.272  -0.079   0.167  0.00  0.00    -0.050 A 
ATOM     22  C   UNL     1      -0.217  -0.692  -1.072  0.00  0.00    +0.008 A 
ATOM     23  C   UNL     1      -0.241  -2.070  -1.163  0.00  0.00    -0.029 A 
ATOM     24  C   UNL     1      -0.320  -2.840  -0.010  0.00  0.00    +0.039 A 
ATOM     25  C   UNL     1      -0.374  -2.221   1.232  0.00  0.00    -0.029 A 
ATOM     26  C   UNL     1      -0.345  -0.843   1.317  0.00  0.00    +0.008 A 
ATOM     27  C   UNL     1      -0.460  -3.053   2.486  0.00  0.00    +0.045 C 
ATOM     28  C   UNL     1      -0.182  -2.737  -2.513  0.00  0.00    +0.045 C 
ENDBRANCH  16  24
ENDBRANCH   1  17
TORSDOF 2
