REMARK  Name = ZINC19664858
REMARK  7 active torsions:
REMARK  status: ('A' for Active; 'I' for Inactive)
REMARK    1  A    between atoms: C_1  and  C_2
REMARK    2  A    between atoms: C_5  and  C_8
REMARK    3  A    between atoms: C_5  and  N_20
REMARK    4  A    between atoms: C_8  and  N_9
REMARK    5  A    between atoms: C_10  and  C_12
REMARK    6  A    between atoms: C_12  and  C_13
REMARK    7  A    between atoms: C_13  and  C_14
REMARK                            x       y       z     vdW  Elec       q    Type
REMARK                         _______ _______ _______ _____ _____    ______ ____
ROOT
ATOM      1  C   UNL     1      -2.140   0.922   1.034  0.00  0.00    +0.092 C 
ENDROOT
BRANCH   1   6
ATOM      2  C   UNL     1      -1.398   4.379  -1.893  0.00  0.00    +0.007 C 
ATOM      3  C   UNL     1      -0.735   3.646  -0.725  0.00  0.00    -0.014 C 
ATOM      4  C   UNL     1      -0.551   2.171  -1.088  0.00  0.00    +0.002 C 
ATOM      5  C   UNL     1       0.111   1.437   0.080  0.00  0.00    -0.010 C 
ATOM      6  C   UNL     1      -0.775   1.550   1.322  0.00  0.00    -0.050 C 
ATOM      7  C   UNL     1      -0.959   3.025   1.685  0.00  0.00    -0.010 C 
ATOM      8  C   UNL     1      -1.621   3.759   0.517  0.00  0.00    +0.002 C 
BRANCH   6   9
ATOM      9  N   UNL     1      -0.139   0.846   2.443  0.00  0.00    +0.384 N 
ATOM     10  C   UNL     1       0.032  -0.581   2.140  0.00  0.00    -0.078 C 
ATOM     11  C   UNL     1       0.825  -1.251   3.264  0.00  0.00    -0.019 C 
ATOM     12  C   UNL     1       0.073  -1.077   4.587  0.00  0.00    -0.004 C 
ATOM     13  C   UNL     1      -0.133   0.416   4.855  0.00  0.00    -0.019 C 
ATOM     14  C   UNL     1      -0.899   1.038   3.685  0.00  0.00    -0.078 C 
ATOM     15  H   UNL     1       0.862   1.279   2.592  0.00  0.00    -0.081 HD
ENDBRANCH   6   9
ENDBRANCH   1   6
BRANCH   1  16
ATOM     16  N   UNL     1      -3.046   1.188   2.154  0.00  0.00    -0.317 N 
ATOM     17  C   UNL     1      -4.266   0.615   2.185  0.00  0.00    +0.213 C 
ATOM     18  O   UNL     1      -4.613  -0.121   1.285  0.00  0.00    -0.276 OA
ATOM     19  H   UNL     1      -2.731   1.856   2.970  0.00  0.00    +0.149 HD
BRANCH  17  20
ATOM     20  C   UNL     1      -5.198   0.889   3.337  0.00  0.00    +0.102 C 
BRANCH  20  21
ATOM     21  C   UNL     1      -6.505   0.122   3.128  0.00  0.00    +0.065 C 
BRANCH  21  22
ATOM     22  C   UNL     1      -7.437   0.395   4.280  0.00  0.00    +0.051 A 
ATOM     23  C   UNL     1      -8.687   0.869   4.062  0.00  0.00    +0.071 A 
ATOM     24  S   UNL     1      -9.294   0.991   5.739  0.00  0.00    -0.061 S 
ATOM     25  C   UNL     1      -7.864   0.416   6.539  0.00  0.00    +0.156 A 
ATOM     26  N   UNL     1      -7.056   0.173   5.524  0.00  0.00    -0.230 NA
ATOM     27  N   UNL     1      -7.633   0.248   7.895  0.00  0.00    -0.338 N 
ATOM     28  H   UNL     1      -6.662  -0.131   8.245  0.00  0.00    +0.144 HD
ATOM     29  H   UNL     1      -8.421   0.494   8.622  0.00  0.00    +0.144 HD
ENDBRANCH  21  22
ENDBRANCH  20  21
ENDBRANCH  17  20
ENDBRANCH   1  16
TORSDOF 6
