REMARK  Name = ZINC09236225
REMARK  9 active torsions:
REMARK  status: ('A' for Active; 'I' for Inactive)
REMARK    1  A    between atoms: C_1  and  C_2
REMARK    2  A    between atoms: C_6  and  N_9
REMARK    3  A    between atoms: C_7  and  C_8
REMARK    4  A    between atoms: C_10  and  C_12
REMARK    5  A    between atoms: C_14  and  C_29
REMARK    6  A    between atoms: C_18  and  C_23
REMARK    7  A    between atoms: C_32  and  C_35
REMARK    8  A    between atoms: C_35  and  O_37
REMARK    9  A    between atoms: O_37  and  C_38
REMARK                            x       y       z     vdW  Elec       q    Type
REMARK                         _______ _______ _______ _____ _____    ______ ____
ROOT
ATOM      1  C   UNL     1      -0.315   4.295   0.355  0.00  0.00    +0.166 C 
ATOM      2  C   UNL     1      -1.284   3.537  -0.561  0.00  0.00    +0.140 C 
ATOM      3  N   UNL     1      -1.381   2.134  -0.155  0.00  0.00    -0.272 N 
ATOM      4  N   UNL     1      -0.196   1.472  -0.194  0.00  0.00    -0.221 N 
ATOM      5  C   UNL     1       0.004   0.116  -0.280  0.00  0.00    +0.182 A 
ATOM      6  N   UNL     1       1.304  -0.084  -0.268  0.00  0.00    -0.127 NA
ATOM      7  N   UNL     1       1.923   1.043  -0.186  0.00  0.00    -0.121 NA
ATOM      8  C   UNL     1       1.056   2.019  -0.144  0.00  0.00    +0.210 A 
ATOM      9  S   UNL     1       1.373   3.753  -0.049  0.00  0.00    -0.069 S 
ATOM     10  H   UNL     1      -2.083   1.649  -0.693  0.00  0.00    +0.167 HD
ENDROOT
BRANCH   5  11
ATOM     11  C   UNL     1      -1.044  -0.923  -0.369  0.00  0.00    +0.021 A 
ATOM     12  C   UNL     1      -2.352  -0.635   0.024  0.00  0.00    +0.011 A 
ATOM     13  C   UNL     1      -3.326  -1.607  -0.067  0.00  0.00    +0.001 A 
ATOM     14  C   UNL     1      -3.006  -2.869  -0.535  0.00  0.00    +0.000 A 
ATOM     15  C   UNL     1      -1.710  -3.163  -0.921  0.00  0.00    +0.001 A 
ATOM     16  C   UNL     1      -0.728  -2.198  -0.841  0.00  0.00    +0.011 A 
ENDBRANCH   5  11
BRANCH   2  17
ATOM     17  C   UNL     1      -2.649   4.171  -0.476  0.00  0.00    -0.024 A 
ATOM     18  C   UNL     1      -3.481   3.874   0.588  0.00  0.00    +0.006 A 
ATOM     19  C   UNL     1      -4.729   4.455   0.675  0.00  0.00    +0.015 A 
ATOM     20  C   UNL     1      -5.157   5.335  -0.321  0.00  0.00    +0.059 A 
ATOM     21  C   UNL     1      -4.314   5.626  -1.396  0.00  0.00    +0.015 A 
ATOM     22  C   UNL     1      -3.066   5.043  -1.467  0.00  0.00    +0.006 A 
BRANCH  20  23
ATOM     23  C   UNL     1      -6.494   5.957  -0.238  0.00  0.00    +0.339 C 
ATOM     24  O   UNL     1      -6.863   6.723  -1.106  0.00  0.00    -0.245 OA
BRANCH  23  25
ATOM     25  O   UNL     1      -7.305   5.674   0.800  0.00  0.00    -0.464 OA
ATOM     26  C   UNL     1      -8.605   6.321   0.817  0.00  0.00    +0.280 C 
ENDBRANCH  23  25
ENDBRANCH  20  23
ENDBRANCH   2  17
BRANCH   1  28
ATOM     27  N   UNL     1      -0.174   6.645   1.115  0.00  0.00    -0.284 N 
ATOM     28  C   UNL     1      -0.445   5.778   0.119  0.00  0.00    +0.233 C 
ATOM     29  O   UNL     1      -0.792   6.191  -0.967  0.00  0.00    -0.274 OA
ATOM     30  H   UNL     1       0.156   6.317   1.967  0.00  0.00    +0.155 HD
BRANCH  27  36
ATOM     31  C   UNL     1      -1.066  11.100   2.992  0.00  0.00    +0.044 C 
ATOM     32  C   UNL     1      -0.803  10.200   1.813  0.00  0.00    -0.046 A 
ATOM     33  C   UNL     1      -0.754  10.729   0.537  0.00  0.00    +0.004 A 
ATOM     34  C   UNL     1      -0.512   9.907  -0.548  0.00  0.00    +0.002 A 
ATOM     35  C   UNL     1      -0.315   8.553  -0.359  0.00  0.00    +0.023 A 
ATOM     36  C   UNL     1      -0.369   8.017   0.921  0.00  0.00    +0.037 A 
ATOM     37  C   UNL     1      -0.611   8.846   2.008  0.00  0.00    -0.026 A 
ATOM     38  C   UNL     1      -0.665   8.269   3.400  0.00  0.00    +0.046 C 
ENDBRANCH  27  36
ENDBRANCH   1  28
TORSDOF 6
