REMARK  Name = ZINC29669087
REMARK  7 active torsions:
REMARK  status: ('A' for Active; 'I' for Inactive)
REMARK    1  A    between atoms: C_1  and  C_2
REMARK    2  A    between atoms: C_2  and  N_3
REMARK    3  A    between atoms: C_4  and  C_6
REMARK    4  A    between atoms: C_6  and  N_7
REMARK    5  A    between atoms: N_10  and  C_13
REMARK    6  A    between atoms: C_13  and  C_14
REMARK    7  A    between atoms: N_19  and  C_20
REMARK                            x       y       z     vdW  Elec       q    Type
REMARK                         _______ _______ _______ _____ _____    ______ ____
ROOT
ATOM      1  N   UNL     1       0.803  -0.392   1.813  0.00  0.00    +0.387 N 
ATOM      2  C   UNL     1      -0.214   0.003   0.828  0.00  0.00    -0.063 C 
ATOM      3  C   UNL     1      -0.164   1.520   0.628  0.00  0.00    +0.066 C 
ATOM      4  N   UNL     1       1.180   1.909   0.178  0.00  0.00    -0.298 NA
ATOM      5  C   UNL     1       2.196   1.514   1.163  0.00  0.00    +0.066 C 
ATOM      6  C   UNL     1       2.147  -0.003   1.364  0.00  0.00    -0.063 C 
ATOM      7  H   UNL     1       0.591   0.141   2.752  0.00  0.00    -0.081 HD
ENDROOT
BRANCH   1   8
ATOM      8  C   UNL     1       0.736  -1.833   2.090  0.00  0.00    +0.019 C 
BRANCH   8  10
ATOM      9  N   UNL     1      -0.910  -3.437   3.003  0.00  0.00    -0.317 N 
ATOM     10  C   UNL     1      -0.569  -2.154   2.772  0.00  0.00    +0.196 C 
ATOM     11  O   UNL     1      -1.311  -1.258   3.113  0.00  0.00    -0.278 OA
ATOM     12  H   UNL     1      -0.237  -4.250   2.694  0.00  0.00    +0.149 HD
BRANCH   9  14
ATOM     13  C   UNL     1      -2.321  -5.266   3.806  0.00  0.00    +0.024 C 
ATOM     14  C   UNL     1      -2.179  -3.749   3.667  0.00  0.00    +0.101 C 
ENDBRANCH   9  14
ENDBRANCH   8  10
ENDBRANCH   1   8
BRANCH   4  15
ATOM     15  C   UNL     1       1.246   3.350  -0.098  0.00  0.00    +0.180 C 
BRANCH  15  16
ATOM     16  C   UNL     1       0.370   3.676  -1.280  0.00  0.00    +0.234 C 
ATOM     17  O   UNL     1      -0.225   2.790  -1.856  0.00  0.00    -0.274 OA
ATOM     18  N   UNL     1       0.249   4.951  -1.697  0.00  0.00    -0.239 N 
ATOM     19  C   UNL     1      -0.535   5.243  -2.755  0.00  0.00    +0.306 C 
ATOM     20  O   UNL     1      -1.131   4.355  -3.332  0.00  0.00    -0.252 OA
ATOM     21  N   UNL     1      -0.656   6.519  -3.172  0.00  0.00    -0.302 N 
ATOM     22  C   UNL     1      -1.508   6.835  -4.321  0.00  0.00    +0.129 C 
ATOM     23  H   UNL     1       0.789   5.755  -1.175  0.00  0.00    +0.159 HD
ATOM     24  H   UNL     1      -0.116   7.322  -2.649  0.00  0.00    +0.150 HD
ENDBRANCH  15  16
ENDBRANCH   4  15
TORSDOF 5
