REMARK  Name = ZINC63515537
REMARK  13 active torsions:
REMARK  status: ('A' for Active; 'I' for Inactive)
REMARK    1  A    between atoms: C_1  and  C_2
REMARK    2  A    between atoms: C_4  and  S_12
REMARK    3  A    between atoms: C_5  and  C_11
REMARK    4  A    between atoms: C_6  and  C_10
REMARK    5  A    between atoms: C_7  and  O_8
REMARK    6  A    between atoms: O_8  and  C_9
REMARK    7  A    between atoms: S_12  and  N_15
REMARK    8  A    between atoms: N_15  and  C_16
REMARK    9  A    between atoms: C_16  and  C_17
REMARK   10  A    between atoms: C_17  and  C_18
REMARK   11  A    between atoms: C_21  and  O_29
REMARK   12  A    between atoms: C_26  and  C_28
REMARK   13  A    between atoms: O_29  and  C_30
REMARK                            x       y       z     vdW  Elec       q    Type
REMARK                         _______ _______ _______ _____ _____    ______ ____
ROOT
ATOM      1  C   UNL     1       1.392  -4.929  -1.826  0.00  0.00    +0.110 C 
ENDROOT
BRANCH   1   2
ATOM      2  N   UNL     1       1.339  -3.795  -2.752  0.00  0.00    -0.190 NA
ATOM      3  H   UNL     1       2.111  -3.576  -3.296  0.00  0.00    +0.148 HD
BRANCH   2   4
ATOM      4  S   UNL     1      -0.041  -2.886  -2.870  0.00  0.00    +0.059 S 
ATOM      5  O   UNL     1       0.195  -1.920  -3.884  0.00  0.00    -0.153 OA
ATOM      6  O   UNL     1      -0.405  -2.526  -1.544  0.00  0.00    -0.153 OA
BRANCH   4  10
ATOM      7  C   UNL     1      -4.622  -5.334  -2.294  0.00  0.00    +0.047 C 
ATOM      8  C   UNL     1      -3.418  -5.044  -3.152  0.00  0.00    -0.007 A 
ATOM      9  C   UNL     1      -2.418  -4.213  -2.683  0.00  0.00    +0.035 A 
ATOM     10  C   UNL     1      -1.313  -3.947  -3.470  0.00  0.00    +0.109 A 
ATOM     11  C   UNL     1      -1.205  -4.511  -4.728  0.00  0.00    -0.018 A 
ATOM     12  C   UNL     1      -2.201  -5.343  -5.201  0.00  0.00    -0.004 A 
ATOM     13  C   UNL     1      -3.309  -5.616  -4.411  0.00  0.00    +0.126 A 
ATOM     14  C   UNL     1      -2.083  -5.957  -6.572  0.00  0.00    +0.048 C 
ATOM     15  C   UNL     1       0.000  -4.218  -5.583  0.00  0.00    +0.046 C 
BRANCH  13  16
ATOM     16  O   UNL     1      -4.288  -6.438  -4.872  0.00  0.00    -0.495 OA
ATOM     17  C   UNL     1      -5.357  -5.830  -5.599  0.00  0.00    +0.277 C 
ENDBRANCH  13  16
ENDBRANCH   4  10
ENDBRANCH   2   4
ENDBRANCH   1   2
BRANCH   1  18
ATOM     18  C   UNL     1       2.586  -5.819  -2.178  0.00  0.00    +0.050 C 
BRANCH  18  19
ATOM     19  C   UNL     1       2.634  -6.992  -1.234  0.00  0.00    -0.037 C 
ATOM     20  C   UNL     1       1.772  -7.261  -0.227  0.00  0.00    +0.003 A 
ATOM     21  C   UNL     1       0.578  -6.570   0.272  0.00  0.00    +0.056 A 
ATOM     22  C   UNL     1      -0.101  -7.088   1.324  0.00  0.00    +0.129 A 
ATOM     23  C   UNL     1       0.296  -8.275   1.963  0.00  0.00    +0.048 A 
ATOM     24  C   UNL     1       1.380  -8.981   1.577  0.00  0.00    +0.029 A 
ATOM     25  C   UNL     1       2.190  -8.512   0.447  0.00  0.00    +0.043 A 
ATOM     26  N   UNL     1       3.267  -8.996  -0.119  0.00  0.00    -0.378 N 
ATOM     27  C   UNL     1       3.652  -8.110  -1.224  0.00  0.00    +0.103 C 
ATOM     28  C   UNL     1       5.053  -7.546  -0.979  0.00  0.00    +0.035 C 
ATOM     29  H   UNL     1       3.729  -9.806   0.145  0.00  0.00    +0.160 HD
BRANCH  22  30
ATOM     30  O   UNL     1      -1.205  -6.436   1.776  0.00  0.00    -0.420 OA
BRANCH  30  31
ATOM     31  C   UNL     1      -1.891  -7.017   2.887  0.00  0.00    +0.489 C 
ATOM     32  F   UNL     1      -2.326  -8.303   2.546  0.00  0.00    -0.149 F 
ATOM     33  F   UNL     1      -1.024  -7.094   3.982  0.00  0.00    -0.149 F 
ATOM     34 CL   UNL     1      -3.314  -5.996   3.316  0.00  0.00    +0.000 Cl
ENDBRANCH  30  31
ENDBRANCH  22  30
ENDBRANCH  18  19
ENDBRANCH   1  18
TORSDOF 8
