REMARK  Name = ZINC41019561
REMARK  12 active torsions:
REMARK  status: ('A' for Active; 'I' for Inactive)
REMARK    1  A    between atoms: C_1  and  C_2
REMARK    2  A    between atoms: C_2  and  C_3
REMARK    3  A    between atoms: C_3  and  C_4
REMARK    4  A    between atoms: C_4  and  S_5
REMARK    5  A    between atoms: S_5  and  C_6
REMARK    6  A    between atoms: C_11  and  C_28
REMARK    7  A    between atoms: C_13  and  C_17
REMARK    8  A    between atoms: C_14  and  C_16
REMARK    9  A    between atoms: N_19  and  C_20
REMARK   10  A    between atoms: C_24  and  C_27
REMARK   11  A    between atoms: C_25  and  C_26
REMARK   12  A    between atoms: C_32  and  O_34
REMARK                            x       y       z     vdW  Elec       q    Type
REMARK                         _______ _______ _______ _____ _____    ______ ____
ROOT
ATOM      1  C   UNL     1       1.445  -4.396   2.665  0.00  0.00    +0.210 A 
ATOM      2  N   UNL     1       0.906  -5.081   1.645  0.00  0.00    -0.187 NA
ATOM      3  C   UNL     1       1.073  -6.360   1.842  0.00  0.00    +0.219 A 
ATOM      4  N   UNL     1       1.740  -6.523   3.011  0.00  0.00    -0.220 N 
ATOM      5  N   UNL     1       1.970  -5.246   3.521  0.00  0.00    -0.141 NA
ATOM      6  C   UNL     1       2.115  -7.827   3.553  0.00  0.00    +0.177 C 
ATOM      7  C   UNL     1       1.400  -8.911   2.791  0.00  0.00    +0.060 C 
ATOM      8  C   UNL     1       0.752  -8.689   1.638  0.00  0.00    +0.018 C 
ATOM      9  N   UNL     1       0.681  -7.442   1.066  0.00  0.00    -0.287 N 
ATOM     10  C   UNL     1       0.080  -9.847   0.947  0.00  0.00    +0.061 C 
ATOM     11  H   UNL     1       0.369  -7.323   0.156  0.00  0.00    +0.155 HD
ENDROOT
BRANCH   6  12
ATOM     12  C   UNL     1       3.604  -8.017   3.421  0.00  0.00    -0.015 A 
ATOM     13  C   UNL     1       4.196  -7.987   2.171  0.00  0.00    +0.006 A 
ATOM     14  C   UNL     1       5.561  -8.161   2.046  0.00  0.00    +0.004 A 
ATOM     15  C   UNL     1       6.338  -8.366   3.170  0.00  0.00    +0.045 A 
ATOM     16  C   UNL     1       5.747  -8.397   4.425  0.00  0.00    +0.117 A 
ATOM     17  C   UNL     1       4.377  -8.216   4.548  0.00  0.00    +0.051 A 
BRANCH  16  18
ATOM     18  O   UNL     1       6.509  -8.599   5.532  0.00  0.00    -0.507 OA
ATOM     19  H   UNL     1       6.848  -7.785   5.929  0.00  0.00    +0.292 HD
ENDBRANCH  16  18
ENDBRANCH   6  12
BRANCH   7  20
ATOM     20  C   UNL     1       1.414 -10.225   3.315  0.00  0.00    +0.248 C 
ATOM     21  O   UNL     1       0.708 -10.508   4.266  0.00  0.00    -0.270 OA
ATOM     22  N   UNL     1       2.208 -11.162   2.762  0.00  0.00    -0.281 N 
ATOM     23  H   UNL     1       2.816 -10.922   2.046  0.00  0.00    +0.155 HD
BRANCH  22  24
ATOM     24  C   UNL     1       2.156 -12.482   3.222  0.00  0.00    +0.037 A 
ATOM     25  C   UNL     1       1.919 -12.743   4.566  0.00  0.00    +0.023 A 
ATOM     26  C   UNL     1       1.869 -14.047   5.016  0.00  0.00    +0.002 A 
ATOM     27  C   UNL     1       2.053 -15.094   4.131  0.00  0.00    +0.004 A 
ATOM     28  C   UNL     1       2.288 -14.838   2.792  0.00  0.00    -0.046 A 
ATOM     29  C   UNL     1       2.335 -13.536   2.334  0.00  0.00    -0.026 A 
ATOM     30  C   UNL     1       2.585 -13.258   0.875  0.00  0.00    +0.046 C 
ATOM     31  C   UNL     1       2.488 -15.981   1.832  0.00  0.00    +0.044 C 
ENDBRANCH  22  24
ENDBRANCH   7  20
BRANCH   1  32
ATOM     32  S   UNL     1       1.456  -2.642   2.828  0.00  0.00    -0.084 S 
BRANCH  32  33
ATOM     33  C   UNL     1       0.589  -2.058   1.345  0.00  0.00    +0.077 C 
BRANCH  33  34
ATOM     34  C   UNL     1       0.526  -0.530   1.359  0.00  0.00    +0.011 C 
BRANCH  34  36
ATOM     35  C   UNL     1      -0.268   1.491   0.123  0.00  0.00    +0.004 C 
ATOM     36  C   UNL     1      -0.206  -0.038   0.109  0.00  0.00    -0.003 C 
ENDBRANCH  34  36
ENDBRANCH  33  34
ENDBRANCH  32  33
ENDBRANCH   1  32
TORSDOF 8
