REMARK  Name = ZINC43800548
REMARK  8 active torsions:
REMARK  status: ('A' for Active; 'I' for Inactive)
REMARK    1  A    between atoms: C_1  and  C_2
REMARK    2  A    between atoms: C_2  and  C_3
REMARK    3  A    between atoms: C_2  and  C_4
REMARK    4  A    between atoms: C_4  and  C_6
REMARK    5  A    between atoms: C_4  and  N_17
REMARK    6  A    between atoms: C_6  and  N_7
REMARK    7  A    between atoms: C_8  and  C_10
REMARK    8  A    between atoms: N_20  and  C_23
REMARK                            x       y       z     vdW  Elec       q    Type
REMARK                         _______ _______ _______ _____ _____    ______ ____
ROOT
ATOM      1  C   UNL     1      -2.397  -0.397  -1.164  0.00  0.00    +0.123 C 
ENDROOT
BRANCH   1   2
ATOM      2  N   UNL     1      -3.632  -1.166  -0.997  0.00  0.00    -0.312 N 
ATOM      3  C   UNL     1      -4.522  -1.241  -2.007  0.00  0.00    +0.240 C 
ATOM      4  O   UNL     1      -4.299  -0.672  -3.054  0.00  0.00    -0.273 OA
ATOM      5  H   UNL     1      -3.811  -1.621  -0.159  0.00  0.00    +0.149 HD
BRANCH   3   6
ATOM      6  C   UNL     1      -5.793  -2.031  -1.835  0.00  0.00    +0.187 C 
ATOM      7  C   UNL     1      -5.454  -3.514  -1.662  0.00  0.00    -0.041 C 
ATOM      8  N   UNL     1      -6.697  -4.289  -1.552  0.00  0.00    +0.383 N 
ATOM      9  C   UNL     1      -7.496  -4.107  -2.772  0.00  0.00    -0.054 C 
ATOM     10  C   UNL     1      -7.831  -2.623  -2.943  0.00  0.00    +0.142 C 
ATOM     11  O   UNL     1      -6.618  -1.867  -2.991  0.00  0.00    -0.371 OA
ATOM     12  H   UNL     1      -6.475  -5.267  -1.438  0.00  0.00    -0.086 HD
ATOM     13  H   UNL     1      -7.224  -3.969  -0.754  0.00  0.00    -0.086 HD
ENDBRANCH   3   6
ENDBRANCH   1   2
BRANCH   1  14
ATOM     14  C   UNL     1      -1.648  -0.339   0.169  0.00  0.00    +0.076 C 
BRANCH  14  15
ATOM     15  N   UNL     1      -2.418   0.464   1.128  0.00  0.00    -0.301 NA
ATOM     16  C   UNL     1      -3.362  -0.375   1.878  0.00  0.00    +0.066 C 
ATOM     17  C   UNL     1      -4.100   0.486   2.906  0.00  0.00    -0.064 C 
ATOM     18  N   UNL     1      -4.819   1.565   2.215  0.00  0.00    +0.379 N 
ATOM     19  C   UNL     1      -3.860   2.409   1.490  0.00  0.00    -0.064 C 
ATOM     20  C   UNL     1      -3.120   1.563   0.451  0.00  0.00    +0.066 C 
ATOM     21  C   UNL     1      -5.542   2.380   3.200  0.00  0.00    -0.096 C 
ATOM     22  H   UNL     1      -5.477   1.166   1.562  0.00  0.00    -0.082 HD
ENDBRANCH  14  15
BRANCH  14  24
ATOM     23  C   UNL     1      -0.452   1.766  -0.448  0.00  0.00    +0.009 C 
ATOM     24  C   UNL     1      -0.275   0.301  -0.046  0.00  0.00    +0.001 C 
ATOM     25  C   UNL     1       0.533   0.222   1.252  0.00  0.00    +0.009 C 
ENDBRANCH  14  24
ENDBRANCH   1  14
TORSDOF 5
