REMARK  Name = ZINC37174174
REMARK  7 active torsions:
REMARK  status: ('A' for Active; 'I' for Inactive)
REMARK    1  A    between atoms: C_1  and  N_2
REMARK    2  A    between atoms: N_2  and  C_3
REMARK    3  A    between atoms: N_2  and  C_17
REMARK    4  A    between atoms: C_3  and  C_4
REMARK    5  A    between atoms: C_4  and  C_5
REMARK    6  A    between atoms: N_7  and  C_8
REMARK    7  A    between atoms: C_9  and  N_16
REMARK                            x       y       z     vdW  Elec       q    Type
REMARK                         _______ _______ _______ _____ _____    ______ ____
ROOT
ATOM      1  C   UNL     1      -3.846   0.626   1.666  0.00  0.00    +0.215 C 
ATOM      2  O   UNL     1      -4.616   1.172   0.904  0.00  0.00    -0.276 OA
ATOM      3  N   UNL     1      -4.260  -0.422   2.406  0.00  0.00    -0.283 N 
ATOM      4  H   UNL     1      -3.627  -0.904   2.960  0.00  0.00    +0.155 HD
ENDROOT
BRANCH   3   5
ATOM      5  C   UNL     1      -5.606  -0.815   2.374  0.00  0.00    +0.073 A 
ATOM      6  C   UNL     1      -6.524  -0.237   3.251  0.00  0.00    +0.049 A 
ATOM      7  C   UNL     1      -7.853  -0.630   3.214  0.00  0.00    +0.044 A 
ATOM      8  C   UNL     1      -8.266  -1.591   2.309  0.00  0.00    +0.044 A 
ATOM      9  C   UNL     1      -7.356  -2.164   1.440  0.00  0.00    +0.042 A 
ATOM     10  C   UNL     1      -6.029  -1.775   1.466  0.00  0.00    +0.065 A 
ATOM     11 CL   UNL     1      -4.891  -2.491   0.368  0.00  0.00    -0.082 Cl
ATOM     12 CL   UNL     1      -9.931  -2.081   2.266  0.00  0.00    -0.083 Cl
BRANCH   6  13
ATOM     13  N   UNL     1      -6.104   0.735   4.165  0.00  0.00    -0.356 N 
ATOM     14  H   UNL     1      -5.173   1.008   4.190  0.00  0.00    +0.142 HD
ATOM     15  H   UNL     1      -6.743   1.136   4.774  0.00  0.00    +0.142 HD
ENDBRANCH   6  13
ENDBRANCH   3   5
BRANCH   1  16
ATOM     16  C   UNL     1      -2.427   1.119   1.786  0.00  0.00    +0.077 C 
BRANCH  16  17
ATOM     17  C   UNL     1      -2.219   2.308   0.846  0.00  0.00    -0.070 C 
BRANCH  17  19
ATOM     18  C   UNL     1      -0.614   3.319   2.314  0.00  0.00    -0.096 C 
ATOM     19  N   UNL     1      -0.836   2.789   0.962  0.00  0.00    +0.381 N 
ATOM     20  H   UNL     1      -0.199   2.026   0.791  0.00  0.00    -0.082 HD
BRANCH  19  21
ATOM     21  C   UNL     1      -0.602   3.852  -0.024  0.00  0.00    -0.058 C 
ATOM     22  C   UNL     1      -0.901   3.301  -1.418  0.00  0.00    -0.004 C 
ATOM     23  C   UNL     1      -0.051   4.045  -2.485  0.00  0.00    +0.067 C 
ATOM     24  S   UNL     1       1.540   4.198  -1.559  0.00  0.00    -0.162 S 
ATOM     25  C   UNL     1       0.843   4.363   0.134  0.00  0.00    +0.054 C 
ENDBRANCH  19  21
ENDBRANCH  17  19
ENDBRANCH  16  17
ENDBRANCH   1  16
TORSDOF 6
