REMARK  Name = ZINC03418590
REMARK  6 active torsions:
REMARK  status: ('A' for Active; 'I' for Inactive)
REMARK    1  A    between atoms: C_1  and  N_2
REMARK    2  A    between atoms: N_2  and  C_3
REMARK    3  A    between atoms: N_2  and  C_4
REMARK    4  A    between atoms: C_7  and  C_10
REMARK    5  A    between atoms: C_13  and  C_25
REMARK    6  A    between atoms: C_29  and  N_31
REMARK                            x       y       z     vdW  Elec       q    Type
REMARK                         _______ _______ _______ _____ _____    ______ ____
ROOT
ATOM      1  C   UNL     1      -3.223   4.950   0.051  0.00  0.00    +0.034 C 
ATOM      2  C   UNL     1      -4.696   4.816   0.462  0.00  0.00    -0.068 C 
ATOM      3  C   UNL     1      -4.864   2.429   0.034  0.00  0.00    +0.007 C 
ATOM      4  C   UNL     1      -3.353   2.433   0.018  0.00  0.00    +0.011 A 
ATOM      5  C   UNL     1      -2.623   3.567   0.035  0.00  0.00    -0.015 A 
ATOM      6  C   UNL     1      -1.218   3.183   0.005  0.00  0.00    +0.004 A 
ATOM      7  C   UNL     1      -0.011   3.886  -0.008  0.00  0.00    +0.010 A 
ATOM      8  C   UNL     1       1.173   3.206  -0.035  0.00  0.00    +0.001 A 
ATOM      9  C   UNL     1       1.189   1.818  -0.050  0.00  0.00    +0.002 A 
ATOM     10  C   UNL     1       0.012   1.103  -0.039  0.00  0.00    +0.026 A 
ATOM     11  C   UNL     1      -1.206   1.774  -0.016  0.00  0.00    +0.047 A 
ATOM     12  N   UNL     1      -2.519   1.353  -0.005  0.00  0.00    -0.359 N 
ATOM     13  H   UNL     1      -2.807   0.427  -0.013  0.00  0.00    +0.166 HD
ATOM     14  N   UNL     1      -5.346   3.772  -0.357  0.00  0.00    +0.388 N 
ATOM     15  H   UNL     1      -5.127   3.935  -1.347  0.00  0.00    -0.084 HD
ATOM     16  H   UNL     1      -6.362   3.819  -0.219  0.00  0.00    -0.084 HD
ENDROOT
BRANCH   3  17
ATOM     17  C   UNL     1      -5.379   1.410  -0.950  0.00  0.00    -0.054 A 
ATOM     18  C   UNL     1      -5.436   1.718  -2.297  0.00  0.00    +0.004 A 
ATOM     19  C   UNL     1      -5.904   0.783  -3.201  0.00  0.00    +0.022 A 
ATOM     20  C   UNL     1      -6.325  -0.458  -2.756  0.00  0.00    +0.071 A 
ATOM     21  C   UNL     1      -6.272  -0.764  -1.408  0.00  0.00    +0.145 A 
ATOM     22  C   UNL     1      -5.799   0.171  -0.506  0.00  0.00    +0.036 A 
ATOM     23 CL   UNL     1      -6.918  -1.631  -3.890  0.00  0.00    -0.081 Cl
BRANCH  21  24
ATOM     24  N   UNL     1      -6.721  -2.091  -0.932  0.00  0.00    +0.058 N 
ATOM     25  O   UNL     1      -6.674  -2.360   0.255  0.00  0.00    -0.126 OA
ATOM     26  O   UNL     1      -7.138  -2.914  -1.727  0.00  0.00    -0.126 OA
ENDBRANCH  21  24
ENDBRANCH   3  17
BRANCH   1  30
ATOM     27  C   UNL     1      -1.142   7.372   2.892  0.00  0.00    +0.029 A 
ATOM     28  C   UNL     1      -1.205   7.761   1.559  0.00  0.00    +0.023 A 
ATOM     29  C   UNL     1      -1.879   6.975   0.644  0.00  0.00    +0.006 A 
ATOM     30  C   UNL     1      -2.489   5.804   1.052  0.00  0.00    -0.042 A 
ATOM     31  C   UNL     1      -2.433   5.417   2.379  0.00  0.00    +0.006 A 
ATOM     32  C   UNL     1      -1.756   6.195   3.299  0.00  0.00    +0.023 A 
BRANCH  27  34
ATOM     33  C   UNL     1       0.291   9.337   3.370  0.00  0.00    +0.129 C 
ATOM     34  N   UNL     1      -0.462   8.164   3.820  0.00  0.00    -0.336 N 
ATOM     35  C   UNL     1      -0.501   7.820   5.244  0.00  0.00    +0.129 C 
ENDBRANCH  27  34
ENDBRANCH   1  30
TORSDOF 4
