REMARK  Name = ZINC48795922
REMARK  6 active torsions:
REMARK  status: ('A' for Active; 'I' for Inactive)
REMARK    1  A    between atoms: C_3  and  C_17
REMARK    2  A    between atoms: C_4  and  O_8
REMARK    3  A    between atoms: O_8  and  C_9
REMARK    4  A    between atoms: C_14  and  O_16
REMARK    5  A    between atoms: C_17  and  N_18
REMARK    6  A    between atoms: N_18  and  C_19
REMARK                            x       y       z     vdW  Elec       q    Type
REMARK                         _______ _______ _______ _____ _____    ______ ____
ROOT
ATOM      1  C   UNL     1      -0.017   1.378   0.010  0.00  0.00    +0.002 A 
ATOM      2  C   UNL     1       1.170   2.088   0.002  0.00  0.00    +0.005 A 
ATOM      3  C   UNL     1       2.378   1.418  -0.013  0.00  0.00    -0.022 A 
ATOM      4  C   UNL     1       2.400   0.031  -0.021  0.00  0.00    +0.136 A 
ATOM      5  C   UNL     1       1.208  -0.680  -0.013  0.00  0.00    +0.060 A 
ATOM      6  C   UNL     1       0.002  -0.004   0.002  0.00  0.00    +0.019 A 
ATOM      7 BR   UNL     1       1.233  -2.571  -0.024  0.00  0.00    -0.047 Br
ENDROOT
BRANCH   4   8
ATOM      8  O   UNL     1       3.587  -0.631  -0.037  0.00  0.00    -0.485 OA
BRANCH   8   9
ATOM      9  C   UNL     1       4.167  -0.953   1.229  0.00  0.00    +0.202 C 
ATOM     10  C   UNL     1       3.745  -2.377   1.671  0.00  0.00    +0.047 C 
ATOM     11  C   UNL     1       4.873  -2.777   2.654  0.00  0.00    +0.006 C 
ATOM     12  C   UNL     1       6.152  -2.192   2.021  0.00  0.00    +0.035 C 
ATOM     13  C   UNL     1       5.703  -1.029   1.115  0.00  0.00    +0.155 C 
BRANCH  13  14
ATOM     14  O   UNL     1       6.288   0.196   1.561  0.00  0.00    -0.388 OA
ATOM     15  H   UNL     1       7.254   0.211   1.514  0.00  0.00    +0.210 HD
ENDBRANCH  13  14
ENDBRANCH   8   9
ENDBRANCH   4   8
BRANCH   3  16
ATOM     16  C   UNL     1       3.670   2.193  -0.023  0.00  0.00    -0.043 C 
BRANCH  16  17
ATOM     17  N   UNL     1       4.200   2.245  -1.392  0.00  0.00    +0.384 N 
ATOM     18  H   UNL     1       4.368   1.307  -1.724  0.00  0.00    -0.085 HD
ATOM     19  H   UNL     1       3.531   2.700  -1.994  0.00  0.00    -0.085 HD
BRANCH  17  20
ATOM     20  C   UNL     1       5.460   3.001  -1.401  0.00  0.00    -0.072 C 
ATOM     21  C   UNL     1       5.496   4.305  -2.200  0.00  0.00    -0.017 C 
ATOM     22  C   UNL     1       6.233   3.069  -2.719  0.00  0.00    -0.017 C 
ENDBRANCH  17  20
ENDBRANCH  16  17
ENDBRANCH   3  16
TORSDOF 6
