REMARK  Name = ZINC17043327
REMARK  9 active torsions:
REMARK  status: ('A' for Active; 'I' for Inactive)
REMARK    1  A    between atoms: C_1  and  C_2
REMARK    2  A    between atoms: N_9  and  CA_10
REMARK    3  A    between atoms: CA_10  and  CB_12
REMARK    4  A    between atoms: CA_10  and  C_19
REMARK    5  A    between atoms: CB_12  and  CG_13
REMARK    6  A    between atoms: C_23  and  C_25
REMARK    7  A    between atoms: C_28  and  O_33
REMARK    8  A    between atoms: C_29  and  O_31
REMARK    9  A    between atoms: O_31  and  C_32
REMARK                            x       y       z     vdW  Elec       q    Type
REMARK                         _______ _______ _______ _____ _____    ______ ____
ROOT
ATOM      1  C   UNK A   0      -0.088   1.503   0.012  0.00  0.00    +0.044 C 
ATOM      2  C   UNK A   0      -0.054  -0.004   0.003  0.00  0.00    -0.050 A 
ATOM      3  C   UNK A   0      -0.055  -0.687  -1.202  0.00  0.00    +0.007 A 
ATOM      4  C   UNK A   0      -0.023  -2.066  -1.229  0.00  0.00    +0.047 A 
ATOM      5  C   UNK A   0       0.011  -2.781  -0.039  0.00  0.00    +0.138 A 
ATOM      6  C   UNK A   0       0.012  -2.088   1.179  0.00  0.00    +0.041 A 
ATOM      7  C   UNK A   0      -0.015  -0.697   1.195  0.00  0.00    +0.017 A 
ATOM      8  C   UNK A   0       0.048  -2.872   2.436  0.00  0.00    +0.050 A 
ATOM      9  N   HIS A   1       0.051  -2.282   3.611  0.00  0.00    -0.371 N 
ATOM     10  C   UNK A   0       0.079  -4.291   2.319  0.00  0.00    +0.072 A 
ATOM     11  C   UNK A   0       0.075  -4.857   1.088  0.00  0.00    +0.138 A 
ATOM     12  O   UNK A   0       0.041  -4.132  -0.044  0.00  0.00    -0.455 OA
ATOM     13  H   HIS A   1       0.115  -1.316   3.668  0.00  0.00    +0.160 HD
ENDROOT
BRANCH  11  14
ATOM     14  C   UNK A   0       0.108  -6.329   0.985  0.00  0.00    +0.021 A 
ATOM     15  C   UNK A   0       0.137  -7.112   2.142  0.00  0.00    +0.015 A 
ATOM     16  C   UNK A   0       0.167  -8.486   2.044  0.00  0.00    +0.050 A 
ATOM     17  C   UNK A   0       0.169  -9.096   0.797  0.00  0.00    +0.158 A 
ATOM     18  C   UNK A   0       0.141  -8.322  -0.361  0.00  0.00    +0.162 A 
ATOM     19  C   UNK A   0       0.104  -6.944  -0.270  0.00  0.00    +0.061 A 
BRANCH  18  20
ATOM     20  O   UNK A   0       0.144  -8.923  -1.581  0.00  0.00    -0.491 OA
ATOM     21  C   UNK A   0       0.113  -8.068  -2.725  0.00  0.00    +0.277 C 
ENDBRANCH  18  20
BRANCH  17  22
ATOM     22  O   UNK A   0       0.200 -10.452   0.706  0.00  0.00    -0.503 OA
ATOM     23  H   UNK A   0      -0.675 -10.864   0.688  0.00  0.00    +0.292 HD
ENDBRANCH  17  22
ENDBRANCH  11  14
BRANCH   9  24
ATOM     24  CA  HIS A   1      -0.042  -3.083   4.834  0.00  0.00    +0.199 C 
BRANCH  24  25
ATOM     25  C   HIS A   1      -1.338  -2.775   5.539  0.00  0.00    +0.378 C 
ATOM     26  O   HIS A   1      -2.111  -1.961   5.064  0.00  0.00    -0.244 OA
ATOM     27  OXT HIS A   1      -1.613  -3.339   6.584  0.00  0.00    -0.244 OA
ENDBRANCH  24  25
BRANCH  24  28
ATOM     28  CB  HIS A   1       1.132  -2.748   5.755  0.00  0.00    +0.090 C 
BRANCH  28  29
ATOM     29  CG  HIS A   1       2.422  -3.170   5.099  0.00  0.00    +0.036 A 
ATOM     30  CD2 HIS A   1       2.963  -4.403   5.138  0.00  0.00    +0.105 A 
ATOM     31  NE2 HIS A   1       4.125  -4.348   4.416  0.00  0.00    -0.352 N 
ATOM     32  HE2 HIS A   1       4.741  -5.081   4.261  0.00  0.00    +0.166 HD
ATOM     33  CE1 HIS A   1       4.253  -3.083   3.961  0.00  0.00    +0.171 A 
ATOM     34  ND1 HIS A   1       3.228  -2.386   4.369  0.00  0.00    -0.350 N 
ATOM     35  HD1 HIS A   1       3.075  -1.448   4.176  0.00  0.00    +0.166 HD
ENDBRANCH  28  29
ENDBRANCH  24  28
ENDBRANCH   9  24
TORSDOF 7
