REMARK  Name = ZINC27238559
REMARK  12 active torsions:
REMARK  status: ('A' for Active; 'I' for Inactive)
REMARK    1  A    between atoms: C_1  and  C_2
REMARK    2  A    between atoms: C_2  and  O_3
REMARK    3  A    between atoms: O_3  and  C_4
REMARK    4  A    between atoms: C_7  and  C_10
REMARK    5  A    between atoms: C_10  and  C_11
REMARK    6  A    between atoms: C_10  and  C_18
REMARK    7  A    between atoms: C_10  and  O_35
REMARK    8  A    between atoms: C_15  and  C_17
REMARK    9  A    between atoms: C_18  and  C_20
REMARK   10  A    between atoms: C_18  and  O_28
REMARK   11  A    between atoms: C_20  and  N_21
REMARK   12  A    between atoms: O_28  and  C_29
REMARK                            x       y       z     vdW  Elec       q    Type
REMARK                         _______ _______ _______ _____ _____    ______ ____
ROOT
ATOM      1  C   UNL     1       4.654   0.670   0.248  0.00  0.00    +0.151 C 
ENDROOT
BRANCH   1   2
ATOM      2  C   UNL     1       3.754  -0.107   1.174  0.00  0.00    -0.008 A 
ATOM      3  C   UNL     1       2.476  -0.448   0.770  0.00  0.00    +0.007 A 
ATOM      4  C   UNL     1       1.651  -1.161   1.619  0.00  0.00    +0.001 A 
ATOM      5  C   UNL     1       2.103  -1.534   2.871  0.00  0.00    +0.003 A 
ATOM      6  C   UNL     1       3.381  -1.194   3.274  0.00  0.00    -0.050 A 
ATOM      7  C   UNL     1       4.208  -0.484   2.424  0.00  0.00    +0.010 A 
ATOM      8  C   UNL     1       3.873  -1.601   4.639  0.00  0.00    +0.044 C 
ENDBRANCH   1   2
BRANCH   1  12
ATOM      9  C   UNL     1       4.947  -1.366  -3.498  0.00  0.00    +0.121 A 
ATOM     10  C   UNL     1       5.951  -1.504  -2.551  0.00  0.00    +0.046 A 
ATOM     11  C   UNL     1       5.854  -0.846  -1.341  0.00  0.00    +0.010 A 
ATOM     12  C   UNL     1       4.757  -0.048  -1.073  0.00  0.00    -0.008 A 
ATOM     13  C   UNL     1       3.752   0.088  -2.012  0.00  0.00    +0.010 A 
ATOM     14  C   UNL     1       3.847  -0.565  -3.226  0.00  0.00    +0.046 A 
BRANCH   9  15
ATOM     15  O   UNL     1       5.040  -2.013  -4.689  0.00  0.00    -0.492 OA
BRANCH  15  17
ATOM     16  C   UNL     1       4.248  -2.625  -6.889  0.00  0.00    +0.048 C 
ATOM     17  C   UNL     1       3.969  -1.824  -5.615  0.00  0.00    +0.225 C 
ENDBRANCH  15  17
ENDBRANCH   9  15
ENDBRANCH   1  12
BRANCH   1  18
ATOM     18  O   UNL     1       5.954   0.784   0.832  0.00  0.00    -0.376 OA
ATOM     19  H   UNL     1       6.078   1.282   1.804  0.00  0.00    +0.211 HD
ENDBRANCH   1  18
BRANCH   1  20
ATOM     20  C   UNL     1       4.072   2.067   0.025  0.00  0.00    +0.198 C 
BRANCH  20  21
ATOM     21  C   UNL     1       4.845   2.770  -1.093  0.00  0.00    -0.030 C 
BRANCH  21  22
ATOM     22  N   UNL     1       6.220   3.032  -0.647  0.00  0.00    +0.382 N 
ATOM     23  C   UNL     1       6.245   4.054   0.423  0.00  0.00    -0.079 C 
ATOM     24  C   UNL     1       7.632   4.553   0.721  0.00  0.00    -0.019 C 
ATOM     25  C   UNL     1       7.886   5.825  -0.116  0.00  0.00    -0.002 C 
ATOM     26  C   UNL     1       8.209   5.515  -1.504  0.00  0.00    -0.002 C 
ATOM     27  C   UNL     1       7.063   4.767  -2.216  0.00  0.00    -0.019 C 
ATOM     28  C   UNL     1       7.104   3.322  -1.798  0.00  0.00    -0.079 C 
ATOM     29  H   UNL     1       6.625   2.118  -0.189  0.00  0.00    -0.082 HD
ENDBRANCH  21  22
ENDBRANCH  20  21
BRANCH  20  30
ATOM     30  O   UNL     1       2.696   1.957  -0.344  0.00  0.00    -0.487 OA
BRANCH  30  31
ATOM     31  C   UNL     1       1.911   3.047  -0.138  0.00  0.00    +0.121 A 
ATOM     32  C   UNL     1       0.566   3.009  -0.474  0.00  0.00    +0.045 A 
ATOM     33  C   UNL     1      -0.228   4.121  -0.268  0.00  0.00    +0.004 A 
ATOM     34  C   UNL     1       0.315   5.267   0.283  0.00  0.00    +0.000 A 
ATOM     35  C   UNL     1       1.656   5.307   0.620  0.00  0.00    +0.004 A 
ATOM     36  C   UNL     1       2.455   4.200   0.410  0.00  0.00    +0.045 A 
ENDBRANCH  30  31
ENDBRANCH  20  30
ENDBRANCH   1  20
TORSDOF 10
