REMARK  Name = ZINC43262831
REMARK  10 active torsions:
REMARK  status: ('A' for Active; 'I' for Inactive)
REMARK    1  A    between atoms: C_1  and  C_2
REMARK    2  A    between atoms: C_2  and  C_3
REMARK    3  A    between atoms: C_3  and  C_5
REMARK    4  A    between atoms: C_3  and  N_22
REMARK    5  A    between atoms: C_5  and  C_7
REMARK    6  A    between atoms: C_5  and  N_13
REMARK    7  A    between atoms: N_13  and  C_14
REMARK    8  A    between atoms: N_13  and  C_17
REMARK    9  A    between atoms: C_14  and  C_15
REMARK   10  A    between atoms: C_15  and  O_16
REMARK                            x       y       z     vdW  Elec       q    Type
REMARK                         _______ _______ _______ _____ _____    ______ ____
ROOT
ATOM      1  C   UNL     1       0.437  -1.317  -1.366  0.00  0.00    +0.079 C 
ENDROOT
BRANCH   1   2
ATOM      2  C   UNL     1       1.422  -1.513  -0.242  0.00  0.00    +0.006 A 
ATOM      3  C   UNL     1       2.773  -1.606  -0.298  0.00  0.00    +0.014 A 
ATOM      4  C   UNL     1       3.482  -1.787   0.875  0.00  0.00    +0.023 A 
ATOM      5  C   UNL     1       2.803  -1.866   2.047  0.00  0.00    +0.055 A 
ATOM      6  S   UNL     1       1.112  -1.674   1.509  0.00  0.00    -0.085 S 
ATOM      7 BR   UNL     1       3.475  -2.108   3.798  0.00  0.00    -0.043 Br
ENDBRANCH   1   2
BRANCH   1   8
ATOM      8  C   UNL     1       0.024   0.155  -1.431  0.00  0.00    -0.053 C 
BRANCH   8   9
ATOM      9  N   UNL     1       1.223   0.995  -1.550  0.00  0.00    +0.381 N 
ATOM     10  H   UNL     1       1.818   0.848  -0.749  0.00  0.00    -0.090 HD
ATOM     11  H   UNL     1       1.725   0.749  -2.390  0.00  0.00    -0.090 HD
ATOM     12  H   UNL     1       0.951   1.966  -1.594  0.00  0.00    -0.090 HD
ENDBRANCH   8   9
BRANCH   8  14
ATOM     13  C   UNL     1      -1.256   1.963  -0.276  0.00  0.00    +0.002 C 
ATOM     14  C   UNL     1      -0.736   0.529  -0.157  0.00  0.00    -0.018 C 
ENDBRANCH   8  14
ENDBRANCH   1   8
BRANCH   1  15
ATOM     15  N   UNL     1      -0.750  -2.148  -1.127  0.00  0.00    -0.291 NA
BRANCH  15  16
ATOM     16  C   UNL     1      -0.380  -3.560  -0.964  0.00  0.00    +0.057 C 
ATOM     17  C   UNL     1      -0.082  -4.190  -2.341  0.00  0.00    +0.019 C 
ATOM     18  C   UNL     1      -0.643  -5.630  -2.228  0.00  0.00    +0.002 C 
ATOM     19  C   UNL     1      -1.935  -5.430  -1.399  0.00  0.00    +0.002 C 
ATOM     20  C   UNL     1      -1.558  -4.349  -0.365  0.00  0.00    +0.019 C 
ENDBRANCH  15  16
BRANCH  15  21
ATOM     21  C   UNL     1      -1.735  -1.983  -2.205  0.00  0.00    +0.113 C 
BRANCH  21  22
ATOM     22  C   UNL     1      -3.094  -2.507  -1.739  0.00  0.00    +0.171 C 
BRANCH  22  23
ATOM     23  O   UNL     1      -3.489  -1.819  -0.551  0.00  0.00    -0.394 OA
ATOM     24  H   UNL     1      -4.344  -2.101  -0.198  0.00  0.00    +0.209 HD
ENDBRANCH  22  23
ENDBRANCH  21  22
ENDBRANCH  15  21
ENDBRANCH   1  15
TORSDOF 9
