REMARK  Name = ZINC38551021
REMARK  8 active torsions:
REMARK  status: ('A' for Active; 'I' for Inactive)
REMARK    1  A    between atoms: C_1  and  C_2
REMARK    2  A    between atoms: C_6  and  N_8
REMARK    3  A    between atoms: N_8  and  C_9
REMARK    4  A    between atoms: C_9  and  C_11
REMARK    5  A    between atoms: C_9  and  C_18
REMARK    6  A    between atoms: C_20  and  C_32
REMARK    7  A    between atoms: C_22  and  N_23
REMARK    8  A    between atoms: C_24  and  C_26
REMARK                            x       y       z     vdW  Elec       q    Type
REMARK                         _______ _______ _______ _____ _____    ______ ____
ROOT
ATOM      1  C   UNL     1       0.089  -4.182   2.585  0.00  0.00    +0.137 C 
ENDROOT
BRANCH   1   2
ATOM      2  C   UNL     1      -1.256  -4.854   2.479  0.00  0.00    +0.012 A 
ATOM      3  C   UNL     1      -2.397  -4.186   2.884  0.00  0.00    +0.008 A 
ATOM      4  C   UNL     1      -3.630  -4.802   2.787  0.00  0.00    +0.001 A 
ATOM      5  C   UNL     1      -3.725  -6.086   2.283  0.00  0.00    +0.003 A 
ATOM      6  C   UNL     1      -2.587  -6.755   1.877  0.00  0.00    +0.039 A 
ATOM      7  C   UNL     1      -1.351  -6.137   1.969  0.00  0.00    +0.129 A 
ATOM      8  F   UNL     1      -0.237  -6.789   1.567  0.00  0.00    -0.205 F 
ENDBRANCH   1   2
BRANCH   1   9
ATOM      9  C   UNL     1       0.744  -4.573   3.885  0.00  0.00    +0.006 A 
ATOM     10  C   UNL     1       0.002  -5.139   4.905  0.00  0.00    +0.018 A 
ATOM     11  C   UNL     1       0.622  -5.479   6.060  0.00  0.00    -0.011 A 
ATOM     12  S   UNL     1       2.310  -4.999   5.733  0.00  0.00    -0.078 S 
ATOM     13  C   UNL     1       2.080  -4.381   4.074  0.00  0.00    +0.077 A 
ATOM     14  C   UNL     1       0.038  -6.101   7.302  0.00  0.00    +0.051 C 
BRANCH  13  15
ATOM     15  N   UNL     1       3.023  -3.840   3.198  0.00  0.00    -0.276 N 
ATOM     16  C   UNL     1       4.328  -3.835   3.532  0.00  0.00    +0.249 C 
ATOM     17  O   UNL     1       4.685  -4.303   4.596  0.00  0.00    -0.270 OA
ATOM     18  H   UNL     1       2.738  -3.467   2.349  0.00  0.00    +0.156 HD
BRANCH  16  19
ATOM     19  C   UNL     1       5.327  -3.262   2.605  0.00  0.00    +0.037 A 
ATOM     20  C   UNL     1       4.920  -2.720   1.385  0.00  0.00    +0.013 A 
ATOM     21  C   UNL     1       5.857  -2.186   0.524  0.00  0.00    +0.001 A 
ATOM     22  C   UNL     1       7.197  -2.188   0.868  0.00  0.00    +0.000 A 
ATOM     23  C   UNL     1       7.607  -2.725   2.076  0.00  0.00    +0.001 A 
ATOM     24  C   UNL     1       6.680  -3.256   2.948  0.00  0.00    +0.013 A 
ENDBRANCH  16  19
ENDBRANCH  13  15
ENDBRANCH   1   9
BRANCH   1  25
ATOM     25  N   UNL     1      -0.087  -2.728   2.545  0.00  0.00    -0.320 N 
ATOM     26  H   UNL     1      -0.146  -2.224   3.372  0.00  0.00    +0.148 HD
BRANCH  25  32
ATOM     27  C   UNL     1      -0.593   1.400   0.175  0.00  0.00    +0.063 C 
ATOM     28  C   UNL     1      -0.412  -0.096   0.155  0.00  0.00    +0.014 A 
ATOM     29  C   UNL     1      -0.335  -0.756  -1.055  0.00  0.00    +0.021 A 
ATOM     30  C   UNL     1      -0.168  -2.135  -1.068  0.00  0.00    +0.005 A 
ATOM     31  C   UNL     1      -0.084  -2.801   0.141  0.00  0.00    +0.041 A 
ATOM     32  C   UNL     1      -0.169  -2.071   1.323  0.00  0.00    +0.097 A 
ATOM     33  N   UNL     1      -0.323  -0.756   1.293  0.00  0.00    -0.347 N 
ATOM     34  H   UNL     1      -0.376  -0.268   2.129  0.00  0.00    +0.167 HD
ENDBRANCH  25  32
ENDBRANCH   1  25
TORSDOF 6
