REMARK  Name = ZINC62962776
REMARK  8 active torsions:
REMARK  status: ('A' for Active; 'I' for Inactive)
REMARK    1  A    between atoms: C_1  and  N_2
REMARK    2  A    between atoms: N_2  and  C_3
REMARK    3  A    between atoms: N_2  and  C_4
REMARK    4  A    between atoms: C_4  and  C_5
REMARK    5  A    between atoms: C_5  and  N_6
REMARK    6  A    between atoms: N_9  and  C_12
REMARK    7  A    between atoms: C_12  and  C_19
REMARK    8  A    between atoms: C_19  and  N_20
REMARK                            x       y       z     vdW  Elec       q    Type
REMARK                         _______ _______ _______ _____ _____    ______ ____
ROOT
ATOM      1  N   UNL     1       0.124  -1.089   3.572  0.00  0.00    -0.302 NA
ATOM      2  C   UNL     1       0.248  -2.539   3.776  0.00  0.00    +0.099 C 
ATOM      3  C   UNL     1       1.217  -2.809   4.930  0.00  0.00    +0.100 C 
ATOM      4  N   UNL     1       0.722  -2.149   6.146  0.00  0.00    -0.294 NA
ATOM      5  C   UNL     1       0.598  -0.699   5.942  0.00  0.00    +0.100 C 
ATOM      6  C   UNL     1      -0.371  -0.430   4.788  0.00  0.00    +0.099 C 
ENDROOT
BRANCH   4   7
ATOM      7  C   UNL     1       1.586  -2.447   7.296  0.00  0.00    +0.027 C 
ATOM      8  C   UNL     1       2.964  -1.837   7.044  0.00  0.00    +0.044 C 
ATOM      9  C   UNL     1       4.059  -2.653   7.785  0.00  0.00    +0.168 C 
ATOM     10  S   UNL     1       3.420  -4.361   7.494  0.00  0.00    -0.029 S 
ATOM     11  O   UNL     1       3.730  -5.174   8.617  0.00  0.00    -0.174 OA
ATOM     12  O   UNL     1       3.799  -4.786   6.192  0.00  0.00    -0.174 OA
ATOM     13  C   UNL     1       1.620  -3.974   7.505  0.00  0.00    +0.186 C 
BRANCH   7  14
ATOM     14  C   UNL     1       0.985  -1.794   8.542  0.00  0.00    -0.062 C 
BRANCH  14  15
ATOM     15  N   UNL     1      -0.421  -2.199   8.676  0.00  0.00    +0.379 N 
ATOM     16  H   UNL     1      -0.844  -1.697   9.443  0.00  0.00    -0.090 HD
ATOM     17  H   UNL     1      -0.915  -1.986   7.822  0.00  0.00    -0.090 HD
ATOM     18  H   UNL     1      -0.471  -3.190   8.855  0.00  0.00    -0.090 HD
ENDBRANCH  14  15
ENDBRANCH   7  14
ENDBRANCH   4   7
BRANCH   1  19
ATOM     19  C   UNL     1      -0.740  -0.791   2.422  0.00  0.00    +0.066 C 
BRANCH  19  20
ATOM     20  C   UNL     1      -0.068  -1.280   1.138  0.00  0.00    -0.064 C 
BRANCH  20  22
ATOM     21  C   UNL     1      -1.055   0.474  -0.167  0.00  0.00    -0.097 C 
ATOM     22  N   UNL     1      -0.932  -0.982  -0.011  0.00  0.00    +0.377 N 
ATOM     23  C   UNL     1      -0.344  -1.556  -1.229  0.00  0.00    -0.097 C 
ATOM     24  H   UNL     1      -1.845  -1.382   0.142  0.00  0.00    -0.083 HD
ENDBRANCH  20  22
ENDBRANCH  19  20
ENDBRANCH   1  19
TORSDOF 6
