REMARK  Name = ZINC09058769
REMARK  11 active torsions:
REMARK  status: ('A' for Active; 'I' for Inactive)
REMARK    1  A    between atoms: C_1  and  C_2
REMARK    2  A    between atoms: C_13  and  C_22
REMARK    3  A    between atoms: C_16  and  C_18
REMARK    4  A    between atoms: C_18  and  C_19
REMARK    5  A    between atoms: C_19  and  C_20
REMARK    6  A    between atoms: C_19  and  C_21
REMARK    7  A    between atoms: N_24  and  C_25
REMARK    8  A    between atoms: C_27  and  O_33
REMARK    9  A    between atoms: C_30  and  O_31
REMARK   10  A    between atoms: O_31  and  C_32
REMARK   11  A    between atoms: O_33  and  C_34
REMARK                            x       y       z     vdW  Elec       q    Type
REMARK                         _______ _______ _______ _____ _____    ______ ____
ROOT
ATOM      1  C   UNL     1      -0.184   0.559   0.517  0.00  0.00    +0.044 C 
ATOM      2  C   UNL     1      -0.855   1.262   1.668  0.00  0.00    -0.049 A 
ATOM      3  C   UNL     1      -0.121   1.621   2.785  0.00  0.00    +0.008 A 
ATOM      4  C   UNL     1      -0.736   2.264   3.836  0.00  0.00    -0.026 A 
ATOM      5  C   UNL     1      -2.094   2.558   3.792  0.00  0.00    +0.054 A 
ATOM      6  C   UNL     1      -2.827   2.195   2.663  0.00  0.00    +0.063 A 
ATOM      7  C   UNL     1      -2.205   1.556   1.609  0.00  0.00    +0.025 A 
ATOM      8 CL   UNL     1      -4.524   2.552   2.580  0.00  0.00    -0.082 Cl
ATOM      9  N   UNL     1      -2.487   3.204   4.966  0.00  0.00    -0.285 N 
ATOM     10  C   UNL     1      -1.461   3.372   5.821  0.00  0.00    +0.211 C 
ATOM     11  O   UNL     1      -1.508   3.898   6.913  0.00  0.00    -0.277 OA
ATOM     12  C   UNL     1      -0.242   2.782   5.160  0.00  0.00    +0.049 C 
ATOM     13  C   UNL     1       0.350   1.650   6.009  0.00  0.00    +0.076 C 
ATOM     14  C   UNL     1       1.813   2.079   6.276  0.00  0.00    -0.004 C 
ATOM     15  C   UNL     1       2.096   3.081   5.128  0.00  0.00    -0.069 C 
ATOM     16  H   UNL     1      -3.394   3.498   5.145  0.00  0.00    +0.155 HD
ATOM     17  N   UNL     1       0.808   3.775   4.980  0.00  0.00    +0.394 N 
ATOM     18  H   UNL     1       0.721   4.511   5.690  0.00  0.00    -0.083 HD
ATOM     19  H   UNL     1       0.739   4.192   4.044  0.00  0.00    -0.083 HD
ENDROOT
BRANCH  13  20
ATOM     20  C   UNL     1       0.314   0.350   5.248  0.00  0.00    +0.220 C 
ATOM     21  O   UNL     1       1.229   0.056   4.508  0.00  0.00    -0.275 OA
ATOM     22  N   UNL     1      -0.734  -0.485   5.390  0.00  0.00    -0.282 N 
ATOM     23  H   UNL     1      -1.496  -0.221   5.928  0.00  0.00    +0.155 HD
BRANCH  22  24
ATOM     24  C   UNL     1      -0.722  -1.736   4.759  0.00  0.00    +0.079 A 
ATOM     25  C   UNL     1       0.473  -2.421   4.594  0.00  0.00    +0.072 A 
ATOM     26  C   UNL     1       0.480  -3.661   3.974  0.00  0.00    +0.122 A 
ATOM     27  C   UNL     1      -0.705  -4.212   3.509  0.00  0.00    +0.049 A 
ATOM     28  C   UNL     1      -1.897  -3.529   3.667  0.00  0.00    +0.051 A 
ATOM     29  C   UNL     1      -1.911  -2.292   4.291  0.00  0.00    +0.141 A 
BRANCH  29  30
ATOM     30  O   UNL     1      -3.084  -1.621   4.446  0.00  0.00    -0.493 OA
ATOM     31  C   UNL     1      -4.263  -2.251   3.942  0.00  0.00    +0.277 C 
ENDBRANCH  29  30
BRANCH  26  32
ATOM     32  O   UNL     1       1.650  -4.335   3.818  0.00  0.00    -0.495 OA
ATOM     33  C   UNL     1       1.585  -5.605   3.166  0.00  0.00    +0.277 C 
ENDBRANCH  26  32
ENDBRANCH  22  24
ENDBRANCH  13  20
BRANCH  15  34
ATOM     34  C   UNL     1       3.212   4.053   5.519  0.00  0.00    -0.013 C 
BRANCH  34  35
ATOM     35  C   UNL     1       3.400   5.086   4.407  0.00  0.00    -0.019 C 
ATOM     36  C   UNL     1       4.440   6.121   4.843  0.00  0.00    +0.007 C 
ATOM     37  C   UNL     1       3.882   4.385   3.135  0.00  0.00    +0.007 C 
ENDBRANCH  34  35
ENDBRANCH  15  34
TORSDOF 6
