REMARK  Name = ZINC36660393
REMARK  12 active torsions:
REMARK  status: ('A' for Active; 'I' for Inactive)
REMARK    1  A    between atoms: C_1  and  C_2
REMARK    2  A    between atoms: C_2  and  N_3
REMARK    3  A    between atoms: N_3  and  C_4
REMARK    4  A    between atoms: N_3  and  C_6
REMARK    5  A    between atoms: C_4  and  C_5
REMARK    6  A    between atoms: C_6  and  C_7
REMARK    7  A    between atoms: C_7  and  N_8
REMARK    8  A    between atoms: C_18  and  C_20
REMARK    9  A    between atoms: N_25  and  S_26
REMARK   10  A    between atoms: S_26  and  C_29
REMARK   11  A    between atoms: C_32  and  O_35
REMARK   12  A    between atoms: O_35  and  C_36
REMARK                            x       y       z     vdW  Elec       q    Type
REMARK                         _______ _______ _______ _____ _____    ______ ____
ROOT
ATOM      1  N   UNL     1       1.516  -3.977   1.875  0.00  0.00    -0.251 N 
ATOM      2  C   UNL     1       2.553  -4.548   1.155  0.00  0.00    +0.168 A 
ATOM      3  N   UNL     1       3.601  -3.967   0.620  0.00  0.00    -0.224 NA
ATOM      4  C   UNL     1       4.543  -4.654  -0.061  0.00  0.00    +0.080 A 
ATOM      5  C   UNL     1       5.711  -4.153  -0.683  0.00  0.00    +0.029 A 
ATOM      6  C   UNL     1       6.570  -4.995  -1.340  0.00  0.00    +0.002 A 
ATOM      7  C   UNL     1       6.329  -6.359  -1.421  0.00  0.00    +0.001 A 
ATOM      8  C   UNL     1       5.196  -6.883  -0.825  0.00  0.00    +0.017 A 
ATOM      9  C   UNL     1       4.330  -6.048  -0.164  0.00  0.00    +0.041 A 
ATOM     10  S   UNL     1       2.808  -6.264   0.727  0.00  0.00    -0.052 S 
ATOM     11  C   UNL     1       0.575  -4.761   2.438  0.00  0.00    +0.240 C 
ATOM     12  O   UNL     1      -0.380  -4.259   2.991  0.00  0.00    -0.273 OA
ENDROOT
BRANCH  11  13
ATOM     13  C   UNL     1       0.710  -6.261   2.380  0.00  0.00    +0.166 C 
ATOM     14  C   UNL     1       1.861  -6.720   3.300  0.00  0.00    +0.031 C 
ATOM     15  C   UNL     1       1.123  -7.136   4.599  0.00  0.00    +0.019 C 
ATOM     16  C   UNL     1      -0.187  -7.739   4.034  0.00  0.00    +0.110 C 
ATOM     17  N   UNL     1      -0.523  -6.894   2.870  0.00  0.00    -0.165 NA
BRANCH  17  18
ATOM     18  S   UNL     1      -2.035  -6.689   2.225  0.00  0.00    +0.062 S 
ATOM     19  O   UNL     1      -2.962  -6.981   3.262  0.00  0.00    -0.153 OA
ATOM     20  O   UNL     1      -2.021  -5.441   1.545  0.00  0.00    -0.153 OA
BRANCH  18  21
ATOM     21  C   UNL     1      -2.248  -7.931   0.994  0.00  0.00    +0.106 A 
ATOM     22  C   UNL     1      -1.874  -7.679  -0.313  0.00  0.00    +0.032 A 
ATOM     23  C   UNL     1      -2.041  -8.652  -1.280  0.00  0.00    +0.047 A 
ATOM     24  C   UNL     1      -2.584  -9.882  -0.939  0.00  0.00    +0.120 A 
ATOM     25  C   UNL     1      -2.959 -10.132   0.373  0.00  0.00    +0.047 A 
ATOM     26  C   UNL     1      -2.785  -9.158   1.338  0.00  0.00    +0.032 A 
BRANCH  24  27
ATOM     27  O   UNL     1      -2.750 -10.839  -1.889  0.00  0.00    -0.495 OA
ATOM     28  C   UNL     1      -3.315 -12.082  -1.465  0.00  0.00    +0.277 C 
ENDBRANCH  24  27
ENDBRANCH  18  21
ENDBRANCH  17  18
ENDBRANCH  11  13
BRANCH   1  29
ATOM     29  C   UNL     1       1.442  -2.522   2.024  0.00  0.00    +0.097 C 
BRANCH  29  30
ATOM     30  C   UNL     1       0.626  -1.932   0.872  0.00  0.00    -0.059 C 
BRANCH  30  31
ATOM     31  N   UNL     1       0.442  -0.491   1.089  0.00  0.00    +0.380 N 
ATOM     32  H   UNL     1       0.032  -0.338   1.998  0.00  0.00    -0.082 HD
BRANCH  31  34
ATOM     33  C   UNL     1       1.570   1.664   1.370  0.00  0.00    -0.017 C 
ATOM     34  C   UNL     1       1.744   0.185   1.020  0.00  0.00    -0.082 C 
ENDBRANCH  31  34
BRANCH  31  35
ATOM     35  C   UNL     1      -0.447   0.051   0.053  0.00  0.00    -0.082 C 
ATOM     36  C   UNL     1      -1.844  -0.551   0.213  0.00  0.00    -0.017 C 
ENDBRANCH  31  35
ENDBRANCH  30  31
ENDBRANCH  29  30
ENDBRANCH   1  29
TORSDOF 9
