REMARK  Name = ZINC13121400
REMARK  8 active torsions:
REMARK  status: ('A' for Active; 'I' for Inactive)
REMARK    1  A    between atoms: C_4  and  C_7
REMARK    2  A    between atoms: C_8  and  C_18
REMARK    3  A    between atoms: N_10  and  C_12
REMARK    4  A    between atoms: C_18  and  O_20
REMARK    5  A    between atoms: O_20  and  C_21
REMARK    6  A    between atoms: C_21  and  C_22
REMARK    7  A    between atoms: N_24  and  C_25
REMARK    8  A    between atoms: C_26  and  C_33
REMARK                            x       y       z     vdW  Elec       q    Type
REMARK                         _______ _______ _______ _____ _____    ______ ____
ROOT
ATOM      1  C   UNL     1       2.641   5.420   0.006  0.00  0.00    +0.343 C 
ATOM      2  O   UNL     1       1.668   6.147   0.019  0.00  0.00    -0.245 OA
ENDROOT
BRANCH   1   4
ATOM      3  C   UNL     1       4.337   7.427   0.001  0.00  0.00    +0.107 A 
ATOM      4  C   UNL     1       3.993   6.001  -0.004  0.00  0.00    +0.105 A 
ATOM      5  C   UNL     1       5.189   5.312  -0.013  0.00  0.00    +0.130 A 
ATOM      6  N   UNL     1       6.185   6.215  -0.023  0.00  0.00    -0.238 N 
ATOM      7  N   UNL     1       5.649   7.506  -0.011  0.00  0.00    -0.166 NA
BRANCH   3  11
ATOM      8  C   UNL     1       1.608  10.686   0.041  0.00  0.00    +0.000 A 
ATOM      9  C   UNL     1       2.810  10.785   0.720  0.00  0.00    +0.001 A 
ATOM     10  C   UNL     1       3.700   9.730   0.710  0.00  0.00    +0.010 A 
ATOM     11  C   UNL     1       3.385   8.563   0.015  0.00  0.00    +0.003 A 
ATOM     12  C   UNL     1       2.175   8.471  -0.671  0.00  0.00    +0.010 A 
ATOM     13  C   UNL     1       1.291   9.530  -0.650  0.00  0.00    +0.001 A 
ENDBRANCH   3  11
BRANCH   6  14
ATOM     14  C   UNL     1       7.552   5.909  -0.037  0.00  0.00    +0.065 A 
ATOM     15  C   UNL     1       7.968   4.585  -0.042  0.00  0.00    +0.028 A 
ATOM     16  C   UNL     1       9.317   4.286  -0.061  0.00  0.00    +0.002 A 
ATOM     17  C   UNL     1      10.252   5.305  -0.064  0.00  0.00    +0.000 A 
ATOM     18  C   UNL     1       9.840   6.625  -0.054  0.00  0.00    +0.002 A 
ATOM     19  C   UNL     1       8.493   6.930  -0.041  0.00  0.00    +0.028 A 
ENDBRANCH   6  14
ENDBRANCH   1   4
BRANCH   1  20
ATOM     20  O   UNL     1       2.483   4.082   0.000  0.00  0.00    -0.452 OA
BRANCH  20  21
ATOM     21  C   UNL     1       1.121   3.579   0.011  0.00  0.00    +0.328 C 
BRANCH  21  22
ATOM     22  C   UNL     1       1.141   2.072   0.002  0.00  0.00    +0.255 C 
ATOM     23  O   UNL     1       2.200   1.480  -0.011  0.00  0.00    -0.272 OA
ATOM     24  N   UNL     1      -0.017   1.382   0.010  0.00  0.00    -0.277 N 
ATOM     25  H   UNL     1      -0.863   1.856   0.016  0.00  0.00    +0.155 HD
BRANCH  24  26
ATOM     26  C   UNL     1       0.002  -0.004   0.002  0.00  0.00    +0.084 A 
ATOM     27  C   UNL     1      -1.071  -0.879   0.013  0.00  0.00    +0.068 A 
ATOM     28  C   UNL     1      -0.776  -2.312  -0.003  0.00  0.00    -0.023 A 
ATOM     29  C   UNL     1       0.532  -2.626  -0.017  0.00  0.00    -0.004 A 
ATOM     30  S   UNL     1       1.372  -1.061  -0.016  0.00  0.00    -0.077 S 
ATOM     31  C   UNL     1       0.754  -4.114  -0.030  0.00  0.00    +0.043 C 
ATOM     32  C   UNL     1      -0.606  -4.707  -0.459  0.00  0.00    +0.010 C 
ATOM     33  C   UNL     1      -1.586  -3.609  -0.000  0.00  0.00    +0.037 C 
BRANCH  27  34
ATOM     34  C   UNL     1      -2.452  -0.388   0.036  0.00  0.00    +0.244 C 
ATOM     35  O   UNL     1      -3.041  -0.178  -1.008  0.00  0.00    -0.270 OA
ATOM     36  N   UNL     1      -3.069  -0.167   1.214  0.00  0.00    -0.325 N 
ATOM     37  H   UNL     1      -2.600  -0.334   2.046  0.00  0.00    +0.145 HD
ATOM     38  H   UNL     1      -3.983   0.158   1.229  0.00  0.00    +0.145 HD
ENDBRANCH  27  34
ENDBRANCH  24  26
ENDBRANCH  21  22
ENDBRANCH  20  21
ENDBRANCH   1  20
TORSDOF 8
