REMARK  Name = ZINC36551250
REMARK  12 active torsions:
REMARK  status: ('A' for Active; 'I' for Inactive)
REMARK    1  A    between atoms: C_1  and  C_2
REMARK    2  A    between atoms: C_5  and  S_8
REMARK    3  A    between atoms: S_8  and  C_11
REMARK    4  A    between atoms: C_11  and  N_12
REMARK    5  A    between atoms: C_13  and  C_15
REMARK    6  A    between atoms: C_15  and  C_17
REMARK    7  A    between atoms: C_15  and  N_24
REMARK    8  A    between atoms: C_21  and  O_23
REMARK    9  A    between atoms: N_24  and  C_25
REMARK   10  A    between atoms: C_32  and  C_34
REMARK   11  A    between atoms: C_35  and  C_36
REMARK   12  A    between atoms: C_35  and  C_37
REMARK                            x       y       z     vdW  Elec       q    Type
REMARK                         _______ _______ _______ _____ _____    ______ ____
ROOT
ATOM      1  C   UNL     1       3.359  -4.957   3.442  0.00  0.00    +0.198 C 
ENDROOT
BRANCH   1   2
ATOM      2  C   UNL     1       4.778  -4.505   3.216  0.00  0.00    -0.014 A 
ATOM      3  C   UNL     1       5.815  -5.417   3.291  0.00  0.00    +0.006 A 
ATOM      4  C   UNL     1       7.118  -5.005   3.084  0.00  0.00    +0.004 A 
ATOM      5  C   UNL     1       7.388  -3.680   2.801  0.00  0.00    +0.045 A 
ATOM      6  C   UNL     1       6.350  -2.763   2.725  0.00  0.00    +0.117 A 
ATOM      7  C   UNL     1       5.042  -3.180   2.927  0.00  0.00    +0.051 A 
BRANCH   6   8
ATOM      8  O   UNL     1       6.613  -1.458   2.447  0.00  0.00    -0.507 OA
ATOM      9  H   UNL     1       6.605  -1.248   1.504  0.00  0.00    +0.292 HD
ENDBRANCH   6   8
ENDBRANCH   1   2
BRANCH   1  11
ATOM     10  N   UNL     1       2.999  -5.599   1.080  0.00  0.00    -0.294 N 
ATOM     11  C   UNL     1       2.974  -5.955   2.380  0.00  0.00    +0.240 C 
ATOM     12  O   UNL     1       2.643  -7.079   2.695  0.00  0.00    -0.273 OA
ATOM     13  H   UNL     1       3.265  -4.701   0.829  0.00  0.00    +0.150 HD
BRANCH  10  14
ATOM     14  C   UNL     1       2.626  -6.569   0.048  0.00  0.00    +0.278 C 
BRANCH  14  15
ATOM     15  S   UNL     1       0.874  -6.358  -0.375  0.00  0.00    +0.013 S 
ATOM     16  O   UNL     1       0.092  -6.273   0.808  0.00  0.00    -0.168 OA
ATOM     17  O   UNL     1       0.512  -7.250  -1.420  0.00  0.00    -0.168 OA
BRANCH  15  22
ATOM     18  C   UNL     1       0.526  -0.865  -2.848  0.00  0.00    +0.044 C 
ATOM     19  C   UNL     1       0.613  -2.237  -2.230  0.00  0.00    -0.050 A 
ATOM     20  C   UNL     1       0.858  -3.340  -3.027  0.00  0.00    +0.005 A 
ATOM     21  C   UNL     1       0.938  -4.598  -2.461  0.00  0.00    +0.027 A 
ATOM     22  C   UNL     1       0.774  -4.754  -1.097  0.00  0.00    +0.090 A 
ATOM     23  C   UNL     1       0.530  -3.651  -0.300  0.00  0.00    +0.027 A 
ATOM     24  C   UNL     1       0.454  -2.392  -0.866  0.00  0.00    +0.005 A 
ENDBRANCH  15  22
ENDBRANCH  14  15
ENDBRANCH  10  14
ENDBRANCH   1  11
BRANCH   1  25
ATOM     25  N   UNL     1       3.251  -5.583   4.762  0.00  0.00    -0.252 N 
ATOM     26  C   UNL     1       2.047  -5.971   5.227  0.00  0.00    +0.245 C 
ATOM     27  O   UNL     1       1.040  -5.725   4.590  0.00  0.00    -0.270 OA
BRANCH  25  28
ATOM     28  C   UNL     1       4.396  -5.778   5.540  0.00  0.00    +0.039 A 
ATOM     29  C   UNL     1       5.060  -4.686   6.086  0.00  0.00    +0.023 A 
ATOM     30  C   UNL     1       6.191  -4.881   6.854  0.00  0.00    +0.003 A 
ATOM     31  C   UNL     1       6.664  -6.161   7.079  0.00  0.00    +0.020 A 
ATOM     32  C   UNL     1       6.006  -7.250   6.537  0.00  0.00    +0.043 A 
ATOM     33  C   UNL     1       4.870  -7.062   5.772  0.00  0.00    +0.043 A 
ATOM     34 CL   UNL     1       6.603  -8.855   6.822  0.00  0.00    -0.083 Cl
ENDBRANCH  25  28
BRANCH  26  35
ATOM     35  C   UNL     1       1.950  -6.692   6.505  0.00  0.00    +0.066 C 
ATOM     36  C   UNL     1       0.777  -7.173   6.910  0.00  0.00    -0.071 C 
ATOM     37  C   UNL     1      -0.451  -6.980   6.059  0.00  0.00    +0.039 C 
ATOM     38  C   UNL     1       0.678  -7.912   8.220  0.00  0.00    +0.039 C 
ENDBRANCH  26  35
ENDBRANCH   1  25
TORSDOF 9
