REMARK  Name = ZINC57943651
REMARK  4 active torsions:
REMARK  status: ('A' for Active; 'I' for Inactive)
REMARK    1  A    between atoms: C_7  and  N_12
REMARK    2  A    between atoms: N_12  and  C_13
REMARK    3  A    between atoms: C_13  and  C_14
REMARK    4  A    between atoms: C_17  and  O_21
REMARK                            x       y       z     vdW  Elec       q    Type
REMARK                         _______ _______ _______ _____ _____    ______ ____
ROOT
ATOM      1  N   UNL     1       0.162  -2.681   0.901  0.00  0.00    +0.386 N 
ATOM      2  H   UNL     1       0.461  -2.502   1.848  0.00  0.00    -0.085 HD
ATOM      3  H   UNL     1      -0.709  -2.202   0.727  0.00  0.00    -0.085 HD
ENDROOT
BRANCH   1  10
ATOM      4  C   UNL     1       0.163   1.424   0.236  0.00  0.00    +0.000 A 
ATOM      5  C   UNL     1       1.384   2.072   0.231  0.00  0.00    +0.004 A 
ATOM      6  C   UNL     1       2.551   1.341   0.145  0.00  0.00    +0.046 A 
ATOM      7  C   UNL     1       2.504  -0.047   0.062  0.00  0.00    +0.122 A 
ATOM      8  C   UNL     1       1.280  -0.692   0.064  0.00  0.00    -0.020 A 
ATOM      9  C   UNL     1       0.112   0.046   0.153  0.00  0.00    +0.005 A 
ATOM     10  C   UNL     1       1.184  -2.193  -0.035  0.00  0.00    -0.034 C 
ATOM     11  C   UNL     1       2.535  -2.821   0.315  0.00  0.00    +0.030 C 
ATOM     12  C   UNL     1       3.627  -2.084  -0.471  0.00  0.00    +0.228 C 
ATOM     13  O   UNL     1       3.675  -0.732  -0.015  0.00  0.00    -0.492 OA
ENDBRANCH   1  10
BRANCH   1  14
ATOM     14  C   UNL     1      -0.026  -4.125   0.712  0.00  0.00    -0.046 C 
BRANCH  14  15
ATOM     15  C   UNL     1      -1.161  -4.602   1.581  0.00  0.00    -0.063 A 
ATOM     16  C   UNL     1      -0.909  -5.032   2.871  0.00  0.00    +0.005 A 
ATOM     17  C   UNL     1      -1.947  -5.470   3.670  0.00  0.00    +0.047 A 
ATOM     18  C   UNL     1      -3.244  -5.478   3.179  0.00  0.00    +0.131 A 
ATOM     19  C   UNL     1      -3.495  -5.045   1.884  0.00  0.00    +0.059 A 
ATOM     20  C   UNL     1      -2.453  -4.603   1.090  0.00  0.00    +0.020 A 
ATOM     21 BR   UNL     1      -5.262  -5.054   1.209  0.00  0.00    -0.047 Br
BRANCH  18  22
ATOM     22  O   UNL     1      -4.267  -5.909   3.963  0.00  0.00    -0.506 OA
ATOM     23  H   UNL     1      -4.681  -5.210   4.488  0.00  0.00    +0.292 HD
ENDBRANCH  18  22
ENDBRANCH  14  15
ENDBRANCH   1  14
TORSDOF 4
