REMARK  Name = ZINC30903914
REMARK  2 active torsions:
REMARK  status: ('A' for Active; 'I' for Inactive)
REMARK    1  A    between atoms: N_12  and  C_15
REMARK    2  A    between atoms: N_20  and  C_23
REMARK                            x       y       z     vdW  Elec       q    Type
REMARK                         _______ _______ _______ _____ _____    ______ ____
ROOT
ATOM      1  C   UNL     1       0.208   1.499   0.174  0.00  0.00    +0.001 A 
ATOM      2  C   UNL     1       1.415   2.185   0.190  0.00  0.00    +0.002 A 
ATOM      3  C   UNL     1       2.610   1.501   0.164  0.00  0.00    +0.026 A 
ATOM      4  C   UNL     1       2.612   0.111   0.120  0.00  0.00    +0.047 A 
ATOM      5  C   UNL     1       1.385  -0.581   0.104  0.00  0.00    +0.003 A 
ATOM      6  C   UNL     1       0.185   0.135   0.132  0.00  0.00    +0.010 A 
ATOM      7  C   UNL     1       1.728  -1.996   0.058  0.00  0.00    -0.017 A 
ATOM      8  C   UNL     1       3.074  -2.086   0.050  0.00  0.00    +0.034 A 
ATOM      9  N   UNL     1       3.615  -0.834   0.086  0.00  0.00    -0.357 N 
ATOM     10  H   UNL     1       4.565  -0.638   0.088  0.00  0.00    +0.166 HD
ATOM     11  C   UNL     1       3.810  -3.405   0.008  0.00  0.00    +0.138 C 
ATOM     12  N   UNL     1       2.869  -4.473   0.382  0.00  0.00    -0.285 NA
ATOM     13  C   UNL     1       1.635  -4.408  -0.415  0.00  0.00    +0.090 C 
ATOM     14  C   UNL     1       0.809  -3.190   0.022  0.00  0.00    +0.053 C 
ENDROOT
BRANCH  12  15
ATOM     15  C   UNL     1       3.500  -5.795   0.267  0.00  0.00    +0.153 C 
ATOM     16  C   UNL     1       4.669  -5.926   1.264  0.00  0.00    +0.125 C 
ATOM     17  C   UNL     1       5.873  -6.143   0.374  0.00  0.00    +0.228 C 
ATOM     18  O   UNL     1       7.012  -6.297   0.758  0.00  0.00    -0.275 OA
ATOM     19  N   UNL     1       5.480  -6.140  -0.906  0.00  0.00    -0.209 N 
ATOM     20  C   UNL     1       4.162  -5.953  -1.084  0.00  0.00    +0.244 C 
ATOM     21  O   UNL     1       3.593  -5.916  -2.154  0.00  0.00    -0.273 OA
BRANCH  19  22
ATOM     22  C   UNL     1       6.371  -6.318  -1.974  0.00  0.00    +0.044 A 
ATOM     23  C   UNL     1       7.331  -5.353  -2.247  0.00  0.00    +0.025 A 
ATOM     24  C   UNL     1       8.208  -5.531  -3.299  0.00  0.00    +0.017 A 
ATOM     25  C   UNL     1       8.129  -6.669  -4.082  0.00  0.00    +0.018 A 
ATOM     26  C   UNL     1       7.173  -7.632  -3.812  0.00  0.00    +0.017 A 
ATOM     27  C   UNL     1       6.298  -7.462  -2.757  0.00  0.00    +0.025 A 
ATOM     28 BR   UNL     1       9.330  -6.909  -5.522  0.00  0.00    -0.050 Br
ENDBRANCH  19  22
ENDBRANCH  12  15
TORSDOF 2
