REMARK  Name = ZINC58092544
REMARK  12 active torsions:
REMARK  status: ('A' for Active; 'I' for Inactive)
REMARK    1  A    between atoms: C_1  and  C_2
REMARK    2  A    between atoms: C_2  and  C_3
REMARK    3  A    between atoms: C_3  and  N_4
REMARK    4  A    between atoms: N_7  and  C_8
REMARK    5  A    between atoms: C_8  and  C_9
REMARK    6  A    between atoms: C_8  and  C_10
REMARK    7  A    between atoms: C_8  and  C_11
REMARK    8  A    between atoms: N_13  and  C_14
REMARK    9  A    between atoms: C_14  and  C_15
REMARK   10  A    between atoms: C_15  and  C_16
REMARK   11  A    between atoms: C_15  and  C_17
REMARK   12  A    between atoms: C_15  and  N_18
REMARK                            x       y       z     vdW  Elec       q    Type
REMARK                         _______ _______ _______ _____ _____    ______ ____
ROOT
ATOM      1  C   UNL     1      -3.957  -7.242   0.245  0.00  0.00    +0.236 C 
ATOM      2  O   UNL     1      -4.455  -8.248   0.705  0.00  0.00    -0.273 OA
ATOM      3  N   UNL     1      -2.818  -7.322  -0.472  0.00  0.00    -0.315 N 
ATOM      4  H   UNL     1      -2.420  -6.517  -0.839  0.00  0.00    +0.149 HD
ENDROOT
BRANCH   1   5
ATOM      5  C   UNL     1      -4.611  -5.904   0.475  0.00  0.00    +0.106 C 
ATOM      6  C   UNL     1      -5.454  -5.962   1.750  0.00  0.00    +0.041 C 
ATOM      7  C   UNL     1      -5.510  -5.565  -0.716  0.00  0.00    +0.041 C 
BRANCH   5  11
ATOM      8  N   UNL     1      -2.984  -2.644   0.962  0.00  0.00    -0.299 N 
ATOM      9  C   UNL     1      -3.933  -3.592   0.831  0.00  0.00    +0.300 C 
ATOM     10  O   UNL     1      -5.108  -3.289   0.906  0.00  0.00    -0.253 OA
ATOM     11  N   UNL     1      -3.579  -4.874   0.617  0.00  0.00    -0.286 N 
ATOM     12  H   UNL     1      -2.046  -2.885   0.902  0.00  0.00    +0.150 HD
ATOM     13  H   UNL     1      -2.642  -5.116   0.557  0.00  0.00    +0.151 HD
BRANCH   8  14
ATOM     14  C   UNL     1      -3.368  -1.249   1.195  0.00  0.00    +0.105 C 
BRANCH  14  16
ATOM     15  C   UNL     1      -2.511   1.071   1.549  0.00  0.00    +0.005 C 
ATOM     16  C   UNL     1      -2.110  -0.385   1.306  0.00  0.00    +0.015 C 
ENDBRANCH  14  16
ENDBRANCH   8  14
ENDBRANCH   5  11
ENDBRANCH   1   5
BRANCH   3  17
ATOM     17  C   UNL     1      -2.182  -8.622  -0.695  0.00  0.00    +0.092 C 
BRANCH  17  18
ATOM     18  C   UNL     1      -0.915  -8.433  -1.531  0.00  0.00    -0.055 C 
ATOM     19  C   UNL     1      -0.251  -9.792  -1.765  0.00  0.00    -0.008 C 
ATOM     20  C   UNL     1      -1.282  -7.807  -2.878  0.00  0.00    -0.008 C 
BRANCH  18  21
ATOM     21  N   UNL     1       0.016  -7.549  -0.817  0.00  0.00    +0.387 N 
ATOM     22  C   UNL     1       1.276  -7.452  -1.569  0.00  0.00    -0.073 C 
ATOM     23  C   UNL     1       2.105  -6.306  -0.986  0.00  0.00    +0.017 C 
ATOM     24  C   UNL     1       2.209  -6.463   0.510  0.00  0.00    -0.048 A 
ATOM     25  C   UNL     1       3.184  -5.746   1.187  0.00  0.00    +0.004 A 
ATOM     26  C   UNL     1       3.308  -5.861   2.557  0.00  0.00    +0.000 A 
ATOM     27  C   UNL     1       2.455  -6.695   3.257  0.00  0.00    +0.000 A 
ATOM     28  C   UNL     1       1.485  -7.410   2.583  0.00  0.00    +0.002 A 
ATOM     29  C   UNL     1       1.361  -7.296   1.207  0.00  0.00    -0.061 A 
ATOM     30  C   UNL     1       0.294  -8.101   0.512  0.00  0.00    -0.042 C 
ATOM     31  H   UNL     1      -0.395  -6.632  -0.723  0.00  0.00    -0.080 HD
ENDBRANCH  18  21
ENDBRANCH  17  18
ENDBRANCH   3  17
TORSDOF 7
