REMARK  Name = ZINC44714128
REMARK  12 active torsions:
REMARK  status: ('A' for Active; 'I' for Inactive)
REMARK    1  A    between atoms: C_1  and  C_2
REMARK    2  A    between atoms: C_2  and  C_3
REMARK    3  A    between atoms: C_3  and  C_4
REMARK    4  A    between atoms: C_4  and  C_5
REMARK    5  A    between atoms: C_5  and  C_7
REMARK    6  A    between atoms: C_5  and  C_8
REMARK    7  A    between atoms: C_12  and  C_21
REMARK    8  A    between atoms: N_23  and  C_24
REMARK    9  A    between atoms: C_24  and  C_26
REMARK   10  A    between atoms: C_24  and  C_27
REMARK   11  A    between atoms: C_28  and  C_34
REMARK   12  A    between atoms: C_32  and  C_33
REMARK                            x       y       z     vdW  Elec       q    Type
REMARK                         _______ _______ _______ _____ _____    ______ ____
ROOT
ATOM      1  C   UNL     1      -2.969  -3.825   0.033  0.00  0.00    +0.218 C 
ATOM      2  O   UNL     1      -1.864  -4.322  -0.017  0.00  0.00    -0.275 OA
ATOM      3  N   UNL     1      -4.064  -4.607  -0.034  0.00  0.00    -0.300 N 
ATOM      4  C   UNL     1      -5.484  -4.187   0.003  0.00  0.00    +0.121 C 
ATOM      5  C   UNL     1      -6.189  -5.099  -1.027  0.00  0.00    +0.100 C 
ATOM      6  C   UNL     1      -5.289  -6.342  -1.130  0.00  0.00    -0.004 C 
ATOM      7  C   UNL     1      -4.119  -6.083  -0.170  0.00  0.00    +0.115 C 
ATOM      8  C   UNL     1      -4.768  -6.501  -2.555  0.00  0.00    -0.010 C 
ATOM      9  C   UNL     1      -3.923  -7.774  -2.646  0.00  0.00    -0.082 C 
ATOM     10  N   UNL     1      -4.741  -8.934  -2.271  0.00  0.00    +0.379 N 
ATOM     11  C   UNL     1      -5.161  -8.818  -0.869  0.00  0.00    -0.082 C 
ATOM     12  C   UNL     1      -6.058  -7.589  -0.703  0.00  0.00    -0.010 C 
ATOM     13  H   UNL     1      -5.557  -8.974  -2.862  0.00  0.00    -0.086 HD
ATOM     14  H   UNL     1      -4.200  -9.778  -2.390  0.00  0.00    -0.086 HD
ENDROOT
BRANCH   5  15
ATOM     15  C   UNL     1      -6.285  -4.406  -2.361  0.00  0.00    +0.219 C 
ATOM     16  O   UNL     1      -5.435  -3.607  -2.693  0.00  0.00    -0.275 OA
ATOM     17  N   UNL     1      -7.316  -4.675  -3.187  0.00  0.00    -0.308 N 
ATOM     18  H   UNL     1      -7.996  -5.314  -2.922  0.00  0.00    +0.149 HD
BRANCH  17  19
ATOM     19  C   UNL     1      -7.410  -4.001  -4.484  0.00  0.00    +0.104 C 
ATOM     20  C   UNL     1      -6.577  -4.763  -5.516  0.00  0.00    +0.033 C 
BRANCH  19  21
ATOM     21  C   UNL     1      -8.850  -3.965  -4.929  0.00  0.00    +0.015 A 
ATOM     22  C   UNL     1      -9.494  -2.898  -5.455  0.00  0.00    +0.038 A 
ATOM     23  N   UNL     1     -10.763  -3.274  -5.720  0.00  0.00    -0.281 N 
ATOM     24  H   UNL     1     -11.456  -2.713  -6.104  0.00  0.00    +0.189 HD
ATOM     25  N   UNL     1     -10.903  -4.616  -5.344  0.00  0.00    -0.179 NA
ATOM     26  C   UNL     1      -9.755  -5.031  -4.875  0.00  0.00    +0.065 A 
ATOM     27  C   UNL     1      -9.458  -6.417  -4.362  0.00  0.00    +0.068 C 
ATOM     28  C   UNL     1      -8.901  -1.535  -5.702  0.00  0.00    +0.065 C 
ENDBRANCH  19  21
ENDBRANCH  17  19
ENDBRANCH   5  15
BRANCH   1  29
ATOM     29  C   UNL     1      -3.118  -2.331   0.171  0.00  0.00    +0.072 C 
ATOM     30  C   UNL     1      -3.881  -2.011   1.458  0.00  0.00    +0.017 C 
BRANCH  29  31
ATOM     31  C   UNL     1      -1.732  -1.684   0.225  0.00  0.00    +0.012 C 
BRANCH  31  32
ATOM     32  C   UNL     1      -1.881  -0.161   0.239  0.00  0.00    +0.000 C 
BRANCH  32  34
ATOM     33  C   UNL     1      -0.645   2.009   0.307  0.00  0.00    +0.004 C 
ATOM     34  C   UNL     1      -0.496   0.486   0.293  0.00  0.00    -0.003 C 
ENDBRANCH  32  34
ENDBRANCH  31  32
ENDBRANCH  29  31
ENDBRANCH   1  29
TORSDOF 7
