REMARK  Name = ZINC19902676
REMARK  9 active torsions:
REMARK  status: ('A' for Active; 'I' for Inactive)
REMARK    1  A    between atoms: C_4  and  C_7
REMARK    2  A    between atoms: C_7  and  N_8
REMARK    3  A    between atoms: N_16  and  C_17
REMARK    4  A    between atoms: C_17  and  C_19
REMARK    5  A    between atoms: C_19  and  C_35
REMARK    6  A    between atoms: C_20  and  C_21
REMARK    7  A    between atoms: C_24  and  O_27
REMARK    8  A    between atoms: O_27  and  C_28
REMARK    9  A    between atoms: C_28  and  C_29
REMARK                            x       y       z     vdW  Elec       q    Type
REMARK                         _______ _______ _______ _____ _____    ______ ____
ROOT
ATOM      1  C   UNL     1      -0.014   1.226   0.058  0.00  0.00    +0.280 C 
ATOM      2  O   UNL     1      -0.008   0.016  -0.061  0.00  0.00    -0.267 OA
ENDROOT
BRANCH   1  11
ATOM      3  N   UNL     1      -6.455  -1.468  -0.391  0.00  0.00    +0.386 N 
ATOM      4  C   UNL     1      -5.532  -2.376   0.304  0.00  0.00    -0.072 C 
ATOM      5  C   UNL     1      -4.093  -2.129  -0.159  0.00  0.00    +0.035 C 
ATOM      6  C   UNL     1      -3.799  -0.639  -0.022  0.00  0.00    +0.024 A 
ATOM      7  C   UNL     1      -4.834   0.237   0.091  0.00  0.00    -0.004 A 
ATOM      8  S   UNL     1      -4.008   1.798   0.222  0.00  0.00    -0.059 S 
ATOM      9  C   UNL     1      -2.383   1.188   0.118  0.00  0.00    +0.164 A 
ATOM     10  N   UNL     1      -2.581  -0.109  -0.009  0.00  0.00    -0.339 N 
ATOM     11  N   UNL     1      -1.184   1.888   0.154  0.00  0.00    -0.152 NA
ATOM     12  C   UNL     1      -6.289  -0.084   0.096  0.00  0.00    -0.033 C 
ATOM     13  H   UNL     1      -1.698  -0.757  -0.107  0.00  0.00    +0.167 HD
ATOM     14  H   UNL     1      -6.211  -1.492  -1.464  0.00  0.00    -0.081 HD
BRANCH   3  15
ATOM     15  C   UNL     1      -7.846  -1.916  -0.241  0.00  0.00    -0.043 C 
BRANCH  15  19
ATOM     16  C   UNL     1     -10.361   0.355  -2.842  0.00  0.00    +0.000 A 
ATOM     17  C   UNL     1      -9.787  -0.821  -3.288  0.00  0.00    +0.000 A 
ATOM     18  C   UNL     1      -8.973  -1.556  -2.447  0.00  0.00    +0.002 A 
ATOM     19  C   UNL     1      -8.733  -1.115  -1.159  0.00  0.00    -0.064 A 
ATOM     20  C   UNL     1      -9.311   0.058  -0.711  0.00  0.00    +0.002 A 
ATOM     21  C   UNL     1     -10.121   0.796  -1.554  0.00  0.00    +0.000 A 
ENDBRANCH  15  19
ENDBRANCH   3  15
ENDBRANCH   1  11
BRANCH   1  22
ATOM     22  C   UNL     1       1.256   1.968   0.090  0.00  0.00    +0.116 C 
ATOM     23  C   UNL     1       2.452   1.292  -0.014  0.00  0.00    +0.032 C 
BRANCH  23  24
ATOM     24  C   UNL     1       3.706   2.038  -0.133  0.00  0.00    -0.023 A 
ATOM     25  C   UNL     1       3.720   3.301  -0.743  0.00  0.00    +0.011 A 
ATOM     26  C   UNL     1       4.893   3.994  -0.846  0.00  0.00    +0.046 A 
ATOM     27  C   UNL     1       6.074   3.445  -0.356  0.00  0.00    +0.121 A 
ATOM     28  C   UNL     1       6.067   2.191   0.245  0.00  0.00    +0.046 A 
ATOM     29  C   UNL     1       4.900   1.490   0.358  0.00  0.00    +0.011 A 
BRANCH  27  30
ATOM     30  O   UNL     1       7.236   4.136  -0.467  0.00  0.00    -0.487 OA
BRANCH  30  31
ATOM     31  C   UNL     1       7.172   5.418  -1.094  0.00  0.00    +0.264 C 
BRANCH  31  32
ATOM     32  C   UNL     1       8.548   6.031  -1.127  0.00  0.00    -0.010 A 
ATOM     33  C   UNL     1       8.975   6.827  -0.080  0.00  0.00    +0.007 A 
ATOM     34  C   UNL     1      10.239   7.386  -0.107  0.00  0.00    +0.000 A 
ATOM     35  C   UNL     1      11.073   7.156  -1.186  0.00  0.00    +0.000 A 
ATOM     36  C   UNL     1      10.644   6.364  -2.235  0.00  0.00    +0.000 A 
ATOM     37  C   UNL     1       9.382   5.801  -2.205  0.00  0.00    +0.007 A 
ENDBRANCH  31  32
ENDBRANCH  30  31
ENDBRANCH  27  30
ENDBRANCH  23  24
BRANCH  22  38
ATOM     38  C   UNL     1       1.248   3.394   0.230  0.00  0.00    +0.104 C 
ATOM     39  N   UNL     1       1.243   4.524   0.341  0.00  0.00    -0.191 NA
ENDBRANCH  22  38
ENDBRANCH   1  22
TORSDOF 9
