REMARK  Name = ZINC37769952
REMARK  8 active torsions:
REMARK  status: ('A' for Active; 'I' for Inactive)
REMARK    1  A    between atoms: C_1  and  O_2
REMARK    2  A    between atoms: O_2  and  C_3
REMARK    3  A    between atoms: C_3  and  C_5
REMARK    4  A    between atoms: C_10  and  N_11
REMARK    5  A    between atoms: C_12  and  C_14
REMARK    6  A    between atoms: C_14  and  N_15
REMARK    7  A    between atoms: C_16  and  C_18
REMARK    8  A    between atoms: C_18  and  N_19
REMARK                            x       y       z     vdW  Elec       q    Type
REMARK                         _______ _______ _______ _____ _____    ______ ____
ROOT
ATOM      1  N   UNL     1      -3.715  -2.119   0.211  0.00  0.00    -0.283 N 
ATOM      2  C   UNL     1      -4.883  -2.784   0.109  0.00  0.00    +0.234 C 
ATOM      3  O   UNL     1      -4.886  -3.993   0.015  0.00  0.00    -0.274 OA
ATOM      4  H   UNL     1      -3.713  -1.157   0.337  0.00  0.00    +0.155 HD
ENDROOT
BRANCH   1  10
ATOM      5  C   UNL     1      -1.650  -2.858   1.244  0.00  0.00    +0.082 A 
ATOM      6  C   UNL     1      -0.446  -3.562   1.157  0.00  0.00    +0.032 A 
ATOM      7  C   UNL     1      -0.107  -4.202  -0.016  0.00  0.00    +0.020 A 
ATOM      8  C   UNL     1      -0.956  -4.152  -1.112  0.00  0.00    +0.032 A 
ATOM      9  C   UNL     1      -2.148  -3.459  -1.041  0.00  0.00    +0.041 A 
ATOM     10  C   UNL     1      -2.509  -2.813   0.135  0.00  0.00    +0.062 A 
ATOM     11 BR   UNL     1      -3.296  -3.398  -2.543  0.00  0.00    -0.048 Br
ATOM     12 BR   UNL     1       1.522  -5.154  -0.132  0.00  0.00    -0.050 Br
BRANCH   5  13
ATOM     13  C   UNL     1      -2.019  -2.171   2.495  0.00  0.00    +0.341 C 
ATOM     14  O   UNL     1      -3.113  -1.654   2.604  0.00  0.00    -0.245 OA
BRANCH  13  16
ATOM     15  C   UNL     1      -1.566  -1.436   4.699  0.00  0.00    +0.280 C 
ATOM     16  O   UNL     1      -1.143  -2.118   3.517  0.00  0.00    -0.464 OA
ENDBRANCH  13  16
ENDBRANCH   5  13
ENDBRANCH   1  10
BRANCH   2  17
ATOM     17  C   UNL     1      -6.184  -2.025   0.112  0.00  0.00    +0.200 C 
BRANCH  17  18
ATOM     18  N   UNL     1      -7.299  -2.967  -0.009  0.00  0.00    -0.308 N 
ATOM     19  C   UNL     1      -8.568  -2.512  -0.028  0.00  0.00    +0.196 C 
ATOM     20  O   UNL     1      -8.786  -1.322   0.055  0.00  0.00    -0.278 OA
ATOM     21  H   UNL     1      -7.125  -3.919  -0.075  0.00  0.00    +0.149 HD
BRANCH  19  22
ATOM     22  C   UNL     1      -9.715  -3.481  -0.152  0.00  0.00    +0.011 C 
BRANCH  22  23
ATOM     23  N   UNL     1     -10.984  -2.741  -0.149  0.00  0.00    +0.384 N 
ATOM     24  H   UNL     1     -11.071  -2.226   0.714  0.00  0.00    -0.089 HD
ATOM     25  H   UNL     1     -11.000  -2.099  -0.927  0.00  0.00    -0.089 HD
ATOM     26  H   UNL     1     -11.752  -3.390  -0.233  0.00  0.00    -0.089 HD
ENDBRANCH  22  23
ENDBRANCH  19  22
ENDBRANCH  17  18
ENDBRANCH   2  17
TORSDOF 7
