REMARK  Name = ZINC31847861
REMARK  8 active torsions:
REMARK  status: ('A' for Active; 'I' for Inactive)
REMARK    1  A    between atoms: C_1  and  C_2
REMARK    2  A    between atoms: C_2  and  N_3
REMARK    3  A    between atoms: N_3  and  C_4
REMARK    4  A    between atoms: N_3  and  C_6
REMARK    5  A    between atoms: C_4  and  C_5
REMARK    6  A    between atoms: C_6  and  C_7
REMARK    7  A    between atoms: N_9  and  N_10
REMARK    8  A    between atoms: N_10  and  C_11
REMARK                            x       y       z     vdW  Elec       q    Type
REMARK                         _______ _______ _______ _____ _____    ______ ____
ROOT
ATOM      1  N   UNL     1      -4.258  -4.160  -0.529  0.00  0.00    -0.259 N 
ATOM      2  H   UNL     1      -5.032  -3.594  -0.678  0.00  0.00    +0.170 HD
ENDROOT
BRANCH   1   3
ATOM      3  C   UNL     1      -4.401  -5.487  -0.478  0.00  0.00    +0.116 C 
ATOM      4  C   UNL     1      -3.413  -6.448  -0.156  0.00  0.00    +0.024 A 
ATOM      5  C   UNL     1      -2.059  -6.353   0.189  0.00  0.00    +0.012 A 
ATOM      6  C   UNL     1      -1.338  -7.501   0.453  0.00  0.00    +0.001 A 
ATOM      7  C   UNL     1      -1.948  -8.743   0.378  0.00  0.00    +0.002 A 
ATOM      8  C   UNL     1      -3.286  -8.858   0.038  0.00  0.00    +0.024 A 
ATOM      9  C   UNL     1      -4.039  -7.719  -0.234  0.00  0.00    +0.043 A 
ATOM     10  N   UNL     1      -5.347  -7.561  -0.585  0.00  0.00    -0.280 N 
ATOM     11  C   UNL     1      -5.649  -6.285  -0.743  0.00  0.00    +0.264 C 
ATOM     12  O   UNL     1      -6.738  -5.835  -1.050  0.00  0.00    -0.268 OA
ATOM     13  H   UNL     1      -5.976  -8.290  -0.699  0.00  0.00    +0.155 HD
ENDBRANCH   1   3
BRANCH   1  16
ATOM     14  C   UNL     1      -2.863  -2.245  -0.297  0.00  0.00    +0.212 C 
ATOM     15  O   UNL     1      -3.845  -1.537  -0.374  0.00  0.00    -0.276 OA
ATOM     16  N   UNL     1      -2.991  -3.585  -0.367  0.00  0.00    -0.238 N 
ATOM     17  H   UNL     1      -2.206  -4.151  -0.305  0.00  0.00    +0.173 HD
BRANCH  14  18
ATOM     18  C   UNL     1      -1.500  -1.627  -0.123  0.00  0.00    +0.020 C 
BRANCH  18  19
ATOM     19  N   UNL     1      -1.641  -0.179   0.081  0.00  0.00    +0.385 N 
ATOM     20  H   UNL     1      -2.196   0.213  -0.666  0.00  0.00    -0.081 HD
BRANCH  19  22
ATOM     21  C   UNL     1      -2.564   1.572   1.523  0.00  0.00    -0.017 C 
ATOM     22  C   UNL     1      -2.304   0.072   1.367  0.00  0.00    -0.082 C 
ENDBRANCH  19  22
BRANCH  19  23
ATOM     23  C   UNL     1      -0.312   0.447   0.084  0.00  0.00    -0.082 C 
ATOM     24  C   UNL     1       0.320   0.308  -1.302  0.00  0.00    -0.017 C 
ENDBRANCH  19  23
ENDBRANCH  18  19
ENDBRANCH  14  18
ENDBRANCH   1  16
TORSDOF 6
