REMARK  Name = ZINC40059792
REMARK  7 active torsions:
REMARK  status: ('A' for Active; 'I' for Inactive)
REMARK    1  A    between atoms: C_3  and  C_6
REMARK    2  A    between atoms: C_16  and  C_18
REMARK    3  A    between atoms: C_18  and  N_19
REMARK    4  A    between atoms: N_19  and  C_20
REMARK    5  A    between atoms: N_19  and  C_30
REMARK    6  A    between atoms: C_20  and  C_21
REMARK    7  A    between atoms: C_24  and  C_27
REMARK                            x       y       z     vdW  Elec       q    Type
REMARK                         _______ _______ _______ _____ _____    ______ ____
ROOT
ATOM      1  C   UNL     1       5.795   0.848  -3.118  0.00  0.00    +0.020 C 
ENDROOT
BRANCH   1  11
ATOM      2  C   UNL     1       3.862   2.233  -0.108  0.00  0.00    +0.144 C 
ATOM      3  C   UNL     1       4.537   2.259   1.262  0.00  0.00    -0.012 A 
ATOM      4  C   UNL     1       4.214   3.182   2.255  0.00  0.00    +0.013 A 
ATOM      5  C   UNL     1       4.851   3.143   3.448  0.00  0.00    +0.046 A 
ATOM      6  S   UNL     1       5.968   1.767   3.224  0.00  0.00    -0.101 S 
ATOM      7  C   UNL     1       5.505   1.351   1.563  0.00  0.00    -0.003 A 
ATOM      8  C   UNL     1       6.049   0.266   0.692  0.00  0.00    +0.062 C 
ATOM      9  C   UNL     1       5.081   0.043  -0.480  0.00  0.00    +0.114 C 
ATOM     10  N   UNL     1       4.653   1.358  -0.984  0.00  0.00    -0.291 N 
ATOM     11  C   UNL     1       4.983   1.754  -2.229  0.00  0.00    +0.200 C 
ATOM     12  O   UNL     1       4.626   2.840  -2.634  0.00  0.00    -0.278 OA
BRANCH   2  15
ATOM     13  C   UNL     1       0.108   1.654   0.186  0.00  0.00    +0.008 A 
ATOM     14  C   UNL     1       1.286   2.366   0.060  0.00  0.00    +0.013 A 
ATOM     15  C   UNL     1       2.461   1.692   0.023  0.00  0.00    +0.015 A 
ATOM     16  S   UNL     1       1.920  -0.003   0.169  0.00  0.00    -0.099 S 
ATOM     17  C   UNL     1       0.164   0.302   0.270  0.00  0.00    +0.045 A 
ENDBRANCH   2  15
ENDBRANCH   1  11
BRANCH   1  18
ATOM     18  N   UNL     1       6.019   1.505  -4.413  0.00  0.00    +0.390 N 
ATOM     19  H   UNL     1       5.132   1.771  -4.813  0.00  0.00    -0.080 HD
BRANCH  18  20
ATOM     20  C   UNL     1       6.848   2.702  -4.217  0.00  0.00    -0.068 C 
ATOM     21  C   UNL     1       6.223   4.057  -4.557  0.00  0.00    -0.017 C 
ATOM     22  C   UNL     1       7.299   3.461  -5.467  0.00  0.00    -0.017 C 
ENDBRANCH  18  20
BRANCH  18  23
ATOM     23  C   UNL     1       6.707   0.576  -5.320  0.00  0.00    -0.042 C 
BRANCH  23  24
ATOM     24  C   UNL     1       5.806  -0.595  -5.617  0.00  0.00    -0.064 A 
ATOM     25  C   UNL     1       5.927  -1.760  -4.881  0.00  0.00    +0.002 A 
ATOM     26  C   UNL     1       5.105  -2.836  -5.147  0.00  0.00    +0.013 A 
ATOM     27  C   UNL     1       4.151  -2.747  -6.162  0.00  0.00    +0.037 A 
ATOM     28  C   UNL     1       4.035  -1.569  -6.901  0.00  0.00    +0.013 A 
ATOM     29  C   UNL     1       4.859  -0.498  -6.621  0.00  0.00    +0.002 A 
BRANCH  27  30
ATOM     30  C   UNL     1       3.268  -3.897  -6.454  0.00  0.00    +0.242 C 
ATOM     31  O   UNL     1       3.372  -4.922  -5.809  0.00  0.00    -0.270 OA
ATOM     32  N   UNL     1       2.348  -3.808  -7.434  0.00  0.00    -0.325 N 
ATOM     33  H   UNL     1       2.265  -2.990  -7.949  0.00  0.00    +0.145 HD
ATOM     34  H   UNL     1       1.769  -4.562  -7.626  0.00  0.00    +0.145 HD
ENDBRANCH  27  30
ENDBRANCH  23  24
ENDBRANCH  18  23
ENDBRANCH   1  18
TORSDOF 7
