REMARK  Name = ZINC35679026
REMARK  1 active torsions:
REMARK  status: ('A' for Active; 'I' for Inactive)
REMARK    1  A    between atoms: C_3  and  N_8
REMARK                            x       y       z     vdW  Elec       q    Type
REMARK                         _______ _______ _______ _____ _____    ______ ____
ROOT
ATOM      1  N   UNL     1       3.600   2.004  -0.021  0.00  0.00    -0.194 N 
ATOM      2  C   UNL     1       4.730   1.282  -0.042  0.00  0.00    +0.227 C 
ATOM      3  O   UNL     1       4.662   0.072  -0.043  0.00  0.00    -0.275 OA
ATOM      4  C   UNL     1       6.082   1.946  -0.064  0.00  0.00    +0.097 C 
ATOM      5  C   UNL     1       5.987   3.302   0.644  0.00  0.00    +0.018 C 
ATOM      6  C   UNL     1       4.886   4.128  -0.029  0.00  0.00    +0.097 C 
ATOM      7  C   UNL     1       3.599   3.346  -0.014  0.00  0.00    +0.227 C 
ATOM      8  O   UNL     1       2.543   3.940   0.009  0.00  0.00    -0.275 OA
ENDROOT
BRANCH   1  11
ATOM      9  C   UNL     1       0.544   0.345  -1.195  0.00  0.00    +0.006 A 
ATOM     10  C   UNL     1       1.758   1.011  -1.216  0.00  0.00    +0.044 A 
ATOM     11  C   UNL     1       2.374   1.333  -0.013  0.00  0.00    +0.135 A 
ATOM     12  N   UNL     1       1.812   1.009   1.140  0.00  0.00    -0.225 NA
ATOM     13  C   UNL     1       0.656   0.375   1.193  0.00  0.00    +0.108 A 
ATOM     14  C   UNL     1      -0.013   0.024   0.034  0.00  0.00    +0.035 A 
ATOM     15 BR   UNL     1      -0.095  -0.060   2.873  0.00  0.00    -0.029 Br
ENDBRANCH   1  11
TORSDOF 1
