REMARK  Name = ZINC39709364
REMARK  10 active torsions:
REMARK  status: ('A' for Active; 'I' for Inactive)
REMARK    1  A    between atoms: C_1  and  C_2
REMARK    2  A    between atoms: C_2  and  C_3
REMARK    3  A    between atoms: C_8  and  C_12
REMARK    4  A    between atoms: C_12  and  C_14
REMARK    5  A    between atoms: C_14  and  S_15
REMARK    6  A    between atoms: S_15  and  C_16
REMARK    7  A    between atoms: C_20  and  C_27
REMARK    8  A    between atoms: N_22  and  C_23
REMARK    9  A    between atoms: C_23  and  C_24
REMARK   10  A    between atoms: C_30  and  C_33
REMARK                            x       y       z     vdW  Elec       q    Type
REMARK                         _______ _______ _______ _____ _____    ______ ____
ROOT
ATOM      1  C   UNL     1       9.342  -2.167  -3.622  0.00  0.00    +0.078 C 
ATOM      2  N   UNL     1       9.928  -0.944  -3.012  0.00  0.00    -0.262 NA
ATOM      3  N   UNL     1      11.062  -1.471  -2.237  0.00  0.00    -0.267 NA
ATOM      4  C   UNL     1      10.569  -2.752  -1.683  0.00  0.00    +0.050 C 
ATOM      5  N   UNL     1       9.472  -3.200  -2.569  0.00  0.00    +0.417 N 
ATOM      6  H   UNL     1       9.261  -0.485  -2.410  0.00  0.00    +0.140 HD
ATOM      7  H   UNL     1      11.323  -0.834  -1.499  0.00  0.00    +0.139 HD
ATOM      8  H   UNL     1       9.702  -4.091  -2.984  0.00  0.00    -0.074 HD
ENDROOT
BRANCH   4   9
ATOM      9  C   UNL     1      11.677  -3.773  -1.677  0.00  0.00    -0.046 A 
ATOM     10  C   UNL     1      11.409  -5.085  -2.021  0.00  0.00    +0.003 A 
ATOM     11  C   UNL     1      12.426  -6.022  -2.016  0.00  0.00    +0.003 A 
ATOM     12  C   UNL     1      13.710  -5.647  -1.668  0.00  0.00    -0.050 A 
ATOM     13  C   UNL     1      13.978  -4.335  -1.325  0.00  0.00    +0.003 A 
ATOM     14  C   UNL     1      12.962  -3.397  -1.334  0.00  0.00    +0.003 A 
ATOM     15  C   UNL     1      14.818  -6.668  -1.662  0.00  0.00    +0.044 C 
ENDBRANCH   4   9
BRANCH   1  16
ATOM     16  S   UNL     1       7.597  -1.897  -4.034  0.00  0.00    -0.152 S 
BRANCH  16  17
ATOM     17  C   UNL     1       7.652  -0.980  -5.599  0.00  0.00    +0.148 C 
BRANCH  17  18
ATOM     18  C   UNL     1       6.251  -0.794  -6.122  0.00  0.00    +0.171 C 
ATOM     19  O   UNL     1       5.307  -1.236  -5.500  0.00  0.00    -0.291 OA
BRANCH  18  25
ATOM     20  C   UNL     1       3.914   1.282 -10.018  0.00  0.00    -0.024 A 
ATOM     21  C   UNL     1       2.678   0.933  -9.600  0.00  0.00    +0.005 A 
ATOM     22  C   UNL     1       2.470   0.220  -8.409  0.00  0.00    +0.001 A 
ATOM     23  C   UNL     1       3.487  -0.163  -7.606  0.00  0.00    +0.010 A 
ATOM     24  C   UNL     1       4.823   0.150  -7.948  0.00  0.00    +0.006 A 
ATOM     25  C   UNL     1       6.036  -0.105  -7.335  0.00  0.00    +0.024 C 
ATOM     26  C   UNL     1       7.085   0.510  -8.236  0.00  0.00    +0.152 C 
ATOM     27  N   UNL     1       6.355   1.104  -9.360  0.00  0.00    -0.380 N 
ATOM     28  C   UNL     1       5.079   0.897  -9.204  0.00  0.00    +0.046 A 
ATOM     29  H   UNL     1       6.761   1.574 -10.106  0.00  0.00    +0.160 HD
BRANCH  20  31
ATOM     30  C   UNL     1       4.383   1.068 -12.444  0.00  0.00    +0.009 C 
ATOM     31  C   UNL     1       4.099   2.047 -11.303  0.00  0.00    +0.034 C 
ENDBRANCH  20  31
ENDBRANCH  18  25
ENDBRANCH  17  18
ENDBRANCH  16  17
ENDBRANCH   1  16
BRANCH   5  32
ATOM     32  C   UNL     1       8.220  -3.305  -1.808  0.00  0.00    +0.055 C 
BRANCH  32  33
ATOM     33  C   UNL     1       8.354  -4.385  -0.766  0.00  0.00    +0.340 C 
ATOM     34  O   UNL     1       9.431  -4.928  -0.585  0.00  0.00    -0.249 OA
ATOM     35  O   UNL     1       7.386  -4.717  -0.104  0.00  0.00    -0.249 OA
ENDBRANCH  32  33
ENDBRANCH   5  32
TORSDOF 8
