REMARK  Name = ZINC27824711
REMARK  10 active torsions:
REMARK  status: ('A' for Active; 'I' for Inactive)
REMARK    1  A    between atoms: C_1  and  C_2
REMARK    2  A    between atoms: C_5  and  N_22
REMARK    3  A    between atoms: C_6  and  S_8
REMARK    4  A    between atoms: S_8  and  N_11
REMARK    5  A    between atoms: N_11  and  C_12
REMARK    6  A    between atoms: C_14  and  C_20
REMARK    7  A    between atoms: C_14  and  C_21
REMARK    8  A    between atoms: C_16  and  C_18
REMARK    9  A    between atoms: C_16  and  C_19
REMARK   10  A    between atoms: C_23  and  C_25
REMARK                            x       y       z     vdW  Elec       q    Type
REMARK                         _______ _______ _______ _____ _____    ______ ____
ROOT
ATOM      1  S   UNL     1       0.741   4.572  -4.235  0.00  0.00    +0.060 S 
ATOM      2  O   UNL     1       1.384   4.507  -5.500  0.00  0.00    -0.153 OA
ATOM      3  O   UNL     1      -0.657   4.790  -4.102  0.00  0.00    -0.153 OA
ENDROOT
BRANCH   1   9
ATOM      4  C   UNL     1       0.589   8.870  -1.268  0.00  0.00    +0.044 C 
ATOM      5  C   UNL     1       1.413   7.823  -1.971  0.00  0.00    -0.048 A 
ATOM      6  C   UNL     1       2.793   7.870  -1.902  0.00  0.00    +0.005 A 
ATOM      7  C   UNL     1       3.551   6.911  -2.546  0.00  0.00    +0.025 A 
ATOM      8  C   UNL     1       2.925   5.896  -3.257  0.00  0.00    +0.060 A 
ATOM      9  C   UNL     1       1.539   5.854  -3.329  0.00  0.00    +0.127 A 
ATOM     10  C   UNL     1       0.787   6.816  -2.683  0.00  0.00    +0.033 A 
BRANCH   8  11
ATOM     11  N   UNL     1       3.690   4.920  -3.905  0.00  0.00    -0.284 N 
ATOM     12  C   UNL     1       4.946   5.202  -4.303  0.00  0.00    +0.214 C 
ATOM     13  O   UNL     1       5.442   6.274  -4.030  0.00  0.00    -0.276 OA
ATOM     14  C   UNL     1       5.735   4.185  -5.088  0.00  0.00    +0.109 C 
ATOM     15  H   UNL     1       3.266   3.921  -4.090  0.00  0.00    +0.155 HD
ENDBRANCH   8  11
ENDBRANCH   1   9
BRANCH   1  16
ATOM     16  N   UNL     1       1.073   3.146  -3.462  0.00  0.00    -0.187 NA
ATOM     17  H   UNL     1       1.813   2.458  -3.897  0.00  0.00    +0.148 HD
BRANCH  16  18
ATOM     18  C   UNL     1       0.555   2.906  -2.109  0.00  0.00    +0.074 C 
ATOM     19  C   UNL     1       1.573   2.083  -1.319  0.00  0.00    +0.007 C 
ATOM     20  C   UNL     1       1.050   1.801   0.088  0.00  0.00    -0.072 C 
ATOM     21  N   UNL     1      -0.302   1.282   0.094  0.00  0.00    +0.386 N 
ATOM     22  C   UNL     1      -1.297   1.825  -0.807  0.00  0.00    -0.072 C 
ATOM     23  C   UNL     1      -0.746   2.109  -2.202  0.00  0.00    +0.007 C 
ATOM     24  C   UNL     1      -2.430   0.786  -0.957  0.00  0.00    -0.010 C 
ATOM     25  C   UNL     1      -1.924   3.101  -0.234  0.00  0.00    -0.010 C 
ATOM     26  C   UNL     1       1.160   3.071   0.940  0.00  0.00    -0.010 C 
ATOM     27  C   UNL     1       1.977   0.741   0.724  0.00  0.00    -0.010 C 
ATOM     28  H   UNL     1      -0.284   0.209  -0.150  0.00  0.00    -0.084 HD
ATOM     29  H   UNL     1      -0.744   1.423   1.091  0.00  0.00    -0.084 HD
ENDBRANCH  16  18
ENDBRANCH   1  16
TORSDOF 4
