REMARK  Name = ZINC39324414
REMARK  14 active torsions:
REMARK  status: ('A' for Active; 'I' for Inactive)
REMARK    1  A    between atoms: C_1  and  C_2
REMARK    2  A    between atoms: C_2  and  C_3
REMARK    3  A    between atoms: C_2  and  C_4
REMARK    4  A    between atoms: C_2  and  C_5
REMARK    5  A    between atoms: C_9  and  C_10
REMARK    6  A    between atoms: C_13  and  C_16
REMARK    7  A    between atoms: C_16  and  O_18
REMARK    8  A    between atoms: O_18  and  C_19
REMARK    9  A    between atoms: C_23  and  C_31
REMARK   10  A    between atoms: C_25  and  C_29
REMARK   11  A    between atoms: C_26  and  N_28
REMARK   12  A    between atoms: C_34  and  C_37
REMARK   13  A    between atoms: C_37  and  O_39
REMARK   14  A    between atoms: O_39  and  C_40
REMARK                            x       y       z     vdW  Elec       q    Type
REMARK                         _______ _______ _______ _____ _____    ______ ____
ROOT
ATOM      1  C   UNL     1       0.915  -0.615  -1.286  0.00  0.00    +0.003 C 
ATOM      2  C   UNL     1      -0.001  -0.158  -2.431  0.00  0.00    +0.043 C 
ATOM      3  C   UNL     1       0.703  -0.506  -3.724  0.00  0.00    -0.004 C 
ATOM      4  C   UNL     1       0.021  -1.022  -4.764  0.00  0.00    +0.015 C 
ATOM      5  C   UNL     1       2.156  -0.266  -3.814  0.00  0.00    +0.133 C 
ATOM      6  C   UNL     1       2.863   0.038  -2.726  0.00  0.00    -0.014 C 
ATOM      7  C   UNL     1       2.227   0.161  -1.364  0.00  0.00    +0.039 C 
ATOM      8  C   UNL     1       4.353   0.272  -2.826  0.00  0.00    +0.094 C 
ATOM      9  C   UNL     1       4.891  -0.308  -4.103  0.00  0.00    +0.098 C 
ATOM     10  C   UNL     1       4.060  -0.594  -5.136  0.00  0.00    +0.199 C 
ATOM     11  O   UNL     1       2.739  -0.366  -5.036  0.00  0.00    -0.441 OA
ENDROOT
BRANCH   4  12
ATOM     12  C   UNL     1      -1.447  -1.097  -4.718  0.00  0.00    -0.025 A 
ATOM     13  C   UNL     1      -2.177  -0.112  -4.042  0.00  0.00    +0.009 A 
ATOM     14  C   UNL     1      -3.540  -0.182  -3.999  0.00  0.00    +0.015 A 
ATOM     15  C   UNL     1      -4.207  -1.238  -4.630  0.00  0.00    +0.059 A 
ATOM     16  C   UNL     1      -3.478  -2.222  -5.305  0.00  0.00    +0.015 A 
ATOM     17  C   UNL     1      -2.115  -2.150  -5.354  0.00  0.00    +0.009 A 
BRANCH  15  18
ATOM     18  C   UNL     1      -5.679  -1.313  -4.583  0.00  0.00    +0.339 C 
ATOM     19  O   UNL     1      -6.312  -0.458  -3.997  0.00  0.00    -0.245 OA
BRANCH  18  20
ATOM     20  O   UNL     1      -6.321  -2.329  -5.191  0.00  0.00    -0.464 OA
ATOM     21  C   UNL     1      -7.748  -2.339  -5.106  0.00  0.00    +0.280 C 
ENDBRANCH  18  20
ENDBRANCH  15  18
ENDBRANCH   4  12
BRANCH   8  22
ATOM     22  C   UNL     1       4.627   1.753  -2.799  0.00  0.00    -0.035 A 
ATOM     23  C   UNL     1       4.085   2.572  -3.773  0.00  0.00    +0.005 A 
ATOM     24  C   UNL     1       4.332   3.929  -3.754  0.00  0.00    +0.015 A 
ATOM     25  C   UNL     1       5.131   4.476  -2.749  0.00  0.00    +0.059 A 
ATOM     26  C   UNL     1       5.676   3.644  -1.769  0.00  0.00    +0.015 A 
ATOM     27  C   UNL     1       5.416   2.289  -1.796  0.00  0.00    +0.005 A 
BRANCH  25  28
ATOM     28  C   UNL     1       5.401   5.928  -2.722  0.00  0.00    +0.339 C 
ATOM     29  O   UNL     1       4.926   6.649  -3.577  0.00  0.00    -0.245 OA
BRANCH  28  30
ATOM     30  O   UNL     1       6.173   6.452  -1.751  0.00  0.00    -0.464 OA
ATOM     31  C   UNL     1       6.391   7.864  -1.787  0.00  0.00    +0.280 C 
ENDBRANCH  28  30
ENDBRANCH  25  28
ENDBRANCH   8  22
BRANCH   1  33
ATOM     32  C   UNL     1      -0.044   1.160   0.188  0.00  0.00    +0.011 C 
ATOM     33  C   UNL     1       0.235  -0.338   0.057  0.00  0.00    -0.034 C 
ATOM     34  C   UNL     1       1.154  -0.787   1.195  0.00  0.00    +0.011 C 
ATOM     35  C   UNL     1      -1.083  -1.111   0.130  0.00  0.00    +0.011 C 
ENDBRANCH   1  33
BRANCH  10  36
ATOM     36  N   UNL     1       4.573  -1.122  -6.294  0.00  0.00    -0.328 N 
ATOM     37  H   UNL     1       5.525  -1.289  -6.371  0.00  0.00    +0.145 HD
ATOM     38  H   UNL     1       3.982  -1.328  -7.036  0.00  0.00    +0.145 HD
ENDBRANCH  10  36
BRANCH   9  39
ATOM     39  C   UNL     1       6.295  -0.561  -4.231  0.00  0.00    +0.101 C 
ATOM     40  N   UNL     1       7.409  -0.761  -4.332  0.00  0.00    -0.191 NA
ENDBRANCH   9  39
TORSDOF 9
