REMARK  Name = ZINC03332369
REMARK  8 active torsions:
REMARK  status: ('A' for Active; 'I' for Inactive)
REMARK    1  A    between atoms: C_1  and  C_2
REMARK    2  A    between atoms: C_5  and  C_8
REMARK    3  A    between atoms: C_10  and  N_19
REMARK    4  A    between atoms: N_11  and  C_13
REMARK    5  A    between atoms: C_20  and  C_22
REMARK    6  A    between atoms: C_22  and  S_23
REMARK    7  A    between atoms: S_23  and  C_24
REMARK    8  A    between atoms: N_26  and  C_30
REMARK                            x       y       z     vdW  Elec       q    Type
REMARK                         _______ _______ _______ _____ _____    ______ ____
ROOT
ATOM      1  C   UNL     1       3.081  -8.400  -0.069  0.00  0.00    +0.095 A 
ATOM      2  C   UNL     1       2.978  -6.996  -0.061  0.00  0.00    +0.074 A 
ATOM      3  C   UNL     1       1.657  -6.676  -0.047  0.00  0.00    +0.129 A 
ATOM      4  N   UNL     1       0.950  -7.840  -0.041  0.00  0.00    -0.218 N 
ATOM      5  N   UNL     1       1.863  -8.902  -0.060  0.00  0.00    -0.165 NA
ENDROOT
BRANCH   1  10
ATOM      6  C   UNL     1       7.981 -11.426  -0.127  0.00  0.00    +0.044 C 
ATOM      7  C   UNL     1       6.699 -10.634  -0.112  0.00  0.00    -0.050 A 
ATOM      8  C   UNL     1       5.482 -11.293  -0.105  0.00  0.00    +0.004 A 
ATOM      9  C   UNL     1       4.305 -10.572  -0.091  0.00  0.00    +0.010 A 
ATOM     10  C   UNL     1       4.343  -9.180  -0.084  0.00  0.00    +0.002 A 
ATOM     11  C   UNL     1       5.571  -8.522  -0.097  0.00  0.00    +0.010 A 
ATOM     12  C   UNL     1       6.743  -9.252  -0.105  0.00  0.00    +0.004 A 
ENDBRANCH   1  10
BRANCH   4  13
ATOM     13  C   UNL     1      -0.446  -7.955  -0.022  0.00  0.00    +0.067 A 
ATOM     14  C   UNL     1      -1.210  -7.037   0.686  0.00  0.00    +0.028 A 
ATOM     15  C   UNL     1      -2.587  -7.150   0.698  0.00  0.00    +0.002 A 
ATOM     16  C   UNL     1      -3.203  -8.184   0.016  0.00  0.00    +0.000 A 
ATOM     17  C   UNL     1      -2.445  -9.103  -0.685  0.00  0.00    +0.002 A 
ATOM     18  C   UNL     1      -1.068  -8.992  -0.706  0.00  0.00    +0.028 A 
ENDBRANCH   4  13
BRANCH   3  19
ATOM     19  N   UNL     1       1.122  -5.388  -0.036  0.00  0.00    -0.270 N 
ATOM     20  C   UNL     1       1.942  -4.319  -0.038  0.00  0.00    +0.229 C 
ATOM     21  O   UNL     1       3.144  -4.476  -0.050  0.00  0.00    -0.275 OA
ATOM     22  H   UNL     1       0.161  -5.263  -0.026  0.00  0.00    +0.156 HD
BRANCH  20  23
ATOM     23  C   UNL     1       1.364  -2.927  -0.026  0.00  0.00    +0.172 C 
BRANCH  23  24
ATOM     24  S   UNL     1       2.709  -1.715  -0.032  0.00  0.00    -0.088 S 
BRANCH  24  25
ATOM     25  C   UNL     1       1.774  -0.221  -0.016  0.00  0.00    +0.158 A 
ATOM     26  N   UNL     1       2.200   1.017  -0.013  0.00  0.00    -0.151 NA
ATOM     27  N   UNL     1       1.305   2.062   0.001  0.00  0.00    -0.217 N 
ATOM     28  C   UNL     1      -0.022   1.782   0.012  0.00  0.00    +0.150 A 
ATOM     29  S   UNL     1      -1.359   2.852   0.024  0.00  0.00    -0.023 S 
ATOM     30  S   UNL     1       0.002  -0.004   0.002  0.00  0.00    -0.034 S 
BRANCH  27  31
ATOM     31  C   UNL     1       1.755   3.386   0.003  0.00  0.00    +0.067 A 
ATOM     32  C   UNL     1       1.044   4.365  -0.680  0.00  0.00    +0.028 A 
ATOM     33  C   UNL     1       1.488   5.672  -0.671  0.00  0.00    +0.002 A 
ATOM     34  C   UNL     1       2.646   6.006   0.007  0.00  0.00    +0.000 A 
ATOM     35  C   UNL     1       3.360   5.034   0.683  0.00  0.00    +0.002 A 
ATOM     36  C   UNL     1       2.918   3.725   0.683  0.00  0.00    +0.028 A 
ENDBRANCH  27  31
ENDBRANCH  24  25
ENDBRANCH  23  24
ENDBRANCH  20  23
ENDBRANCH   3  19
TORSDOF 7
