REMARK  Name = ZINC57992494
REMARK  12 active torsions:
REMARK  status: ('A' for Active; 'I' for Inactive)
REMARK    1  A    between atoms: C_1  and  O_2
REMARK    2  A    between atoms: O_2  and  C_3
REMARK    3  A    between atoms: C_6  and  C_9
REMARK    4  A    between atoms: C_9  and  C_11
REMARK    5  A    between atoms: C_9  and  N_28
REMARK    6  A    between atoms: C_11  and  N_12
REMARK    7  A    between atoms: C_13  and  C_15
REMARK    8  A    between atoms: C_15  and  C_16
REMARK    9  A    between atoms: C_16  and  C_17
REMARK   10  A    between atoms: C_17  and  N_18
REMARK   11  A    between atoms: N_18  and  C_19
REMARK   12  A    between atoms: C_22  and  N_25
REMARK                            x       y       z     vdW  Elec       q    Type
REMARK                         _______ _______ _______ _____ _____    ______ ____
ROOT
ATOM      1  N   UNL     1       0.839  -1.853   5.849  0.00  0.00    -0.317 N 
ATOM      2  C   UNL     1      -0.142  -2.038   6.754  0.00  0.00    +0.213 C 
ATOM      3  O   UNL     1      -0.530  -3.159   7.008  0.00  0.00    -0.276 OA
ATOM      4  H   UNL     1       1.148  -0.956   5.646  0.00  0.00    +0.149 HD
ENDROOT
BRANCH   1   5
ATOM      5  C   UNL     1       1.437  -3.006   5.171  0.00  0.00    +0.093 C 
BRANCH   5   6
ATOM      6  C   UNL     1       2.424  -2.517   4.109  0.00  0.00    -0.020 C 
BRANCH   6   7
ATOM      7  N   UNL     1       3.082  -3.671   3.484  0.00  0.00    +0.385 N 
ATOM      8  C   UNL     1       3.844  -4.407   4.500  0.00  0.00    -0.078 C 
ATOM      9  C   UNL     1       4.466  -5.656   3.872  0.00  0.00    -0.019 C 
ATOM     10  C   UNL     1       5.402  -5.237   2.735  0.00  0.00    -0.004 C 
ATOM     11  C   UNL     1       4.614  -4.407   1.718  0.00  0.00    -0.019 C 
ATOM     12  C   UNL     1       3.986  -3.204   2.426  0.00  0.00    -0.078 C 
ATOM     13  H   UNL     1       2.384  -4.280   3.084  0.00  0.00    -0.081 HD
ENDBRANCH   6   7
BRANCH   6  17
ATOM     14  C   UNL     1       0.319  -0.293   1.127  0.00  0.00    +0.120 A 
ATOM     15  C   UNL     1       1.014   0.371   2.128  0.00  0.00    +0.046 A 
ATOM     16  C   UNL     1       1.693  -0.350   3.091  0.00  0.00    +0.005 A 
ATOM     17  C   UNL     1       1.681  -1.732   3.057  0.00  0.00    -0.059 A 
ATOM     18  C   UNL     1       0.990  -2.396   2.061  0.00  0.00    +0.005 A 
ATOM     19  C   UNL     1       0.304  -1.680   1.099  0.00  0.00    +0.046 A 
BRANCH  14  21
ATOM     20  C   UNL     1      -0.291   1.839   0.271  0.00  0.00    +0.277 C 
ATOM     21  O   UNL     1      -0.350   0.414   0.179  0.00  0.00    -0.495 OA
ENDBRANCH  14  21
ENDBRANCH   6  17
ENDBRANCH   5   6
ENDBRANCH   1   5
BRANCH   2  22
ATOM     22  C   UNL     1      -0.758  -0.853   7.451  0.00  0.00    +0.097 C 
BRANCH  22  23
ATOM     23  C   UNL     1      -1.839  -1.336   8.421  0.00  0.00    +0.028 C 
BRANCH  23  24
ATOM     24  C   UNL     1      -2.464  -0.132   9.129  0.00  0.00    +0.102 C 
BRANCH  24  25
ATOM     25  N   UNL     1      -3.499  -0.595  10.057  0.00  0.00    -0.344 N 
ATOM     26  H   UNL     1      -3.687  -1.542  10.140  0.00  0.00    +0.146 HD
BRANCH  25  27
ATOM     27  C   UNL     1      -4.215   0.329  10.822  0.00  0.00    +0.027 A 
ATOM     28  C   UNL     1      -3.950   1.688  10.700  0.00  0.00    +0.025 A 
ATOM     29  C   UNL     1      -4.660   2.598  11.457  0.00  0.00    +0.034 A 
ATOM     30  C   UNL     1      -5.633   2.160  12.337  0.00  0.00    +0.126 A 
ATOM     31  C   UNL     1      -5.898   0.808  12.461  0.00  0.00    +0.034 A 
ATOM     32  C   UNL     1      -5.196  -0.108  11.703  0.00  0.00    +0.025 A 
BRANCH  30  33
ATOM     33  N   UNL     1      -6.391   3.139  13.147  0.00  0.00    +0.056 N 
ATOM     34  O   UNL     1      -6.160   4.321  13.040  0.00  0.00    -0.126 OA
ATOM     35  O   UNL     1      -7.242   2.757  13.917  0.00  0.00    -0.126 OA
ENDBRANCH  30  33
ENDBRANCH  25  27
ENDBRANCH  24  25
ENDBRANCH  23  24
ENDBRANCH  22  23
ENDBRANCH   2  22
TORSDOF 11
