REMARK  Name = ZINC04064636
REMARK  9 active torsions:
REMARK  status: ('A' for Active; 'I' for Inactive)
REMARK    1  A    between atoms: C_1  and  O_2
REMARK    2  A    between atoms: O_2  and  C_3
REMARK    3  A    between atoms: C_6  and  C_9
REMARK    4  A    between atoms: C_17  and  O_32
REMARK    5  A    between atoms: C_20  and  C_21
REMARK    6  A    between atoms: C_20  and  N_63
REMARK    7  A    between atoms: N_23  and  C_24
REMARK    8  A    between atoms: C_27  and  O_30
REMARK    9  A    between atoms: O_30  and  C_31
REMARK                            x       y       z     vdW  Elec       q    Type
REMARK                         _______ _______ _______ _____ _____    ______ ____
ROOT
ATOM      1  C   UNL     1      -1.092   7.121   1.961  0.00  0.00    -0.031 C 
ATOM      2  C   UNL     1       0.208   7.736   2.484  0.00  0.00    +0.011 C 
ATOM      3  C   UNL     1       0.541   7.150   3.855  0.00  0.00    +0.005 C 
ATOM      4  C   UNL     1      -0.587   7.469   4.838  0.00  0.00    +0.000 C 
ATOM      5  C   UNL     1      -0.743   8.987   4.955  0.00  0.00    +0.003 C 
ATOM      6  C   UNL     1      -1.085   9.570   3.583  0.00  0.00    +0.035 C 
ATOM      7  C   UNL     1       0.040   9.254   2.596  0.00  0.00    +0.066 C 
ATOM      8  C   UNL     1      -0.328   9.816   1.219  0.00  0.00    +0.016 C 
ATOM      9  C   UNL     1      -1.613   9.144   0.730  0.00  0.00    -0.075 C 
ATOM     10  N   UNL     1      -1.385   7.687   0.626  0.00  0.00    +0.390 N 
ATOM     11  H   UNL     1      -0.582   7.518   0.009  0.00  0.00    -0.080 HD
ENDROOT
BRANCH   1  15
ATOM     12  C   UNL     1      -0.623   2.889   1.602  0.00  0.00    +0.120 A 
ATOM     13  C   UNL     1      -0.116   3.730   0.622  0.00  0.00    +0.046 A 
ATOM     14  C   UNL     1      -0.274   5.097   0.737  0.00  0.00    +0.005 A 
ATOM     15  C   UNL     1      -0.926   5.629   1.834  0.00  0.00    -0.060 A 
ATOM     16  C   UNL     1      -1.427   4.793   2.815  0.00  0.00    +0.005 A 
ATOM     17  C   UNL     1      -1.277   3.425   2.701  0.00  0.00    +0.046 A 
BRANCH  12  19
ATOM     18  C   UNL     1       0.211   1.062   0.329  0.00  0.00    +0.277 C 
ATOM     19  O   UNL     1      -0.473   1.543   1.487  0.00  0.00    -0.495 OA
ENDBRANCH  12  19
ENDBRANCH   1  15
BRANCH   7  20
ATOM     20  O   UNL     1       1.264   9.840   3.043  0.00  0.00    -0.388 OA
ATOM     21  H   UNL     1       1.229  10.802   3.136  0.00  0.00    +0.210 HD
ENDBRANCH   7  20
BRANCH  10  22
ATOM     22  C   UNL     1      -2.577   7.030   0.051  0.00  0.00    +0.020 C 
BRANCH  22  23
ATOM     23  C   UNL     1      -3.794   7.307   0.895  0.00  0.00    +0.201 C 
ATOM     24  O   UNL     1      -3.681   7.899   1.947  0.00  0.00    -0.278 OA
ATOM     25  N   UNL     1      -5.009   6.896   0.480  0.00  0.00    -0.287 N 
ATOM     26  H   UNL     1      -5.091   6.356  -0.321  0.00  0.00    +0.155 HD
BRANCH  25  27
ATOM     27  C   UNL     1      -6.154   7.248   1.208  0.00  0.00    +0.034 A 
ATOM     28  C   UNL     1      -7.236   6.380   1.264  0.00  0.00    +0.027 A 
ATOM     29  C   UNL     1      -8.361   6.726   1.986  0.00  0.00    +0.047 A 
ATOM     30  C   UNL     1      -8.415   7.945   2.645  0.00  0.00    +0.120 A 
ATOM     31  C   UNL     1      -7.337   8.816   2.584  0.00  0.00    +0.047 A 
ATOM     32  C   UNL     1      -6.209   8.469   1.868  0.00  0.00    +0.027 A 
BRANCH  30  33
ATOM     33  O   UNL     1      -9.526   8.288   3.350  0.00  0.00    -0.495 OA
ATOM     34  C   UNL     1     -10.599   7.343   3.370  0.00  0.00    +0.277 C 
ENDBRANCH  30  33
ENDBRANCH  25  27
ENDBRANCH  22  23
ENDBRANCH  10  22
TORSDOF 7
