REMARK  Name = ZINC67580850
REMARK  7 active torsions:
REMARK  status: ('A' for Active; 'I' for Inactive)
REMARK    1  A    between atoms: N_3  and  C_6
REMARK    2  A    between atoms: C_6  and  C_7
REMARK    3  A    between atoms: C_7  and  N_8
REMARK    4  A    between atoms: N_11  and  C_12
REMARK    5  A    between atoms: C_12  and  C_13
REMARK    6  A    between atoms: N_18  and  C_19
REMARK    7  A    between atoms: C_19  and  C_20
REMARK                            x       y       z     vdW  Elec       q    Type
REMARK                         _______ _______ _______ _____ _____    ______ ____
ROOT
ATOM      1  N   UNL     1       5.509   0.604   1.395  0.00  0.00    -0.298 N 
ATOM      2  C   UNL     1       6.194   0.588   2.556  0.00  0.00    +0.300 C 
ATOM      3  O   UNL     1       5.596   0.591   3.615  0.00  0.00    -0.253 OA
ATOM      4  N   UNL     1       7.542   0.570   2.543  0.00  0.00    -0.301 N 
ATOM      5  H   UNL     1       5.986   0.602   0.551  0.00  0.00    +0.150 HD
ATOM      6  H   UNL     1       8.018   0.568   1.698  0.00  0.00    +0.150 HD
ENDROOT
BRANCH   1   7
ATOM      7  C   UNL     1       4.044   0.624   1.409  0.00  0.00    +0.127 C 
BRANCH   7   8
ATOM      8  C   UNL     1       3.521   0.638  -0.028  0.00  0.00    +0.141 C 
BRANCH   8  11
ATOM      9  C   UNL     1      -0.016   1.337   0.009  0.00  0.00    +0.101 A 
ATOM     10  C   UNL     1       1.259   1.771  -0.000  0.00  0.00    +0.104 A 
ATOM     11  N   UNL     1       2.056   0.658  -0.014  0.00  0.00    -0.337 N 
ATOM     12  C   UNL     1       1.240  -0.418  -0.012  0.00  0.00    +0.173 A 
ATOM     13  N   UNL     1       0.002  -0.004   0.002  0.00  0.00    -0.352 N 
ATOM     14  H   UNL     1      -0.781  -0.576   0.007  0.00  0.00    +0.166 HD
ENDBRANCH   8  11
ENDBRANCH   7   8
ENDBRANCH   1   7
BRANCH   4  15
ATOM     15  C   UNL     1       8.286   0.553   3.805  0.00  0.00    +0.090 C 
BRANCH  15  16
ATOM     16  C   UNL     1       9.787   0.534   3.510  0.00  0.00    -0.051 C 
ATOM     17  C   UNL     1      10.582   0.687   4.825  0.00  0.00    -0.016 C 
ATOM     18  C   UNL     1      11.770   1.595   4.412  0.00  0.00    -0.020 C 
ATOM     19  C   UNL     1      11.101   2.536   3.380  0.00  0.00    -0.078 C 
ATOM     20  N   UNL     1      10.144   1.674   2.646  0.00  0.00    +0.383 N 
ATOM     21  H   UNL     1       9.314   2.202   2.421  0.00  0.00    -0.081 HD
BRANCH  20  22
ATOM     22  C   UNL     1      10.765   1.182   1.409  0.00  0.00    -0.075 C 
BRANCH  22  23
ATOM     23  C   UNL     1      11.019   2.357   0.463  0.00  0.00    -0.028 C 
ATOM     24  C   UNL     1       9.682   2.963   0.031  0.00  0.00    +0.002 C 
ATOM     25  C   UNL     1       9.936   4.138  -0.915  0.00  0.00    +0.000 C 
ATOM     26  C   UNL     1      10.694   3.645  -2.148  0.00  0.00    +0.000 C 
ATOM     27  C   UNL     1      12.032   3.039  -1.717  0.00  0.00    +0.000 C 
ATOM     28  C   UNL     1      11.777   1.864  -0.770  0.00  0.00    +0.002 C 
ENDBRANCH  22  23
ENDBRANCH  20  22
ENDBRANCH  15  16
ENDBRANCH   4  15
TORSDOF 7
