REMARK  Name = ZINC67620388
REMARK  13 active torsions:
REMARK  status: ('A' for Active; 'I' for Inactive)
REMARK    1  A    between atoms: C_1  and  C_2
REMARK    2  A    between atoms: C_5  and  C_29
REMARK    3  A    between atoms: N_8  and  C_10
REMARK    4  A    between atoms: C_10  and  C_11
REMARK    5  A    between atoms: C_11  and  C_12
REMARK    6  A    between atoms: C_12  and  N_13
REMARK    7  A    between atoms: N_16  and  C_17
REMARK    8  A    between atoms: C_17  and  C_18
REMARK    9  A    between atoms: C_21  and  N_24
REMARK   10  A    between atoms: N_24  and  C_25
REMARK   11  A    between atoms: C_25  and  C_26
REMARK   12  A    between atoms: C_26  and  O_27
REMARK   13  A    between atoms: O_27  and  C_28
REMARK                            x       y       z     vdW  Elec       q    Type
REMARK                         _______ _______ _______ _____ _____    ______ ____
ROOT
ATOM      1  N   UNL     1       2.207   0.402   6.106  0.00  0.00    -0.299 N 
ATOM      2  C   UNL     1       2.669   0.154   7.348  0.00  0.00    +0.300 C 
ATOM      3  O   UNL     1       3.621  -0.587   7.506  0.00  0.00    -0.253 OA
ATOM      4  N   UNL     1       2.078   0.728   8.414  0.00  0.00    -0.295 N 
ATOM      5  H   UNL     1       1.448   0.993   5.981  0.00  0.00    +0.150 HD
ATOM      6  H   UNL     1       1.319   1.319   8.288  0.00  0.00    +0.151 HD
ENDROOT
BRANCH   1   7
ATOM      7  C   UNL     1       2.850  -0.222   4.947  0.00  0.00    +0.104 C 
BRANCH   7   8
ATOM      8  C   UNL     1       2.136   0.221   3.668  0.00  0.00    +0.000 C 
BRANCH   8   9
ATOM      9  C   UNL     1       2.808  -0.431   2.458  0.00  0.00    -0.077 C 
BRANCH   9  15
ATOM     10  C   UNL     1      -0.019   1.526   0.010  0.00  0.00    +0.005 C 
ATOM     11  C   UNL     1       0.002  -0.004   0.002  0.00  0.00    -0.031 C 
ATOM     12  C   UNL     1       0.721  -0.499  -1.257  0.00  0.00    +0.003 C 
ATOM     13  C   UNL     1       2.177  -0.027  -1.220  0.00  0.00    -0.031 C 
ATOM     14  C   UNL     1       2.839  -0.534   0.063  0.00  0.00    -0.076 C 
ATOM     15  N   UNL     1       2.123  -0.005   1.230  0.00  0.00    +0.380 N 
ATOM     16  C   UNL     1       0.744  -0.512   1.240  0.00  0.00    -0.076 C 
ATOM     17  C   UNL     1       2.924  -0.581  -2.434  0.00  0.00    +0.005 C 
ATOM     18  H   UNL     1       2.109   1.003   1.187  0.00  0.00    -0.082 HD
ENDBRANCH   9  15
ENDBRANCH   8   9
ENDBRANCH   7   8
ENDBRANCH   1   7
BRANCH   4  19
ATOM     19  C   UNL     1       2.581   0.459   9.764  0.00  0.00    +0.141 C 
BRANCH  19  20
ATOM     20  C   UNL     1       1.752   1.216  10.769  0.00  0.00    -0.030 A 
ATOM     21  C   UNL     1       2.112   2.500  11.134  0.00  0.00    +0.007 A 
ATOM     22  C   UNL     1       1.355   3.197  12.055  0.00  0.00    +0.023 A 
ATOM     23  C   UNL     1       0.229   2.606  12.615  0.00  0.00    +0.027 A 
ATOM     24  C   UNL     1      -0.131   1.316  12.246  0.00  0.00    +0.023 A 
ATOM     25  C   UNL     1       0.628   0.627  11.320  0.00  0.00    +0.007 A 
BRANCH  23  26
ATOM     26  N   UNL     1      -0.539   3.307  13.547  0.00  0.00    -0.342 N 
ATOM     27  H   UNL     1      -0.287   4.208  13.804  0.00  0.00    +0.146 HD
BRANCH  26  28
ATOM     28  C   UNL     1      -1.726   2.683  14.136  0.00  0.00    +0.129 C 
BRANCH  28  29
ATOM     29  C   UNL     1      -2.381   3.657  15.117  0.00  0.00    +0.178 C 
BRANCH  29  30
ATOM     30  O   UNL     1      -2.868   4.796  14.405  0.00  0.00    -0.381 OA
ATOM     31  C   UNL     1      -3.501   5.773  15.234  0.00  0.00    +0.194 C 
ENDBRANCH  29  30
ENDBRANCH  28  29
ENDBRANCH  26  28
ENDBRANCH  23  26
ENDBRANCH  19  20
ENDBRANCH   4  19
TORSDOF 10
