REMARK  Name = ZINC48256976
REMARK  9 active torsions:
REMARK  status: ('A' for Active; 'I' for Inactive)
REMARK    1  A    between atoms: C_1  and  C_2
REMARK    2  A    between atoms: C_2  and  C_3
REMARK    3  A    between atoms: N_5  and  C_6
REMARK    4  A    between atoms: C_9  and  C_30
REMARK    5  A    between atoms: C_10  and  N_12
REMARK    6  A    between atoms: N_15  and  C_16
REMARK    7  A    between atoms: C_16  and  C_17
REMARK    8  A    between atoms: C_17  and  C_19
REMARK    9  A    between atoms: C_17  and  N_24
REMARK                            x       y       z     vdW  Elec       q    Type
REMARK                         _______ _______ _______ _____ _____    ______ ____
ROOT
ATOM      1  N   UNL     1      -4.426  -5.735  -0.008  0.00  0.00    -0.269 N 
ATOM      2  C   UNL     1      -3.336  -6.505   0.179  0.00  0.00    +0.304 C 
ATOM      3  O   UNL     1      -2.229  -6.002   0.184  0.00  0.00    -0.253 OA
ATOM      4  N   UNL     1      -3.472  -7.834   0.361  0.00  0.00    -0.300 N 
ATOM      5  H   UNL     1      -5.302  -6.145  -0.083  0.00  0.00    +0.156 HD
ATOM      6  H   UNL     1      -4.355  -8.236   0.357  0.00  0.00    +0.150 HD
ENDROOT
BRANCH   1  11
ATOM      7  C   UNL     1      -3.034  -2.411  -0.761  0.00  0.00    +0.035 A 
ATOM      8  C   UNL     1      -4.039  -1.590  -0.264  0.00  0.00    +0.024 A 
ATOM      9  C   UNL     1      -5.163  -2.146   0.315  0.00  0.00    +0.007 A 
ATOM     10  C   UNL     1      -5.294  -3.519   0.400  0.00  0.00    -0.029 A 
ATOM     11  C   UNL     1      -4.293  -4.345  -0.096  0.00  0.00    +0.039 A 
ATOM     12  C   UNL     1      -3.165  -3.790  -0.682  0.00  0.00    +0.047 A 
ATOM     13  C   UNL     1      -6.522  -4.120   1.032  0.00  0.00    +0.045 C 
BRANCH   7  16
ATOM     14  C   UNL     1      -1.387  -0.698  -0.862  0.00  0.00    +0.217 C 
ATOM     15  O   UNL     1      -1.965  -0.105   0.024  0.00  0.00    -0.275 OA
ATOM     16  N   UNL     1      -1.895  -1.848  -1.347  0.00  0.00    -0.285 N 
ATOM     17  H   UNL     1      -1.472  -2.285  -2.102  0.00  0.00    +0.155 HD
BRANCH  14  19
ATOM     18  C   UNL     1       0.254   1.154  -0.700  0.00  0.00    +0.013 C 
ATOM     19  C   UNL     1      -0.099  -0.149  -1.419  0.00  0.00    +0.093 C 
ENDBRANCH  14  19
ENDBRANCH   7  16
ENDBRANCH   1  11
BRANCH   4  20
ATOM     20  C   UNL     1      -2.288  -8.671   0.566  0.00  0.00    +0.098 C 
BRANCH  20  21
ATOM     21  C   UNL     1      -2.706 -10.142   0.625  0.00  0.00    +0.016 C 
BRANCH  21  22
ATOM     22  N   UNL     1      -3.741 -10.315   1.653  0.00  0.00    +0.387 N 
ATOM     23  C   UNL     1      -3.244  -9.802   2.936  0.00  0.00    -0.078 C 
ATOM     24  C   UNL     1      -4.346  -9.906   3.992  0.00  0.00    -0.019 C 
ATOM     25  C   UNL     1      -4.756 -11.373   4.152  0.00  0.00    -0.004 C 
ATOM     26  C   UNL     1      -5.202 -11.918   2.792  0.00  0.00    -0.019 C 
ATOM     27  C   UNL     1      -4.068 -11.740   1.780  0.00  0.00    -0.078 C 
ATOM     28  H   UNL     1      -4.568  -9.803   1.387  0.00  0.00    -0.081 HD
ENDBRANCH  21  22
BRANCH  21  29
ATOM     29  C   UNL     1      -3.254 -10.562  -0.714  0.00  0.00    +0.093 A 
ATOM     30  C   UNL     1      -2.586 -11.254  -1.655  0.00  0.00    +0.043 A 
ATOM     31  C   UNL     1      -3.474 -11.429  -2.742  0.00  0.00    +0.041 A 
ATOM     32  C   UNL     1      -4.630 -10.833  -2.400  0.00  0.00    +0.195 A 
ATOM     33  O   UNL     1      -4.493 -10.315  -1.169  0.00  0.00    -0.469 OA
ENDBRANCH  21  29
ENDBRANCH  20  21
ENDBRANCH   4  20
TORSDOF 7
