REMARK  Name = ZINC44737278
REMARK  6 active torsions:
REMARK  status: ('A' for Active; 'I' for Inactive)
REMARK    1  A    between atoms: C_1  and  C_2
REMARK    2  A    between atoms: C_9  and  C_11
REMARK    3  A    between atoms: C_11  and  C_13
REMARK    4  A    between atoms: C_11  and  N_14
REMARK    5  A    between atoms: C_15  and  C_17
REMARK    6  A    between atoms: C_28  and  C_30
REMARK                            x       y       z     vdW  Elec       q    Type
REMARK                         _______ _______ _______ _____ _____    ______ ____
ROOT
ATOM      1  C   UNL     1      -1.400  -8.661   1.586  0.00  0.00    +0.100 C 
ATOM      2  C   UNL     1      -0.485  -9.113   0.425  0.00  0.00    +0.121 C 
ATOM      3  N   UNL     1       0.033 -10.435   0.850  0.00  0.00    -0.296 N 
ATOM      4  C   UNL     1      -1.125 -11.093   1.501  0.00  0.00    +0.115 C 
ATOM      5  C   UNL     1      -1.821  -9.963   2.287  0.00  0.00    -0.004 C 
ATOM      6  C   UNL     1      -3.336 -10.131   2.224  0.00  0.00    -0.010 C 
ATOM      7  C   UNL     1      -3.736 -11.402   2.979  0.00  0.00    -0.082 C 
ATOM      8  N   UNL     1      -3.292 -11.306   4.374  0.00  0.00    +0.379 N 
ATOM      9  C   UNL     1      -1.826 -11.238   4.430  0.00  0.00    -0.082 C 
ATOM     10  C   UNL     1      -1.346  -9.960   3.737  0.00  0.00    -0.010 C 
ATOM     11  C   UNL     1       1.276 -10.928   0.682  0.00  0.00    +0.248 C 
ATOM     12  O   UNL     1       1.523 -12.075   1.002  0.00  0.00    -0.270 OA
ATOM     13  H   UNL     1      -3.681 -10.475   4.793  0.00  0.00    -0.086 HD
ATOM     14  H   UNL     1      -3.609 -12.117   4.884  0.00  0.00    -0.086 HD
ENDROOT
BRANCH  11  15
ATOM     15  C   UNL     1       2.337 -10.076   0.107  0.00  0.00    +0.057 A 
ATOM     16  C   UNL     1       2.029  -9.146  -0.888  0.00  0.00    +0.014 A 
ATOM     17  C   UNL     1       3.024  -8.354  -1.420  0.00  0.00    +0.002 A 
ATOM     18  C   UNL     1       4.327  -8.477  -0.971  0.00  0.00    +0.021 A 
ATOM     19  C   UNL     1       4.642  -9.395   0.015  0.00  0.00    +0.060 A 
ATOM     20  C   UNL     1       3.653 -10.192   0.562  0.00  0.00    +0.071 A 
ATOM     21 CL   UNL     1       4.047 -11.339   1.804  0.00  0.00    -0.081 Cl
ATOM     22 CL   UNL     1       6.280  -9.543   0.571  0.00  0.00    -0.082 Cl
ENDBRANCH  11  15
BRANCH   1  24
ATOM     23  N   UNL     1      -1.296  -6.851   3.268  0.00  0.00    -0.305 N 
ATOM     24  C   UNL     1      -0.640  -7.774   2.538  0.00  0.00    +0.219 C 
ATOM     25  O   UNL     1       0.563  -7.892   2.647  0.00  0.00    -0.275 OA
ATOM     26  H   UNL     1      -2.257  -6.757   3.181  0.00  0.00    +0.149 HD
BRANCH  23  27
ATOM     27  C   UNL     1      -0.557  -5.989   4.194  0.00  0.00    +0.136 C 
ATOM     28  C   UNL     1      -0.003  -4.782   3.435  0.00  0.00    +0.036 C 
BRANCH  27  37
ATOM     29  C   UNL     1      -4.006  -3.515  10.307  0.00  0.00    +0.044 C 
ATOM     30  C   UNL     1      -3.747  -4.024   8.912  0.00  0.00    -0.048 A 
ATOM     31  C   UNL     1      -4.810  -4.212   8.039  0.00  0.00    +0.005 A 
ATOM     32  C   UNL     1      -4.596  -4.673   6.771  0.00  0.00    +0.030 A 
ATOM     33  C   UNL     1      -3.296  -4.958   6.343  0.00  0.00    +0.089 A 
ATOM     34  C   UNL     1      -2.221  -4.767   7.226  0.00  0.00    +0.067 A 
ATOM     35  C   UNL     1      -2.457  -4.293   8.510  0.00  0.00    +0.031 A 
ATOM     36  N   UNL     1      -1.086  -5.128   6.528  0.00  0.00    -0.340 N 
ATOM     37  C   UNL     1      -1.481  -5.515   5.286  0.00  0.00    +0.128 A 
ATOM     38  N   UNL     1      -2.774  -5.416   5.177  0.00  0.00    -0.231 NA
ATOM     39  H   UNL     1      -0.175  -5.109   6.862  0.00  0.00    +0.167 HD
ENDBRANCH  27  37
ENDBRANCH  23  27
ENDBRANCH   1  24
TORSDOF 4
