REMARK  Name = ZINC36889190
REMARK  4 active torsions:
REMARK  status: ('A' for Active; 'I' for Inactive)
REMARK    1  A    between atoms: C_4  and  S_8
REMARK    2  A    between atoms: S_8  and  C_9
REMARK    3  A    between atoms: C_12  and  C_19
REMARK    4  A    between atoms: C_13  and  C_15
REMARK                            x       y       z     vdW  Elec       q    Type
REMARK                         _______ _______ _______ _____ _____    ______ ____
ROOT
ATOM      1  C   UNL     1       5.225   0.387  -0.026  0.00  0.00    +0.013 A 
ATOM      2  C   UNL     1       5.015   1.757   0.105  0.00  0.00    +0.016 A 
ATOM      3  C   UNL     1       6.086   2.620   0.125  0.00  0.00    +0.013 A 
ATOM      4  C   UNL     1       7.387   2.120   0.015  0.00  0.00    +0.024 A 
ATOM      5  C   UNL     1       7.595   0.744  -0.116  0.00  0.00    +0.066 A 
ATOM      6  C   UNL     1       6.520  -0.115  -0.131  0.00  0.00    +0.028 A 
ENDROOT
BRANCH   4   7
ATOM      7  C   UNL     1       8.539   3.043   0.036  0.00  0.00    +0.095 C 
ATOM      8  N   UNL     1       9.383   3.080  -0.995  0.00  0.00    -0.387 N 
ATOM      9  N   UNL     1       8.735   3.840   1.087  0.00  0.00    -0.345 N 
ATOM     10  H   UNL     1       9.193   2.566  -1.795  0.00  0.00    +0.157 HD
ATOM     11  H   UNL     1       8.121   3.813   1.838  0.00  0.00    +0.144 HD
ATOM     12  H   UNL     1       9.492   4.447   1.101  0.00  0.00    +0.144 HD
ATOM     13  H   UNL     1      10.186   3.622  -0.945  0.00  0.00    +0.157 HD
ENDBRANCH   4   7
BRANCH   5  14
ATOM     14  C   UNL     1       8.996   0.202  -0.235  0.00  0.00    +0.418 C 
ATOM     15  F   UNL     1       8.958  -1.197  -0.213  0.00  0.00    -0.166 F 
ATOM     16  F   UNL     1       9.562   0.633  -1.440  0.00  0.00    -0.166 F 
ATOM     17  F   UNL     1       9.768   0.664   0.835  0.00  0.00    -0.166 F 
ENDBRANCH   5  14
BRANCH   1  18
ATOM     18  S   UNL     1       3.850  -0.715  -0.053  0.00  0.00    -0.087 S 
BRANCH  18  22
ATOM     19  C   UNL     1       3.023  -1.328  -4.465  0.00  0.00    +0.003 A 
ATOM     20  C   UNL     1       3.986  -0.421  -4.062  0.00  0.00    +0.001 A 
ATOM     21  C   UNL     1       4.241  -0.232  -2.718  0.00  0.00    +0.018 A 
ATOM     22  C   UNL     1       3.528  -0.954  -1.769  0.00  0.00    +0.048 A 
ATOM     23  C   UNL     1       2.560  -1.865  -2.177  0.00  0.00    +0.137 A 
ATOM     24  C   UNL     1       2.311  -2.049  -3.524  0.00  0.00    +0.039 A 
ATOM     25  F   UNL     1       1.865  -2.571  -1.258  0.00  0.00    -0.204 F 
ENDBRANCH  18  22
ENDBRANCH   1  18
TORSDOF 4
