REMARK  Name = ZINC62236635
REMARK  4 active torsions:
REMARK  status: ('A' for Active; 'I' for Inactive)
REMARK    1  A    between atoms: C_1  and  N_2
REMARK    2  A    between atoms: C_3  and  N_19
REMARK    3  A    between atoms: C_4  and  C_14
REMARK    4  A    between atoms: C_5  and  C_7
REMARK                            x       y       z     vdW  Elec       q    Type
REMARK                         _______ _______ _______ _____ _____    ______ ____
ROOT
ATOM      1  C   UNL     1      -0.018   1.461   0.010  0.00  0.00    +0.172 C 
ATOM      2  N   UNL     1       0.002  -0.004   0.002  0.00  0.00    -0.276 N 
ATOM      3  C   UNL     1       0.008  -0.790  -1.098  0.00  0.00    +0.121 A 
ATOM      4  C   UNL     1       0.029  -2.105  -0.663  0.00  0.00    +0.049 A 
ATOM      5  C   UNL     1       0.035  -2.078   0.746  0.00  0.00    +0.049 A 
ATOM      6  N   UNL     1       0.025  -0.830   1.132  0.00  0.00    -0.299 N 
ATOM      7  H   UNL     1       0.029  -0.524   2.053  0.00  0.00    +0.187 HD
ENDROOT
BRANCH   5   8
ATOM      8  C   UNL     1       0.056  -3.281   1.652  0.00  0.00    +0.063 C 
ATOM      9  C   UNL     1       1.309  -3.237   2.533  0.00  0.00    +0.014 C 
ATOM     10  C   UNL     1       1.280  -4.423   3.503  0.00  0.00    +0.029 C 
ATOM     11  C   UNL     1      -0.010  -4.369   4.325  0.00  0.00    +0.160 C 
ATOM     12  O   UNL     1      -1.135  -4.382   3.444  0.00  0.00    -0.379 OA
ATOM     13  C   UNL     1      -1.188  -3.272   2.545  0.00  0.00    +0.169 C 
ENDBRANCH   5   8
BRANCH   4  14
ATOM     14  C   UNL     1       0.041  -3.312  -1.518  0.00  0.00    +0.024 A 
ATOM     15  C   UNL     1       1.008  -3.747  -2.383  0.00  0.00    +0.016 A 
ATOM     16  C   UNL     1       0.795  -4.918  -3.081  0.00  0.00    +0.008 A 
ATOM     17  C   UNL     1      -0.361  -5.600  -2.890  0.00  0.00    +0.046 A 
ATOM     18  S   UNL     1      -1.199  -4.587  -1.683  0.00  0.00    -0.096 S 
ENDBRANCH   4  14
BRANCH   3  19
ATOM     19  N   UNL     1      -0.005  -0.359  -2.419  0.00  0.00    -0.343 N 
ATOM     20  H   UNL     1      -0.019   0.590  -2.619  0.00  0.00    +0.144 HD
ATOM     21  H   UNL     1       0.000  -1.008  -3.141  0.00  0.00    +0.144 HD
ENDBRANCH   3  19
TORSDOF 3
