REMARK  Name = ZINC44121135
REMARK  12 active torsions:
REMARK  status: ('A' for Active; 'I' for Inactive)
REMARK    1  A    between atoms: C_1  and  C_2
REMARK    2  A    between atoms: N_5  and  C_8
REMARK    3  A    between atoms: C_8  and  C_10
REMARK    4  A    between atoms: C_8  and  C_27
REMARK    5  A    between atoms: C_10  and  N_11
REMARK    6  A    between atoms: N_14  and  C_15
REMARK    7  A    between atoms: C_18  and  N_21
REMARK    8  A    between atoms: C_22  and  C_24
REMARK    9  A    between atoms: C_24  and  O_25
REMARK   10  A    between atoms: O_25  and  C_26
REMARK   11  A    between atoms: C_27  and  C_28
REMARK   12  A    between atoms: C_27  and  C_29
REMARK                            x       y       z     vdW  Elec       q    Type
REMARK                         _______ _______ _______ _____ _____    ______ ____
ROOT
ATOM      1  N   UNL     1       1.686  -3.455  -2.332  0.00  0.00    -0.301 N 
ATOM      2  C   UNL     1       2.147  -3.606  -3.590  0.00  0.00    +0.304 C 
ATOM      3  O   UNL     1       3.182  -4.212  -3.790  0.00  0.00    -0.253 OA
ATOM      4  N   UNL     1       1.461  -3.083  -4.626  0.00  0.00    -0.269 N 
ATOM      5  H   UNL     1       0.861  -2.971  -2.173  0.00  0.00    +0.150 HD
ATOM      6  H   UNL     1       0.679  -2.534  -4.462  0.00  0.00    +0.156 HD
ENDROOT
BRANCH   4   7
ATOM      7  C   UNL     1       1.878  -3.333  -5.940  0.00  0.00    +0.035 A 
ATOM      8  C   UNL     1       1.727  -2.356  -6.914  0.00  0.00    +0.025 A 
ATOM      9  C   UNL     1       2.138  -2.603  -8.209  0.00  0.00    +0.025 A 
ATOM     10  C   UNL     1       2.702  -3.829  -8.537  0.00  0.00    +0.034 A 
ATOM     11  C   UNL     1       2.853  -4.806  -7.562  0.00  0.00    +0.025 A 
ATOM     12  C   UNL     1       2.447  -4.557  -6.266  0.00  0.00    +0.025 A 
BRANCH  10  13
ATOM     13  N   UNL     1       3.118  -4.079  -9.851  0.00  0.00    -0.284 N 
ATOM     14  C   UNL     1       3.628  -3.080 -10.598  0.00  0.00    +0.243 C 
ATOM     15  O   UNL     1       3.812  -1.987 -10.106  0.00  0.00    -0.273 OA
ATOM     16  H   UNL     1       3.039  -4.972 -10.223  0.00  0.00    +0.155 HD
BRANCH  14  17
ATOM     17  C   UNL     1       3.969  -3.321 -12.046  0.00  0.00    +0.255 C 
BRANCH  17  18
ATOM     18  O   UNL     1       4.489  -2.120 -12.620  0.00  0.00    -0.374 OA
ATOM     19  C   UNL     1       4.846  -2.241 -13.998  0.00  0.00    +0.194 C 
ENDBRANCH  17  18
ENDBRANCH  14  17
ENDBRANCH  10  13
ENDBRANCH   4   7
BRANCH   1  20
ATOM     20  C   UNL     1       2.432  -4.024  -1.206  0.00  0.00    +0.091 C 
BRANCH  20  21
ATOM     21  C   UNL     1       1.792  -3.573   0.108  0.00  0.00    -0.048 C 
BRANCH  21  26
ATOM     22  C   UNL     1       3.418   1.890  -0.085  0.00  0.00    +0.007 C 
ATOM     23  C   UNL     1       3.200   0.413  -0.423  0.00  0.00    -0.018 C 
ATOM     24  C   UNL     1       3.808  -0.459   0.678  0.00  0.00    -0.016 C 
ATOM     25  C   UNL     1       3.517  -1.931   0.375  0.00  0.00    -0.078 C 
ATOM     26  N   UNL     1       2.066  -2.146   0.323  0.00  0.00    +0.383 N 
ATOM     27  C   UNL     1       1.487  -1.367  -0.778  0.00  0.00    -0.078 C 
ATOM     28  C   UNL     1       1.699   0.126  -0.519  0.00  0.00    -0.016 C 
ATOM     29  H   UNL     1       1.652  -1.853   1.195  0.00  0.00    -0.081 HD
ENDBRANCH  21  26
BRANCH  21  30
ATOM     30  C   UNL     1       2.378  -4.384   1.265  0.00  0.00    -0.029 C 
ATOM     31  C   UNL     1       1.685  -3.986   2.570  0.00  0.00    +0.005 C 
ATOM     32  C   UNL     1       2.157  -5.876   1.006  0.00  0.00    +0.005 C 
ENDBRANCH  21  30
ENDBRANCH  20  21
ENDBRANCH   1  20
TORSDOF 8
