REMARK  Name = ZINC67086154
REMARK  12 active torsions:
REMARK  status: ('A' for Active; 'I' for Inactive)
REMARK    1  A    between atoms: C_1  and  C_2
REMARK    2  A    between atoms: C_5  and  C_8
REMARK    3  A    between atoms: C_8  and  C_10
REMARK    4  A    between atoms: C_8  and  N_11
REMARK    5  A    between atoms: N_14  and  C_15
REMARK    6  A    between atoms: C_15  and  C_16
REMARK    7  A    between atoms: C_20  and  C_22
REMARK    8  A    between atoms: N_24  and  C_25
REMARK    9  A    between atoms: C_25  and  C_26
REMARK   10  A    between atoms: C_26  and  N_27
REMARK   11  A    between atoms: N_27  and  C_28
REMARK   12  A    between atoms: N_27  and  C_29
REMARK                            x       y       z     vdW  Elec       q    Type
REMARK                         _______ _______ _______ _____ _____    ______ ____
ROOT
ATOM      1  C   UNL     1      -2.758  -7.810   1.797  0.00  0.00    +0.141 C 
ENDROOT
BRANCH   1   5
ATOM      2  N   UNL     1      -0.816  -4.781   1.039  0.00  0.00    -0.293 N 
ATOM      3  C   UNL     1      -1.361  -6.009   0.935  0.00  0.00    +0.300 C 
ATOM      4  O   UNL     1      -1.125  -6.698  -0.039  0.00  0.00    -0.253 OA
ATOM      5  N   UNL     1      -2.166  -6.474   1.910  0.00  0.00    -0.295 N 
ATOM      6  H   UNL     1      -1.004  -4.231   1.816  0.00  0.00    +0.151 HD
ATOM      7  H   UNL     1      -2.354  -5.925   2.687  0.00  0.00    +0.151 HD
BRANCH   2   8
ATOM      8  C   UNL     1       0.059  -4.275  -0.021  0.00  0.00    +0.102 C 
ATOM      9  C   UNL     1       1.488  -4.768   0.218  0.00  0.00    +0.033 C 
BRANCH   8  14
ATOM     10  C   UNL     1      -0.018   1.503   0.010  0.00  0.00    +0.044 C 
ATOM     11  C   UNL     1       0.002  -0.004   0.002  0.00  0.00    -0.050 A 
ATOM     12  C   UNL     1       0.006  -0.689  -1.199  0.00  0.00    +0.004 A 
ATOM     13  C   UNL     1       0.025  -2.071  -1.206  0.00  0.00    +0.006 A 
ATOM     14  C   UNL     1       0.040  -2.768  -0.013  0.00  0.00    -0.027 A 
ATOM     15  C   UNL     1       0.037  -2.084   1.188  0.00  0.00    +0.006 A 
ATOM     16  C   UNL     1       0.023  -0.702   1.195  0.00  0.00    +0.004 A 
ENDBRANCH   8  14
ENDBRANCH   2   8
ENDBRANCH   1   5
BRANCH   1  17
ATOM     17  C   UNL     1      -3.610  -8.086   3.009  0.00  0.00    -0.030 A 
ATOM     18  C   UNL     1      -3.048  -8.676   4.127  0.00  0.00    +0.005 A 
ATOM     19  C   UNL     1      -3.823  -8.933   5.244  0.00  0.00    +0.001 A 
ATOM     20  C   UNL     1      -5.163  -8.602   5.249  0.00  0.00    +0.013 A 
ATOM     21  C   UNL     1      -5.735  -8.006   4.124  0.00  0.00    +0.037 A 
ATOM     22  C   UNL     1      -4.946  -7.745   3.002  0.00  0.00    +0.018 A 
BRANCH  21  23
ATOM     23  C   UNL     1      -7.170  -7.649   4.122  0.00  0.00    +0.244 C 
ATOM     24  O   UNL     1      -7.666  -7.131   3.141  0.00  0.00    -0.270 OA
ATOM     25  N   UNL     1      -7.928  -7.899   5.208  0.00  0.00    -0.313 N 
ATOM     26  H   UNL     1      -7.532  -8.313   5.991  0.00  0.00    +0.149 HD
BRANCH  25  27
ATOM     27  C   UNL     1      -9.350  -7.545   5.206  0.00  0.00    +0.086 C 
BRANCH  27  28
ATOM     28  C   UNL     1      -9.973  -7.931   6.549  0.00  0.00    -0.061 C 
BRANCH  28  29
ATOM     29  N   UNL     1     -11.399  -7.577   6.546  0.00  0.00    +0.377 N 
ATOM     30  C   UNL     1     -12.104  -8.386   5.543  0.00  0.00    -0.097 C 
ATOM     31  C   UNL     1     -11.970  -7.837   7.875  0.00  0.00    -0.097 C 
ATOM     32  H   UNL     1     -11.502  -6.598   6.322  0.00  0.00    -0.083 HD
ENDBRANCH  28  29
ENDBRANCH  27  28
ENDBRANCH  25  27
ENDBRANCH  21  23
ENDBRANCH   1  17
TORSDOF 8
