REMARK  Name = ZINC27248438
REMARK  11 active torsions:
REMARK  status: ('A' for Active; 'I' for Inactive)
REMARK    1  A    between atoms: C_1  and  O_2
REMARK    2  A    between atoms: O_2  and  C_3
REMARK    3  A    between atoms: C_6  and  C_9
REMARK    4  A    between atoms: C_9  and  C_10
REMARK    5  A    between atoms: C_9  and  C_18
REMARK    6  A    between atoms: C_9  and  O_33
REMARK    7  A    between atoms: C_15  and  O_16
REMARK    8  A    between atoms: O_16  and  C_17
REMARK    9  A    between atoms: C_18  and  C_20
REMARK   10  A    between atoms: C_18  and  C_26
REMARK   11  A    between atoms: C_20  and  N_21
REMARK                            x       y       z     vdW  Elec       q    Type
REMARK                         _______ _______ _______ _____ _____    ______ ____
ROOT
ATOM      1  C   UNL     1       0.002  -0.004   0.002  0.00  0.00    +0.124 C 
ENDROOT
BRANCH   1   5
ATOM      2  C   UNL     1      -0.056   4.269   0.025  0.00  0.00    +0.120 A 
ATOM      3  C   UNL     1       1.154   3.591   0.010  0.00  0.00    +0.046 A 
ATOM      4  C   UNL     1       1.170   2.209   0.003  0.00  0.00    +0.010 A 
ATOM      5  C   UNL     1      -0.018   1.503   0.010  0.00  0.00    -0.011 A 
ATOM      6  C   UNL     1      -1.226   2.177   0.020  0.00  0.00    +0.010 A 
ATOM      7  C   UNL     1      -1.247   3.558   0.033  0.00  0.00    +0.046 A 
BRANCH   2   9
ATOM      8  C   UNL     1      -1.356   6.259   0.047  0.00  0.00    +0.277 C 
ATOM      9  O   UNL     1      -0.074   5.628   0.032  0.00  0.00    -0.495 OA
ENDBRANCH   2   9
ENDBRANCH   1   5
BRANCH   1  10
ATOM     10  C   UNL     1       0.022  -0.514   1.420  0.00  0.00    +0.030 A 
ATOM     11  C   UNL     1       1.073  -1.297   1.858  0.00  0.00    +0.010 A 
ATOM     12  C   UNL     1       1.093  -1.764   3.159  0.00  0.00    +0.001 A 
ATOM     13  C   UNL     1       0.061  -1.450   4.025  0.00  0.00    +0.004 A 
ATOM     14  C   UNL     1      -0.991  -0.668   3.592  0.00  0.00    +0.046 A 
ATOM     15  C   UNL     1      -1.011  -0.193   2.288  0.00  0.00    +0.126 A 
BRANCH  15  16
ATOM     16  O   UNL     1      -2.043   0.581   1.861  0.00  0.00    -0.495 OA
ATOM     17  C   UNL     1      -3.072   0.871   2.809  0.00  0.00    +0.277 C 
ENDBRANCH  15  16
ENDBRANCH   1  10
BRANCH   1  18
ATOM     18  O   UNL     1       1.169  -0.461  -0.685  0.00  0.00    -0.379 OA
ATOM     19  H   UNL     1       1.357  -1.539  -0.793  0.00  0.00    +0.211 HD
ENDBRANCH   1  18
BRANCH   1  20
ATOM     20  C   UNL     1      -1.247  -0.527  -0.710  0.00  0.00    +0.043 C 
BRANCH  20  21
ATOM     21  C   UNL     1      -1.226  -2.034  -0.718  0.00  0.00    -0.043 A 
ATOM     22  C   UNL     1      -0.189  -2.708  -1.336  0.00  0.00    +0.005 A 
ATOM     23  C   UNL     1      -0.167  -4.090  -1.339  0.00  0.00    +0.020 A 
ATOM     24  C   UNL     1      -1.189  -4.799  -0.734  0.00  0.00    +0.041 A 
ATOM     25  C   UNL     1      -2.230  -4.124  -0.121  0.00  0.00    +0.020 A 
ATOM     26  C   UNL     1      -2.248  -2.742  -0.114  0.00  0.00    +0.005 A 
ATOM     27 CL   UNL     1      -1.166  -6.535  -0.744  0.00  0.00    -0.084 Cl
ENDBRANCH  20  21
BRANCH  20  28
ATOM     28  C   UNL     1      -1.268  -0.009  -2.150  0.00  0.00    -0.067 C 
BRANCH  28  29
ATOM     29  N   UNL     1      -2.524  -0.412  -2.797  0.00  0.00    +0.380 N 
ATOM     30  C   UNL     1      -3.696  -0.008  -1.980  0.00  0.00    -0.079 C 
ATOM     31  C   UNL     1      -4.861  -0.016  -3.002  0.00  0.00    -0.020 C 
ATOM     32  C   UNL     1      -4.195   0.526  -4.288  0.00  0.00    -0.020 C 
ATOM     33  C   UNL     1      -2.689   0.266  -4.101  0.00  0.00    -0.079 C 
ATOM     34  H   UNL     1      -2.464  -1.504  -2.914  0.00  0.00    -0.082 HD
ENDBRANCH  28  29
ENDBRANCH  20  28
ENDBRANCH   1  20
TORSDOF 9
