REMARK  Name = ZINC12756558
REMARK  8 active torsions:
REMARK  status: ('A' for Active; 'I' for Inactive)
REMARK    1  A    between atoms: C_1  and  C_2
REMARK    2  A    between atoms: C_2  and  C_3
REMARK    3  A    between atoms: C_10  and  C_12
REMARK    4  A    between atoms: N_14  and  N_15
REMARK    5  A    between atoms: C_16  and  C_18
REMARK    6  A    between atoms: C_21  and  C_32
REMARK    7  A    between atoms: C_22  and  N_24
REMARK    8  A    between atoms: C_25  and  C_27
REMARK                            x       y       z     vdW  Elec       q    Type
REMARK                         _______ _______ _______ _____ _____    ______ ____
ROOT
ATOM      1  N   UNL     1       2.481   5.648  -0.037  0.00  0.00    -0.230 N 
ATOM      2  C   UNL     1       1.812   6.817  -0.015  0.00  0.00    +0.260 C 
ATOM      3  O   UNL     1       0.596   6.822  -0.001  0.00  0.00    -0.269 OA
ATOM      4  H   UNL     1       3.451   5.645  -0.048  0.00  0.00    +0.173 HD
ENDROOT
BRANCH   2   5
ATOM      5  C   UNL     1       2.556   8.095  -0.007  0.00  0.00    +0.040 A 
ATOM      6  C   UNL     1       3.952   8.093  -0.023  0.00  0.00    +0.013 A 
ATOM      7  C   UNL     1       4.644   9.287  -0.015  0.00  0.00    +0.006 A 
ATOM      8  C   UNL     1       3.959  10.488   0.008  0.00  0.00    -0.029 A 
ATOM      9  C   UNL     1       2.570  10.501   0.023  0.00  0.00    +0.037 A 
ATOM     10  C   UNL     1       1.865   9.307   0.011  0.00  0.00    +0.036 A 
ATOM     11  C   UNL     1       4.723  11.787   0.015  0.00  0.00    +0.045 C 
BRANCH   9  12
ATOM     12  N   UNL     1       1.882  11.719   0.045  0.00  0.00    -0.279 N 
ATOM     13  C   UNL     1       0.632  11.777   0.546  0.00  0.00    +0.284 C 
ATOM     14  O   UNL     1       0.139  10.796   1.070  0.00  0.00    -0.266 OA
ATOM     15  H   UNL     1       2.304  12.521  -0.300  0.00  0.00    +0.155 HD
BRANCH  13  16
ATOM     16  C   UNL     1      -0.134  13.024   0.460  0.00  0.00    +0.189 A 
ATOM     17  C   UNL     1      -1.404  13.220   0.924  0.00  0.00    +0.054 A 
ATOM     18  C   UNL     1      -1.740  14.551   0.632  0.00  0.00    +0.042 A 
ATOM     19  C   UNL     1      -0.674  15.103   0.009  0.00  0.00    +0.196 A 
ATOM     20  O   UNL     1       0.293  14.181  -0.087  0.00  0.00    -0.458 OA
ENDBRANCH  13  16
ENDBRANCH   9  12
ENDBRANCH   2   5
BRANCH   1  23
ATOM     21  C   UNL     1       2.446   3.268  -0.067  0.00  0.00    +0.267 C 
ATOM     22  O   UNL     1       3.663   3.264  -0.081  0.00  0.00    -0.268 OA
ATOM     23  N   UNL     1       1.776   4.437  -0.044  0.00  0.00    -0.230 N 
ATOM     24  H   UNL     1       0.806   4.441  -0.033  0.00  0.00    +0.173 HD
BRANCH  21  31
ATOM     25  C   UNL     1       0.534  -2.662   0.342  0.00  0.00    -0.007 C 
ATOM     26  C   UNL     1      -0.713  -2.328  -0.481  0.00  0.00    +0.009 C 
ATOM     27  C   UNL     1      -1.208  -0.931  -0.081  0.00  0.00    +0.043 C 
ATOM     28  C   UNL     1      -0.037   0.003  -0.080  0.00  0.00    -0.006 A 
ATOM     29  C   UNL     1       1.286  -0.336  -0.099  0.00  0.00    -0.036 A 
ATOM     30  C   UNL     1       2.197   0.708  -0.096  0.00  0.00    +0.024 A 
ATOM     31  C   UNL     1       1.708   2.001  -0.074  0.00  0.00    +0.076 A 
ATOM     32  S   UNL     1      -0.055   1.725  -0.058  0.00  0.00    -0.088 S 
ATOM     33  C   UNL     1       1.710  -1.802  -0.120  0.00  0.00    +0.039 C 
BRANCH  25  35
ATOM     34  C   UNL     1       2.044  -4.511   1.081  0.00  0.00    +0.004 C 
ATOM     35  C   UNL     1       0.882  -4.141   0.157  0.00  0.00    +0.000 C 
ENDBRANCH  25  35
ENDBRANCH  21  31
ENDBRANCH   1  23
TORSDOF 6
