REMARK  Name = ZINC09207489
REMARK  9 active torsions:
REMARK  status: ('A' for Active; 'I' for Inactive)
REMARK    1  A    between atoms: C_1  and  C_2
REMARK    2  A    between atoms: C_2  and  C_4
REMARK    3  A    between atoms: C_2  and  N_63
REMARK    4  A    between atoms: C_7  and  S_16
REMARK    5  A    between atoms: N_8  and  C_9
REMARK    6  A    between atoms: S_16  and  C_17
REMARK    7  A    between atoms: C_17  and  C_19
REMARK    8  A    between atoms: C_17  and  C_20
REMARK    9  A    between atoms: N_22  and  C_23
REMARK                            x       y       z     vdW  Elec       q    Type
REMARK                         _______ _______ _______ _____ _____    ______ ____
ROOT
ATOM      1  C   UNL     1      10.879  -3.694   5.122  0.00  0.00    +0.125 A 
ATOM      2  N   UNL     1      10.610  -2.419   5.130  0.00  0.00    -0.135 NA
ATOM      3  N   UNL     1       9.437  -2.212   4.647  0.00  0.00    -0.122 NA
ATOM      4  C   UNL     1       8.883  -3.354   4.311  0.00  0.00    +0.197 A 
ATOM      5  N   UNL     1       9.789  -4.338   4.600  0.00  0.00    -0.275 N 
ENDROOT
BRANCH   5   6
ATOM      6  C   UNL     1       9.633  -5.719   4.403  0.00  0.00    +0.050 A 
ATOM      7  C   UNL     1       9.604  -6.577   5.493  0.00  0.00    +0.029 A 
ATOM      8  C   UNL     1       9.445  -7.935   5.298  0.00  0.00    +0.040 A 
ATOM      9  C   UNL     1       9.327  -8.441   4.014  0.00  0.00    +0.124 A 
ATOM     10  C   UNL     1       9.361  -7.587   2.925  0.00  0.00    +0.040 A 
ATOM     11  C   UNL     1       9.515  -6.228   3.117  0.00  0.00    +0.029 A 
ATOM     12  F   UNL     1       9.177  -9.771   3.825  0.00  0.00    -0.205 F 
ENDBRANCH   5   6
BRANCH   1  14
ATOM     13  C   UNL     1      13.290  -4.003   4.632  0.00  0.00    -0.005 C 
ATOM     14  C   UNL     1      12.154  -4.340   5.600  0.00  0.00    -0.002 C 
BRANCH  14  20
ATOM     15  C   UNL     1      13.715  -4.461   7.446  0.00  0.00    -0.078 C 
ATOM     16  C   UNL     1      14.110  -3.809   8.774  0.00  0.00    -0.019 C 
ATOM     17  C   UNL     1      12.971  -3.987   9.782  0.00  0.00    -0.004 C 
ATOM     18  C   UNL     1      11.692  -3.372   9.209  0.00  0.00    -0.019 C 
ATOM     19  C   UNL     1      11.367  -4.036   7.869  0.00  0.00    -0.078 C 
ATOM     20  N   UNL     1      12.491  -3.807   6.936  0.00  0.00    +0.386 N 
ATOM     21  H   UNL     1      12.660  -2.797   6.859  0.00  0.00    -0.081 HD
ENDBRANCH  14  20
ENDBRANCH   1  14
BRANCH   4  22
ATOM     22  S   UNL     1       7.281  -3.578   3.612  0.00  0.00    -0.073 S 
BRANCH  22  23
ATOM     23  C   UNL     1       6.726  -1.856   3.542  0.00  0.00    +0.137 C 
ATOM     24  C   UNL     1       6.593  -1.305   4.962  0.00  0.00    +0.029 C 
BRANCH  23  25
ATOM     25  C   UNL     1       5.390  -1.787   2.848  0.00  0.00    +0.230 C 
ATOM     26  O   UNL     1       4.658  -2.754   2.844  0.00  0.00    -0.274 OA
ATOM     27  N   UNL     1       5.009  -0.650   2.233  0.00  0.00    -0.284 N 
ATOM     28  H   UNL     1       5.620   0.101   2.179  0.00  0.00    +0.155 HD
BRANCH  27  29
ATOM     29  C   UNL     1       3.729  -0.554   1.670  0.00  0.00    +0.037 A 
ATOM     30  C   UNL     1       3.144  -1.668   1.082  0.00  0.00    +0.027 A 
ATOM     31  C   UNL     1       1.882  -1.575   0.526  0.00  0.00    +0.051 A 
ATOM     32  C   UNL     1       1.197  -0.371   0.555  0.00  0.00    +0.166 A 
ATOM     33  C   UNL     1       1.782   0.748   1.143  0.00  0.00    +0.168 A 
ATOM     34  C   UNL     1       3.047   0.654   1.700  0.00  0.00    +0.072 A 
ATOM     35  O   UNL     1       0.915   1.798   1.043  0.00  0.00    -0.453 OA
ATOM     36  C   UNL     1      -0.368   1.210   0.754  0.00  0.00    +0.466 C 
ATOM     37  O   UNL     1      -0.037  -0.021   0.085  0.00  0.00    -0.453 OA
ENDBRANCH  27  29
ENDBRANCH  23  25
ENDBRANCH  22  23
ENDBRANCH   4  22
TORSDOF 7
