REMARK  Name = ZINC12661491
REMARK  8 active torsions:
REMARK  status: ('A' for Active; 'I' for Inactive)
REMARK    1  A    between atoms: C_1  and  C_2
REMARK    2  A    between atoms: C_10  and  O_23
REMARK    3  A    between atoms: O_23  and  C_24
REMARK    4  A    between atoms: C_24  and  C_25
REMARK    5  A    between atoms: C_26  and  C_27
REMARK    6  A    between atoms: C_34  and  O_35
REMARK    7  A    between atoms: O_35  and  C_36
REMARK    8  A    between atoms: C_42  and  N_76
REMARK                            x       y       z     vdW  Elec       q    Type
REMARK                         _______ _______ _______ _____ _____    ______ ____
ROOT
ATOM      1  O   UNL     1      -3.052   0.692   4.248  0.00  0.00    -0.480 OA
ENDROOT
BRANCH   1  10
ATOM      2  C   UNL     1      -8.113   2.061  10.796  0.00  0.00    +0.019 C 
ATOM      3  C   UNL     1      -7.985   1.929   9.277  0.00  0.00    +0.029 C 
ATOM      4  C   UNL     1      -7.440   0.557   8.935  0.00  0.00    +0.015 C 
ATOM      5  C   UNL     1      -6.151   0.387   9.724  0.00  0.00    +0.009 C 
ATOM      6  C   UNL     1      -5.134   1.481   9.427  0.00  0.00    +0.023 C 
ATOM      7  C   UNL     1      -4.587   1.321   8.035  0.00  0.00    -0.041 A 
ATOM      8  C   UNL     1      -4.367   0.029   7.571  0.00  0.00    +0.008 A 
ATOM      9  C   UNL     1      -3.862  -0.188   6.307  0.00  0.00    +0.046 A 
ATOM     10  C   UNL     1      -3.558   0.894   5.493  0.00  0.00    +0.122 A 
ATOM     11  C   UNL     1      -3.780   2.181   5.954  0.00  0.00    +0.049 A 
ATOM     12  C   UNL     1      -4.297   2.395   7.224  0.00  0.00    -0.040 A 
ATOM     13  C   UNL     1      -4.525   3.820   7.657  0.00  0.00    +0.036 C 
ATOM     14  C   UNL     1      -4.693   3.910   9.162  0.00  0.00    +0.009 C 
ATOM     15  C   UNL     1      -5.731   2.878   9.620  0.00  0.00    +0.001 C 
ATOM     16  C   UNL     1      -6.969   2.976   8.746  0.00  0.00    +0.006 C 
ATOM     17  C   UNL     1      -7.777   4.272   8.888  0.00  0.00    +0.012 C 
ATOM     18  C   UNL     1      -9.195   3.838   8.425  0.00  0.00    +0.075 C 
ATOM     19  C   UNL     1      -9.276   2.329   8.626  0.00  0.00    +0.139 C 
ATOM     20  O   UNL     1     -10.192   1.603   8.322  0.00  0.00    -0.297 OA
ENDBRANCH   1  10
BRANCH   1  21
ATOM     21  C   UNL     1      -2.851  -0.663   3.842  0.00  0.00    +0.317 C 
BRANCH  21  22
ATOM     22  C   UNL     1      -2.301  -0.690   2.477  0.00  0.00    -0.063 C 
ATOM     23  C   UNL     1      -1.863  -0.711   1.388  0.00  0.00    -0.109 C 
BRANCH  23  24
ATOM     24  C   UNL     1      -1.313  -0.738   0.023  0.00  0.00    +0.043 C 
ATOM     25  C   UNL     1       0.002  -0.004   0.002  0.00  0.00    -0.001 A 
ATOM     26  C   UNL     1       1.208  -0.673  -0.018  0.00  0.00    -0.039 A 
ATOM     27  C   UNL     1       2.396   0.041  -0.024  0.00  0.00    +0.053 A 
ATOM     28  C   UNL     1       2.385   1.426  -0.014  0.00  0.00    +0.170 A 
ATOM     29  C   UNL     1       1.171   2.104   0.002  0.00  0.00    +0.208 A 
ATOM     30  C   UNL     1      -0.017   1.387   0.010  0.00  0.00    +0.168 A 
ATOM     31  O   UNL     1       1.421   3.447   0.009  0.00  0.00    -0.449 OA
ATOM     32  C   UNL     1       2.798   3.579   0.410  0.00  0.00    +0.467 C 
ATOM     33  O   UNL     1       3.397   2.341  -0.017  0.00  0.00    -0.452 OA
ATOM     34  C   UNL     1       1.276  -2.179  -0.038  0.00  0.00    +0.017 C 
ATOM     35  C   UNL     1      -0.067  -2.768   0.393  0.00  0.00    -0.072 C 
ATOM     36  C   UNL     1      -2.390  -2.881  -0.290  0.00  0.00    -0.094 C 
ATOM     37  N   UNL     1      -1.122  -2.129  -0.421  0.00  0.00    +0.390 N 
ATOM     38  H   UNL     1      -0.832  -2.130  -1.406  0.00  0.00    -0.080 HD
BRANCH  30  39
ATOM     39  O   UNL     1      -1.206   2.047   0.019  0.00  0.00    -0.491 OA
ATOM     40  C   UNL     1      -1.767   2.355   1.296  0.00  0.00    +0.277 C 
ENDBRANCH  30  39
ENDBRANCH  23  24
ENDBRANCH  21  22
ENDBRANCH   1  21
TORSDOF 5
