REMARK  Name = ZINC16613153
REMARK  4 active torsions:
REMARK  status: ('A' for Active; 'I' for Inactive)
REMARK    1  A    between atoms: C_4  and  N_7
REMARK    2  A    between atoms: N_9  and  C_28
REMARK    3  A    between atoms: N_20  and  C_21
REMARK    4  A    between atoms: C_28  and  C_29
REMARK                            x       y       z     vdW  Elec       q    Type
REMARK                         _______ _______ _______ _____ _____    ______ ____
ROOT
ATOM      1  N   UNL     1       2.020   3.853   0.698  0.00  0.00    -0.300 N 
ATOM      2  C   UNL     1       2.908   3.957   1.878  0.00  0.00    +0.217 C 
ATOM      3  N   UNL     1       3.720   5.164   1.675  0.00  0.00    -0.275 N 
ATOM      4  C   UNL     1       3.142   5.945   0.738  0.00  0.00    +0.241 C 
ATOM      5  O   UNL     1       3.558   7.016   0.350  0.00  0.00    -0.273 OA
ATOM      6  C   UNL     1       1.889   5.257   0.253  0.00  0.00    +0.115 C 
ATOM      7  C   UNL     1       0.654   5.892   0.886  0.00  0.00    +0.054 C 
ATOM      8  C   UNL     1       0.558   7.360   0.455  0.00  0.00    +0.112 C 
ATOM      9  N   UNL     1       0.600   7.424  -1.012  0.00  0.00    -0.285 N 
ATOM     10  C   UNL     1       1.716   6.780  -1.718  0.00  0.00    +0.112 C 
ATOM     11  C   UNL     1       1.804   5.317  -1.269  0.00  0.00    +0.054 C 
ATOM     12  C   UNL     1      -0.369   8.061  -1.699  0.00  0.00    +0.307 C 
ATOM     13  O   UNL     1      -0.364   8.045  -2.915  0.00  0.00    -0.252 OA
ATOM     14  N   UNL     1      -1.344   8.717  -1.038  0.00  0.00    -0.267 N 
ATOM     15  H   UNL     1      -1.335   8.749  -0.069  0.00  0.00    +0.156 HD
ENDROOT
BRANCH  14  16
ATOM     16  C   UNL     1      -2.369   9.352  -1.751  0.00  0.00    +0.070 A 
ATOM     17  C   UNL     1      -2.186   9.681  -3.087  0.00  0.00    +0.026 A 
ATOM     18  C   UNL     1      -3.201  10.303  -3.789  0.00  0.00    +0.002 A 
ATOM     19  C   UNL     1      -4.394  10.607  -3.160  0.00  0.00    +0.003 A 
ATOM     20  C   UNL     1      -4.579  10.285  -1.828  0.00  0.00    +0.040 A 
ATOM     21  C   UNL     1      -3.570   9.658  -1.121  0.00  0.00    +0.145 A 
ATOM     22  F   UNL     1      -3.750   9.345   0.181  0.00  0.00    -0.204 F 
ENDBRANCH  14  16
BRANCH   1  26
ATOM     23  C   UNL     1      -1.686   2.276   1.754  0.00  0.00    +0.000 A 
ATOM     24  C   UNL     1      -1.473   2.733   0.466  0.00  0.00    +0.002 A 
ATOM     25  C   UNL     1      -0.245   3.258   0.113  0.00  0.00    +0.023 A 
ATOM     26  C   UNL     1       0.777   3.322   1.051  0.00  0.00    +0.032 A 
ATOM     27  C   UNL     1       0.561   2.857   2.342  0.00  0.00    +0.023 A 
ATOM     28  C   UNL     1      -0.669   2.333   2.689  0.00  0.00    +0.002 A 
ENDBRANCH   1  26
BRANCH   3  29
ATOM     29  C   UNL     1       4.965   5.473   2.381  0.00  0.00    +0.205 C 
BRANCH  29  30
ATOM     30  C   UNL     1       4.653   6.248   3.635  0.00  0.00    +0.233 C 
ATOM     31  O   UNL     1       3.503   6.516   3.912  0.00  0.00    -0.274 OA
ATOM     32  N   UNL     1       5.652   6.644   4.449  0.00  0.00    -0.296 N 
ATOM     33  C   UNL     1       7.055   6.326   4.136  0.00  0.00    +0.136 C 
ATOM     34  C   UNL     1       7.872   7.625   4.227  0.00  0.00    +0.179 C 
ATOM     35  O   UNL     1       7.629   8.244   5.492  0.00  0.00    -0.377 OA
ATOM     36  C   UNL     1       6.271   8.643   5.697  0.00  0.00    +0.179 C 
ATOM     37  C   UNL     1       5.372   7.402   5.678  0.00  0.00    +0.136 C 
ENDBRANCH  29  30
ENDBRANCH   3  29
TORSDOF 4
