REMARK  Name = ZINC63182662
REMARK  12 active torsions:
REMARK  status: ('A' for Active; 'I' for Inactive)
REMARK    1  A    between atoms: C_1  and  C_2
REMARK    2  A    between atoms: C_2  and  C_3
REMARK    3  A    between atoms: C_2  and  C_4
REMARK    4  A    between atoms: C_4  and  C_6
REMARK    5  A    between atoms: C_4  and  N_28
REMARK    6  A    between atoms: N_8  and  C_9
REMARK    7  A    between atoms: C_9  and  C_10
REMARK    8  A    between atoms: C_10  and  C_12
REMARK    9  A    between atoms: C_10  and  C_19
REMARK   10  A    between atoms: C_29  and  C_31
REMARK   11  A    between atoms: C_31  and  O_32
REMARK   12  A    between atoms: O_32  and  C_33
REMARK                            x       y       z     vdW  Elec       q    Type
REMARK                         _______ _______ _______ _____ _____    ______ ____
ROOT
ATOM      1  C   UNL     1      -1.242  -2.056   0.094  0.00  0.00    +0.234 C 
ATOM      2  O   UNL     1      -1.650  -2.818  -0.757  0.00  0.00    -0.274 OA
ATOM      3  N   UNL     1      -0.710  -2.540   1.233  0.00  0.00    -0.313 N 
ATOM      4  H   UNL     1      -0.318  -1.934   1.881  0.00  0.00    +0.149 HD
ENDROOT
BRANCH   1   5
ATOM      5  C   UNL     1      -1.332  -0.567  -0.123  0.00  0.00    +0.161 C 
BRANCH   5   6
ATOM      6  N   UNL     1      -2.352  -0.281  -1.135  0.00  0.00    -0.301 N 
ATOM      7  C   UNL     1      -2.970   0.916  -1.149  0.00  0.00    +0.251 C 
ATOM      8  O   UNL     1      -2.681   1.758  -0.325  0.00  0.00    -0.272 OA
ATOM      9  H   UNL     1      -2.584  -0.955  -1.794  0.00  0.00    +0.150 HD
BRANCH   7  10
ATOM     10  C   UNL     1      -4.020   1.210  -2.189  0.00  0.00    +0.324 C 
BRANCH  10  11
ATOM     11  O   UNL     1      -4.523   2.534  -1.998  0.00  0.00    -0.483 OA
BRANCH  11  12
ATOM     12  C   UNL     1      -5.484   2.959  -2.860  0.00  0.00    +0.121 A 
ATOM     13  C   UNL     1      -5.938   2.118  -3.865  0.00  0.00    +0.045 A 
ATOM     14  C   UNL     1      -6.916   2.552  -4.739  0.00  0.00    +0.004 A 
ATOM     15  C   UNL     1      -7.441   3.825  -4.613  0.00  0.00    +0.000 A 
ATOM     16  C   UNL     1      -6.990   4.666  -3.612  0.00  0.00    +0.004 A 
ATOM     17  C   UNL     1      -6.017   4.234  -2.732  0.00  0.00    +0.045 A 
ENDBRANCH  11  12
ENDBRANCH  10  11
ENDBRANCH   7  10
ENDBRANCH   5   6
BRANCH   5  19
ATOM     18  C   UNL     1       0.336  -0.618  -1.983  0.00  0.00    +0.009 C 
ATOM     19  C   UNL     1       0.022  -0.039  -0.602  0.00  0.00    +0.012 C 
ATOM     20  C   UNL     1      -0.027   1.488  -0.688  0.00  0.00    +0.009 C 
ENDBRANCH   5  19
ENDBRANCH   1   5
BRANCH   3  21
ATOM     21  C   UNL     1      -0.722  -3.982   1.493  0.00  0.00    +0.116 C 
BRANCH  21  22
ATOM     22  C   UNL     1      -0.061  -4.262   2.844  0.00  0.00    +0.066 C 
BRANCH  22  23
ATOM     23  C   UNL     1       0.037  -5.751   3.056  0.00  0.00    -0.033 C 
ATOM     24  C   UNL     1       1.165  -6.473   3.243  0.00  0.00    -0.000 A 
ATOM     25  C   UNL     1       2.584  -6.104   3.302  0.00  0.00    +0.010 A 
ATOM     26  C   UNL     1       3.506  -7.072   3.506  0.00  0.00    +0.001 A 
ATOM     27  C   UNL     1       3.142  -8.416   3.662  0.00  0.00    +0.002 A 
ATOM     28  C   UNL     1       1.858  -8.833   3.620  0.00  0.00    +0.026 A 
ATOM     29  C   UNL     1       0.806  -7.900   3.411  0.00  0.00    +0.043 A 
ATOM     30  N   UNL     1      -0.494  -8.053   3.331  0.00  0.00    -0.380 N 
ATOM     31  C   UNL     1      -1.107  -6.739   3.109  0.00  0.00    +0.145 C 
ATOM     32  H   UNL     1      -0.970  -8.894   3.410  0.00  0.00    +0.160 HD
ENDBRANCH  22  23
BRANCH  22  33
ATOM     33  C   UNL     1      -0.889  -3.651   3.945  0.00  0.00    -0.020 A 
ATOM     34  C   UNL     1      -2.199  -4.054   4.130  0.00  0.00    +0.006 A 
ATOM     35  C   UNL     1      -2.958  -3.494   5.140  0.00  0.00    +0.000 A 
ATOM     36  C   UNL     1      -2.409  -2.530   5.966  0.00  0.00    +0.001 A 
ATOM     37  C   UNL     1      -1.100  -2.127   5.782  0.00  0.00    +0.020 A 
ATOM     38  C   UNL     1      -0.337  -2.692   4.775  0.00  0.00    +0.045 A 
ATOM     39 CL   UNL     1       1.310  -2.191   4.548  0.00  0.00    -0.083 Cl
ENDBRANCH  22  33
ENDBRANCH  21  22
ENDBRANCH   3  21
TORSDOF 10
