REMARK  Name = ZINC63938146
REMARK  6 active torsions:
REMARK  status: ('A' for Active; 'I' for Inactive)
REMARK    1  A    between atoms: C_4  and  C_7
REMARK    2  A    between atoms: C_9  and  C_24
REMARK    3  A    between atoms: N_12  and  C_16
REMARK    4  A    between atoms: C_13  and  N_15
REMARK    5  A    between atoms: C_24  and  S_25
REMARK    6  A    between atoms: S_25  and  C_26
REMARK                            x       y       z     vdW  Elec       q    Type
REMARK                         _______ _______ _______ _____ _____    ______ ____
ROOT
ATOM      1  C   UNL     1       3.711  -0.707  -0.038  0.00  0.00    +0.042 C 
ATOM      2  C   UNL     1       3.808  -1.707   1.146  0.00  0.00    +0.090 C 
ATOM      3  N   UNL     1       4.722  -2.741   0.597  0.00  0.00    -0.237 NA
ATOM      4  N   UNL     1       4.397  -2.905  -0.725  0.00  0.00    -0.278 N 
ATOM      5  C   UNL     1       3.796  -1.667  -1.249  0.00  0.00    +0.040 C 
ATOM      6  H   UNL     1       4.631  -3.610   1.102  0.00  0.00    +0.145 HD
ENDROOT
BRANCH   4   7
ATOM      7  C   UNL     1       4.605  -4.074  -1.466  0.00  0.00    +0.078 A 
ATOM      8  C   UNL     1       3.546  -4.671  -2.135  0.00  0.00    +0.030 A 
ATOM      9  C   UNL     1       3.754  -5.825  -2.867  0.00  0.00    +0.040 A 
ATOM     10  C   UNL     1       5.018  -6.387  -2.932  0.00  0.00    +0.126 A 
ATOM     11  C   UNL     1       6.077  -5.794  -2.266  0.00  0.00    +0.078 A 
ATOM     12  C   UNL     1       5.875  -4.636  -1.538  0.00  0.00    +0.148 A 
ATOM     13  F   UNL     1       6.910  -4.054  -0.893  0.00  0.00    -0.203 F 
ATOM     14  F   UNL     1       5.217  -7.515  -3.648  0.00  0.00    -0.205 F 
ENDBRANCH   4   7
BRANCH   1  18
ATOM     15  C   UNL     1      -0.017   1.378   0.010  0.00  0.00    +0.000 A 
ATOM     16  C   UNL     1       1.171   2.086   0.002  0.00  0.00    +0.000 A 
ATOM     17  C   UNL     1       2.377   1.411  -0.013  0.00  0.00    +0.004 A 
ATOM     18  C   UNL     1       2.396   0.029  -0.020  0.00  0.00    -0.043 A 
ATOM     19  C   UNL     1       1.208  -0.679  -0.012  0.00  0.00    +0.004 A 
ATOM     20  C   UNL     1       0.002  -0.004   0.002  0.00  0.00    +0.000 A 
ENDBRANCH   1  18
BRANCH   5  21
ATOM     21  N   UNL     1       4.651  -1.089  -2.296  0.00  0.00    +0.392 N 
ATOM     22  H   UNL     1       5.578  -0.939  -1.928  0.00  0.00    -0.087 HD
ATOM     23  H   UNL     1       4.698  -1.724  -3.079  0.00  0.00    -0.087 HD
ATOM     24  H   UNL     1       4.262  -0.209  -2.599  0.00  0.00    -0.087 HD
ENDBRANCH   5  21
BRANCH   2  25
ATOM     25  C   UNL     1       4.416  -1.038   2.381  0.00  0.00    +0.093 C 
BRANCH  25  26
ATOM     26  S   UNL     1       4.509  -2.240   3.736  0.00  0.00    -0.113 S 
BRANCH  26  27
ATOM     27  C   UNL     1       5.242  -1.302   5.105  0.00  0.00    +0.235 C 
ATOM     28  N   UNL     1       4.425  -0.117   5.398  0.00  0.00    -0.355 N 
ATOM     29  C   UNL     1       5.175   0.930   5.211  0.00  0.00    +0.061 A 
ATOM     30  C   UNL     1       4.927   2.373   5.341  0.00  0.00    +0.027 A 
ATOM     31  C   UNL     1       5.919   3.245   5.074  0.00  0.00    +0.002 A 
ATOM     32  C   UNL     1       7.202   2.834   4.670  0.00  0.00    +0.002 A 
ATOM     33  C   UNL     1       7.535   1.537   4.520  0.00  0.00    +0.027 A 
ATOM     34  C   UNL     1       6.532   0.495   4.782  0.00  0.00    +0.061 A 
ATOM     35  N   UNL     1       6.569  -0.805   4.721  0.00  0.00    -0.355 N 
ATOM     36  H   UNL     1       3.497  -0.115   5.679  0.00  0.00    +0.162 HD
ATOM     37  H   UNL     1       7.334  -1.346   4.469  0.00  0.00    +0.162 HD
ENDBRANCH  26  27
ENDBRANCH  25  26
ENDBRANCH   2  25
TORSDOF 6
