REMARK  Name = ZINC09728997
REMARK  8 active torsions:
REMARK  status: ('A' for Active; 'I' for Inactive)
REMARK    1  A    between atoms: C_3  and  C_6
REMARK    2  A    between atoms: C_6  and  N_56
REMARK    3  A    between atoms: C_7  and  C_8
REMARK    4  A    between atoms: C_7  and  N_56
REMARK    5  A    between atoms: C_14  and  C_15
REMARK    6  A    between atoms: C_14  and  N_56
REMARK    7  A    between atoms: N_17  and  C_18
REMARK    8  A    between atoms: C_19  and  C_27
REMARK                            x       y       z     vdW  Elec       q    Type
REMARK                         _______ _______ _______ _____ _____    ______ ____
ROOT
ATOM      1  C   UNL     1       1.234  -2.666   0.097  0.00  0.00    +0.201 C 
ATOM      2  O   UNL     1       0.050  -2.892  -0.036  0.00  0.00    -0.278 OA
ATOM      3  N   UNL     1       1.665  -1.398   0.250  0.00  0.00    -0.281 N 
ATOM      4  H   UNL     1       2.612  -1.217   0.356  0.00  0.00    +0.155 HD
ENDROOT
BRANCH   3   5
ATOM      5  C   UNL     1       0.754  -0.352   0.255  0.00  0.00    +0.084 A 
ATOM      6  C   UNL     1       1.001   1.006   0.398  0.00  0.00    +0.068 A 
ATOM      7  C   UNL     1      -0.141   1.903   0.369  0.00  0.00    -0.023 A 
ATOM      8  C   UNL     1      -1.340   1.303   0.202  0.00  0.00    -0.004 A 
ATOM      9  S   UNL     1      -0.969  -0.424   0.085  0.00  0.00    -0.077 S 
ATOM     10  C   UNL     1      -2.681   1.966   0.139  0.00  0.00    +0.043 C 
ATOM     11  C   UNL     1      -2.536   3.403   0.657  0.00  0.00    +0.005 C 
ATOM     12  C   UNL     1      -1.322   4.052  -0.015  0.00  0.00    +0.005 C 
ATOM     13  C   UNL     1      -0.035   3.416   0.512  0.00  0.00    +0.037 C 
BRANCH   6  14
ATOM     14  C   UNL     1       2.365   1.516   0.572  0.00  0.00    +0.244 C 
ATOM     15  O   UNL     1       3.030   1.820  -0.401  0.00  0.00    -0.270 OA
ATOM     16  N   UNL     1       2.881   1.649   1.810  0.00  0.00    -0.325 N 
ATOM     17  H   UNL     1       2.352   1.407   2.585  0.00  0.00    +0.145 HD
ATOM     18  H   UNL     1       3.784   1.987   1.925  0.00  0.00    +0.145 HD
ENDBRANCH   6  14
ENDBRANCH   3   5
BRANCH   1  19
ATOM     19  C   UNL     1       2.224  -3.802   0.091  0.00  0.00    +0.019 C 
BRANCH  19  20
ATOM     20  N   UNL     1       1.493  -5.071  -0.112  0.00  0.00    +0.390 N 
ATOM     21  H   UNL     1       0.891  -4.979  -0.939  0.00  0.00    -0.081 HD
BRANCH  20  22
ATOM     22  C   UNL     1       2.449  -6.175  -0.334  0.00  0.00    -0.035 C 
BRANCH  22  25
ATOM     23  C   UNL     1       0.586  -8.906  -2.227  0.00  0.00    +0.008 A 
ATOM     24  C   UNL     1       1.279  -7.724  -2.041  0.00  0.00    +0.009 A 
ATOM     25  C   UNL     1       1.688  -7.393  -0.791  0.00  0.00    -0.027 A 
ATOM     26  S   UNL     1       1.097  -8.776   0.170  0.00  0.00    -0.103 S 
ATOM     27  C   UNL     1       0.337  -9.698  -1.156  0.00  0.00    +0.045 A 
ENDBRANCH  22  25
ENDBRANCH  20  22
BRANCH  20  28
ATOM     28  C   UNL     1       0.649  -5.362   1.066  0.00  0.00    -0.046 C 
BRANCH  28  29
ATOM     29  C   UNL     1       1.519  -5.608   2.301  0.00  0.00    +0.102 C 
ATOM     30  C   UNL     1       0.650  -6.090   3.483  0.00  0.00    +0.032 C 
ATOM     31  C   UNL     1       1.288  -5.414   4.718  0.00  0.00    +0.030 C 
ATOM     32  C   UNL     1       2.467  -4.604   4.135  0.00  0.00    +0.160 C 
ATOM     33  O   UNL     1       2.108  -4.370   2.756  0.00  0.00    -0.378 OA
ENDBRANCH  28  29
ENDBRANCH  20  28
ENDBRANCH  19  20
ENDBRANCH   1  19
TORSDOF 8
