REMARK  Name = ZINC16916963
REMARK  9 active torsions:
REMARK  status: ('A' for Active; 'I' for Inactive)
REMARK    1  A    between atoms: C_1  and  C_2
REMARK    2  A    between atoms: C_5  and  N_8
REMARK    3  A    between atoms: N_8  and  C_9
REMARK    4  A    between atoms: C_9  and  C_10
REMARK    5  A    between atoms: C_10  and  C_29
REMARK    6  A    between atoms: N_11  and  N_12
REMARK    7  A    between atoms: N_12  and  C_13
REMARK    8  A    between atoms: C_19  and  C_21
REMARK    9  A    between atoms: C_21  and  C_23
REMARK                            x       y       z     vdW  Elec       q    Type
REMARK                         _______ _______ _______ _____ _____    ______ ____
ROOT
ATOM      1  C   UNL     1       0.611   3.600  -0.383  0.00  0.00    +0.084 C 
ATOM      2  N   UNL     1       0.942   2.415   0.033  0.00  0.00    -0.175 NA
ENDROOT
BRANCH   1   3
ATOM      3  C   UNL     1       1.652   4.616  -0.621  0.00  0.00    -0.001 A 
ATOM      4  C   UNL     1       1.299   5.890  -1.074  0.00  0.00    +0.010 A 
ATOM      5  C   UNL     1       2.279   6.837  -1.291  0.00  0.00    +0.001 A 
ATOM      6  C   UNL     1       3.608   6.524  -1.069  0.00  0.00    +0.000 A 
ATOM      7  C   UNL     1       3.965   5.263  -0.625  0.00  0.00    +0.001 A 
ATOM      8  C   UNL     1       2.997   4.308  -0.400  0.00  0.00    +0.010 A 
ENDBRANCH   1   3
BRANCH   2   9
ATOM      9  N   UNL     1      -0.051   1.474   0.333  0.00  0.00    -0.154 N 
ATOM     10  C   UNL     1      -0.151   0.344  -0.394  0.00  0.00    +0.311 C 
ATOM     11  O   UNL     1      -0.959  -0.508  -0.085  0.00  0.00    -0.264 OA
BRANCH   9  12
ATOM     12  C   UNL     1      -0.944   1.711   1.383  0.00  0.00    +0.060 A 
ATOM     13  C   UNL     1      -0.475   2.192   2.599  0.00  0.00    +0.025 A 
ATOM     14  C   UNL     1      -1.360   2.429   3.632  0.00  0.00    +0.002 A 
ATOM     15  C   UNL     1      -2.709   2.178   3.461  0.00  0.00    +0.000 A 
ATOM     16  C   UNL     1      -3.178   1.694   2.253  0.00  0.00    +0.002 A 
ATOM     17  C   UNL     1      -2.300   1.459   1.214  0.00  0.00    +0.025 A 
ENDBRANCH   9  12
BRANCH  10  18
ATOM     18  C   UNL     1       0.730   0.139  -1.577  0.00  0.00    +0.249 C 
ATOM     19  O   UNL     1       1.470   1.029  -1.944  0.00  0.00    -0.282 OA
BRANCH  18  20
ATOM     20  C   UNL     1       0.705  -1.145  -2.302  0.00  0.00    +0.027 A 
ATOM     21  C   UNL     1      -0.229  -2.127  -1.960  0.00  0.00    +0.012 A 
ATOM     22  C   UNL     1      -0.251  -3.322  -2.646  0.00  0.00    +0.001 A 
ATOM     23  C   UNL     1       0.657  -3.556  -3.665  0.00  0.00    +0.000 A 
ATOM     24  C   UNL     1       1.589  -2.591  -4.006  0.00  0.00    +0.001 A 
ATOM     25  C   UNL     1       1.619  -1.388  -3.333  0.00  0.00    +0.012 A 
ENDBRANCH  18  20
ENDBRANCH  10  18
ENDBRANCH   2   9
BRANCH   1  26
ATOM     26  C   UNL     1      -0.839   3.936  -0.623  0.00  0.00    +0.159 C 
BRANCH  26  27
ATOM     27  N   UNL     1      -1.198   3.596  -2.002  0.00  0.00    -0.338 N 
ATOM     28  H   UNL     1      -0.551   3.159  -2.578  0.00  0.00    +0.146 HD
BRANCH  27  33
ATOM     29  C   UNL     1      -6.369   4.833  -3.974  0.00  0.00    +0.044 C 
ATOM     30  C   UNL     1      -4.994   4.504  -3.450  0.00  0.00    -0.050 A 
ATOM     31  C   UNL     1      -4.110   3.787  -4.235  0.00  0.00    +0.005 A 
ATOM     32  C   UNL     1      -2.850   3.484  -3.758  0.00  0.00    +0.023 A 
ATOM     33  C   UNL     1      -2.471   3.901  -2.488  0.00  0.00    +0.027 A 
ATOM     34  C   UNL     1      -3.364   4.616  -1.700  0.00  0.00    +0.023 A 
ATOM     35  C   UNL     1      -4.621   4.920  -2.185  0.00  0.00    +0.005 A 
ENDBRANCH  27  33
ENDBRANCH  26  27
ENDBRANCH   1  26
TORSDOF 8
