REMARK  Name = ZINC14805383
REMARK  8 active torsions:
REMARK  status: ('A' for Active; 'I' for Inactive)
REMARK    1  A    between atoms: C_4  and  N_24
REMARK    2  A    between atoms: C_5  and  C_7
REMARK    3  A    between atoms: N_9  and  N_10
REMARK    4  A    between atoms: C_11  and  C_13
REMARK    5  A    between atoms: C_13  and  C_14
REMARK    6  A    between atoms: C_14  and  C_15
REMARK    7  A    between atoms: N_24  and  S_25
REMARK    8  A    between atoms: S_25  and  C_28
REMARK                            x       y       z     vdW  Elec       q    Type
REMARK                         _______ _______ _______ _____ _____    ______ ____
ROOT
ATOM      1  C   UNL     1      -0.636   1.273  -5.980  0.00  0.00    +0.262 C 
ATOM      2  O   UNL     1      -1.534   2.070  -6.172  0.00  0.00    -0.269 OA
ATOM      3  N   UNL     1      -0.299   0.927  -4.722  0.00  0.00    -0.230 N 
ATOM      4  H   UNL     1       0.417   0.291  -4.569  0.00  0.00    +0.173 HD
ENDROOT
BRANCH   1   9
ATOM      5  C   UNL     1       1.786  -0.778  -7.982  0.00  0.00    +0.001 A 
ATOM      6  C   UNL     1       1.441  -0.424  -9.277  0.00  0.00    +0.002 A 
ATOM      7  C   UNL     1       0.423   0.479  -9.506  0.00  0.00    +0.025 A 
ATOM      8  C   UNL     1      -0.263   1.041  -8.436  0.00  0.00    +0.060 A 
ATOM      9  C   UNL     1       0.084   0.684  -7.124  0.00  0.00    +0.060 A 
ATOM     10  C   UNL     1       1.120  -0.228  -6.909  0.00  0.00    +0.015 A 
BRANCH   8  11
ATOM     11  N   UNL     1      -1.288   1.950  -8.665  0.00  0.00    -0.215 N 
ATOM     12  H   UNL     1      -1.419   2.695  -8.057  0.00  0.00    +0.174 HD
BRANCH  11  13
ATOM     13  S   UNL     1      -2.285   1.763  -9.974  0.00  0.00    +0.079 S 
ATOM     14  O   UNL     1      -3.298   2.753  -9.858  0.00  0.00    -0.149 OA
ATOM     15  O   UNL     1      -1.443   1.664 -11.114  0.00  0.00    -0.149 OA
BRANCH  13  16
ATOM     16  C   UNL     1      -3.084   0.202  -9.801  0.00  0.00    +0.146 A 
ATOM     17  C   UNL     1      -4.255  -0.094  -9.186  0.00  0.00    +0.036 A 
ATOM     18  C   UNL     1      -4.693  -1.405  -9.174  0.00  0.00    +0.010 A 
ATOM     19  C   UNL     1      -3.939  -2.356  -9.778  0.00  0.00    +0.047 A 
ATOM     20  S   UNL     1      -2.565  -1.399 -10.397  0.00  0.00    -0.077 S 
ENDBRANCH  13  16
ENDBRANCH  11  13
ENDBRANCH   8  11
ENDBRANCH   1   9
BRANCH   3  21
ATOM     21  N   UNL     1      -0.984   1.487  -3.635  0.00  0.00    -0.234 N 
ATOM     22  C   UNL     1      -0.647   1.141  -2.377  0.00  0.00    +0.229 C 
ATOM     23  O   UNL     1       0.249   0.346  -2.185  0.00  0.00    -0.274 OA
ATOM     24  H   UNL     1      -1.700   2.123  -3.788  0.00  0.00    +0.173 HD
BRANCH  22  25
ATOM     25  C   UNL     1      -1.383   1.743  -1.207  0.00  0.00    +0.104 C 
BRANCH  25  26
ATOM     26  C   UNL     1      -0.809   1.187   0.098  0.00  0.00    +0.072 C 
BRANCH  26  27
ATOM     27  C   UNL     1      -1.545   1.788   1.267  0.00  0.00    +0.080 A 
ATOM     28  N   UNL     1      -2.615   1.344   1.864  0.00  0.00    -0.244 NA
ATOM     29  C   UNL     1      -3.179   1.983   2.910  0.00  0.00    +0.078 A 
ATOM     30  C   UNL     1      -4.327   1.631   3.655  0.00  0.00    +0.029 A 
ATOM     31  C   UNL     1      -4.750   2.408   4.688  0.00  0.00    +0.002 A 
ATOM     32  C   UNL     1      -4.078   3.567   5.050  0.00  0.00    +0.001 A 
ATOM     33  C   UNL     1      -2.950   3.947   4.346  0.00  0.00    +0.017 A 
ATOM     34  C   UNL     1      -2.515   3.168   3.300  0.00  0.00    +0.039 A 
ATOM     35  S   UNL     1      -1.167   3.237   2.147  0.00  0.00    -0.072 S 
ENDBRANCH  26  27
ENDBRANCH  25  26
ENDBRANCH  22  25
ENDBRANCH   3  21
TORSDOF 8
