REMARK  Name = ZINC35797746
REMARK  8 active torsions:
REMARK  status: ('A' for Active; 'I' for Inactive)
REMARK    1  A    between atoms: C_1  and  S_2
REMARK    2  A    between atoms: S_2  and  N_5
REMARK    3  A    between atoms: N_5  and  C_6
REMARK    4  A    between atoms: C_6  and  C_7
REMARK    5  A    between atoms: C_7  and  N_8
REMARK    6  A    between atoms: N_8  and  C_9
REMARK    7  A    between atoms: C_9  and  C_10
REMARK    8  A    between atoms: N_12  and  C_13
REMARK                            x       y       z     vdW  Elec       q    Type
REMARK                         _______ _______ _______ _____ _____    ______ ____
ROOT
ATOM      1  C   UNL     1       4.776  -1.276  -4.016  0.00  0.00    +0.015 C 
ENDROOT
BRANCH   1   2
ATOM      2  C   UNL     1       6.226  -0.908  -4.197  0.00  0.00    +0.200 C 
ATOM      3  O   UNL     1       6.742  -0.094  -3.460  0.00  0.00    -0.278 OA
ATOM      4  N   UNL     1       6.949  -1.482  -5.178  0.00  0.00    -0.286 N 
ATOM      5  H   UNL     1       6.556  -2.180  -5.726  0.00  0.00    +0.155 HD
BRANCH   4   6
ATOM      6  C   UNL     1       8.268  -1.073  -5.407  0.00  0.00    +0.047 A 
ATOM      7  C   UNL     1       9.072  -0.688  -4.343  0.00  0.00    +0.024 A 
ATOM      8  C   UNL     1      10.373  -0.285  -4.572  0.00  0.00    +0.002 A 
ATOM      9  C   UNL     1      10.875  -0.263  -5.860  0.00  0.00    +0.001 A 
ATOM     10  C   UNL     1      10.077  -0.645  -6.923  0.00  0.00    +0.017 A 
ATOM     11  C   UNL     1       8.777  -1.055  -6.700  0.00  0.00    +0.039 A 
ATOM     12 BR   UNL     1       7.689  -1.585  -8.153  0.00  0.00    -0.048 Br
ENDBRANCH   4   6
ENDBRANCH   1   2
BRANCH   1  13
ATOM     13  N   UNL     1       4.215  -0.518  -2.889  0.00  0.00    +0.386 N 
ATOM     14  H   UNL     1       4.290   0.470  -3.077  0.00  0.00    -0.085 HD
ATOM     15  H   UNL     1       4.726  -0.740  -2.047  0.00  0.00    -0.085 HD
BRANCH  13  16
ATOM     16  C   UNL     1       2.802  -0.877  -2.712  0.00  0.00    -0.065 C 
BRANCH  16  17
ATOM     17  C   UNL     1       2.219  -0.088  -1.538  0.00  0.00    +0.086 C 
BRANCH  17  18
ATOM     18  N   UNL     1       0.809  -0.446  -1.361  0.00  0.00    -0.197 NA
ATOM     19  H   UNL     1       0.337  -0.919  -2.064  0.00  0.00    +0.148 HD
BRANCH  18  21
ATOM     20  C   UNL     1      -0.013   1.770   0.049  0.00  0.00    +0.214 C 
ATOM     21  S   UNL     1       0.021  -0.043   0.039  0.00  0.00    +0.026 S 
ATOM     22  O   UNL     1       0.863  -0.522   1.079  0.00  0.00    -0.158 OA
ATOM     23  O   UNL     1      -1.294  -0.557  -0.124  0.00  0.00    -0.158 OA
ENDBRANCH  18  21
ENDBRANCH  17  18
ENDBRANCH  16  17
ENDBRANCH  13  16
ENDBRANCH   1  13
TORSDOF 7
