REMARK  Name = ZINC27017230
REMARK  6 active torsions:
REMARK  status: ('A' for Active; 'I' for Inactive)
REMARK    1  A    between atoms: C_4  and  C_7
REMARK    2  A    between atoms: C_7  and  C_9
REMARK    3  A    between atoms: C_12  and  C_13
REMARK    4  A    between atoms: C_16  and  C_18
REMARK    5  A    between atoms: C_30  and  C_31
REMARK    6  A    between atoms: C_30  and  O_35
REMARK                            x       y       z     vdW  Elec       q    Type
REMARK                         _______ _______ _______ _____ _____    ______ ____
ROOT
ATOM      1  C   UNL     1       3.716  -2.186  -0.046  0.00  0.00    +0.164 C 
ATOM      2  C   UNL     1       3.638  -2.710   1.374  0.00  0.00    +0.031 C 
ATOM      3  C   UNL     1       2.535  -3.317   1.835  0.00  0.00    +0.066 C 
ATOM      4  N   UNL     1       4.761  -2.533   2.180  0.00  0.00    -0.272 N 
ATOM      5  C   UNL     1       5.964  -2.366   1.602  0.00  0.00    +0.306 C 
ATOM      6  O   UNL     1       6.935  -2.186   2.312  0.00  0.00    -0.252 OA
ATOM      7  N   UNL     1       6.133  -2.392   0.273  0.00  0.00    -0.263 N 
ATOM      8  C   UNL     1       5.036  -2.682  -0.652  0.00  0.00    +0.246 C 
ATOM      9  H   UNL     1       4.675  -2.530   3.147  0.00  0.00    +0.156 HD
ATOM     10  H   UNL     1       7.014  -2.211  -0.089  0.00  0.00    +0.153 HD
ENDROOT
BRANCH   3  11
ATOM     11  C   UNL     1       2.493  -3.812   3.215  0.00  0.00    +0.130 A 
ATOM     12  C   UNL     1       1.438  -4.451   3.804  0.00  0.00    +0.050 A 
ATOM     13  C   UNL     1       1.824  -4.748   5.120  0.00  0.00    +0.050 A 
ATOM     14  C   UNL     1       3.093  -4.279   5.278  0.00  0.00    +0.136 A 
ATOM     15  O   UNL     1       3.490  -3.720   4.117  0.00  0.00    -0.455 OA
BRANCH  14  16
ATOM     16  C   UNL     1       3.899  -4.372   6.511  0.00  0.00    +0.019 A 
ATOM     17  C   UNL     1       3.373  -4.989   7.649  0.00  0.00    +0.013 A 
ATOM     18  C   UNL     1       4.131  -5.073   8.798  0.00  0.00    +0.022 A 
ATOM     19  C   UNL     1       5.412  -4.548   8.825  0.00  0.00    +0.059 A 
ATOM     20  C   UNL     1       5.941  -3.935   7.701  0.00  0.00    +0.060 A 
ATOM     21  C   UNL     1       5.194  -3.849   6.543  0.00  0.00    +0.033 A 
ATOM     22 CL   UNL     1       7.548  -3.279   7.746  0.00  0.00    -0.082 Cl
ATOM     23 CL   UNL     1       6.360  -4.659  10.276  0.00  0.00    -0.082 Cl
ENDBRANCH  14  16
ENDBRANCH   3  11
BRANCH   8  24
ATOM     24  C   UNL     1       4.954  -4.191  -0.888  0.00  0.00    +0.437 C 
ATOM     25  F   UNL     1       3.904  -4.469  -1.769  0.00  0.00    -0.166 F 
ATOM     26  F   UNL     1       6.158  -4.643  -1.440  0.00  0.00    -0.166 F 
ATOM     27  F   UNL     1       4.726  -4.842   0.329  0.00  0.00    -0.166 F 
ENDBRANCH   8  24
BRANCH   1  28
ATOM     28  C   UNL     1       3.691  -0.679  -0.038  0.00  0.00    +0.176 C 
ATOM     29  O   UNL     1       4.731  -0.056  -0.045  0.00  0.00    -0.291 OA
BRANCH  28  33
ATOM     30  C   UNL     1      -0.017   1.380   0.010  0.00  0.00    +0.000 A 
ATOM     31  C   UNL     1       1.168   2.095   0.002  0.00  0.00    +0.001 A 
ATOM     32  C   UNL     1       2.377   1.433  -0.013  0.00  0.00    +0.011 A 
ATOM     33  C   UNL     1       2.405   0.035  -0.021  0.00  0.00    +0.018 A 
ATOM     34  C   UNL     1       1.203  -0.681  -0.013  0.00  0.00    +0.011 A 
ATOM     35  C   UNL     1       0.002  -0.004   0.002  0.00  0.00    +0.001 A 
ENDBRANCH  28  33
ENDBRANCH   1  28
BRANCH   8  36
ATOM     36  O   UNL     1       5.269  -2.017  -1.895  0.00  0.00    -0.364 OA
ATOM     37  H   UNL     1       6.089  -2.282  -2.335  0.00  0.00    +0.212 HD
ENDBRANCH   8  36
TORSDOF 6
