REMARK  Name = ZINC13564686
REMARK  5 active torsions:
REMARK  status: ('A' for Active; 'I' for Inactive)
REMARK    1  A    between atoms: C_1  and  C_2
REMARK    2  A    between atoms: C_5  and  C_20
REMARK    3  A    between atoms: N_11  and  C_13
REMARK    4  A    between atoms: C_20  and  N_48
REMARK    5  A    between atoms: C_21  and  N_48
REMARK                            x       y       z     vdW  Elec       q    Type
REMARK                         _______ _______ _______ _____ _____    ______ ____
ROOT
ATOM      1  C   UNL     1       1.173   3.195   5.270  0.00  0.00    +0.068 C 
ATOM      2  C   UNL     1      -0.255   3.142   4.793  0.00  0.00    +0.070 A 
ATOM      3  C   UNL     1      -0.685   2.732   3.509  0.00  0.00    +0.040 A 
ATOM      4  C   UNL     1      -0.005   2.278   2.356  0.00  0.00    +0.020 A 
ATOM      5  C   UNL     1      -0.723   1.951   1.250  0.00  0.00    +0.001 A 
ATOM      6  C   UNL     1      -2.125   2.071   1.260  0.00  0.00    +0.252 A 
ATOM      7  O   UNL     1      -2.762   1.781   0.261  0.00  0.00    -0.268 OA
ATOM      8  N   UNL     1      -2.773   2.499   2.360  0.00  0.00    -0.307 N 
ATOM      9  H   UNL     1      -3.740   2.572   2.351  0.00  0.00    +0.170 HD
ATOM     10  C   UNL     1      -2.078   2.835   3.490  0.00  0.00    +0.145 A 
ATOM     11  N   UNL     1      -2.456   3.289   4.714  0.00  0.00    -0.216 N 
ATOM     12  N   UNL     1      -1.306   3.467   5.492  0.00  0.00    -0.169 NA
ENDROOT
BRANCH  11  13
ATOM     13  C   UNL     1      -3.772   3.536   5.127  0.00  0.00    +0.068 A 
ATOM     14  C   UNL     1      -4.703   4.033   4.225  0.00  0.00    +0.029 A 
ATOM     15  C   UNL     1      -6.001   4.270   4.633  0.00  0.00    +0.022 A 
ATOM     16  C   UNL     1      -6.372   4.022   5.943  0.00  0.00    +0.041 A 
ATOM     17  C   UNL     1      -5.445   3.532   6.846  0.00  0.00    +0.022 A 
ATOM     18  C   UNL     1      -4.147   3.288   6.441  0.00  0.00    +0.029 A 
ATOM     19 CL   UNL     1      -8.002   4.328   6.455  0.00  0.00    -0.084 Cl
ENDBRANCH  11  13
BRANCH   5  20
ATOM     20  C   UNL     1      -0.018   1.465   0.010  0.00  0.00    -0.041 C 
BRANCH  20  21
ATOM     21  N   UNL     1      -0.002  -0.010   0.010  0.00  0.00    +0.384 N 
ATOM     22  H   UNL     1      -0.968  -0.359   0.021  0.00  0.00    -0.085 HD
ATOM     23  H   UNL     1       0.492  -0.344   0.845  0.00  0.00    -0.085 HD
BRANCH  21  24
ATOM     24  C   UNL     1       0.683  -0.515  -1.195  0.00  0.00    -0.071 C 
ATOM     25  C   UNL     1      -0.310  -0.587  -2.356  0.00  0.00    -0.016 C 
ATOM     26  C   UNL     1       0.399  -1.119  -3.603  0.00  0.00    -0.002 C 
ATOM     27  C   UNL     1       0.953  -2.517  -3.317  0.00  0.00    -0.000 C 
ATOM     28  C   UNL     1       1.947  -2.444  -2.156  0.00  0.00    -0.002 C 
ATOM     29  C   UNL     1       1.237  -1.912  -0.910  0.00  0.00    -0.016 C 
ENDBRANCH  21  24
ENDBRANCH  20  21
ENDBRANCH   5  20
TORSDOF 4
