REMARK  Name = ZINC39534385
REMARK  11 active torsions:
REMARK  status: ('A' for Active; 'I' for Inactive)
REMARK    1  A    between atoms: C_1  and  C_2
REMARK    2  A    between atoms: C_2  and  O_3
REMARK    3  A    between atoms: O_3  and  C_4
REMARK    4  A    between atoms: N_7  and  C_11
REMARK    5  A    between atoms: C_11  and  C_13
REMARK    6  A    between atoms: C_11  and  C_16
REMARK    7  A    between atoms: C_13  and  N_14
REMARK    8  A    between atoms: N_14  and  O_15
REMARK    9  A    between atoms: C_19  and  S_22
REMARK   10  A    between atoms: S_22  and  O_25
REMARK   11  A    between atoms: O_25  and  C_26
REMARK                            x       y       z     vdW  Elec       q    Type
REMARK                         _______ _______ _______ _____ _____    ______ ____
ROOT
ATOM      1  C   UNL     1      -4.327  -4.206  -0.707  0.00  0.00    -0.021 C 
ENDROOT
BRANCH   1   4
ATOM      2  C   UNL     1      -0.915  -2.709  -0.251  0.00  0.00    +0.169 C 
ATOM      3  C   UNL     1      -2.436  -2.760  -0.414  0.00  0.00    -0.030 C 
ATOM      4  N   UNL     1      -2.869  -4.158  -0.532  0.00  0.00    +0.388 N 
ATOM      5  C   UNL     1      -2.498  -4.892   0.685  0.00  0.00    -0.062 C 
ATOM      6  C   UNL     1      -0.978  -4.858   0.858  0.00  0.00    +0.065 C 
ATOM      7  N   UNL     1      -0.528  -3.462   0.950  0.00  0.00    -0.295 NA
ATOM      8  H   UNL     1       0.468  -3.412   1.103  0.00  0.00    +0.124 HD
ATOM      9  H   UNL     1      -2.421  -4.583  -1.330  0.00  0.00    -0.081 HD
BRANCH   2  10
ATOM     10  O   UNL     1      -0.495  -1.349  -0.117  0.00  0.00    -0.364 OA
BRANCH  10  12
ATOM     11  C   UNL     1       1.243   0.330  -0.130  0.00  0.00    +0.034 C 
ATOM     12  C   UNL     1       0.909  -1.154  -0.295  0.00  0.00    +0.158 C 
ENDBRANCH  10  12
ENDBRANCH   2  10
ENDBRANCH   1   4
BRANCH   1  13
ATOM     13  C   UNL     1      -4.790  -5.640  -0.674  0.00  0.00    -0.060 A 
ATOM     14  C   UNL     1      -4.041  -6.622  -1.293  0.00  0.00    +0.004 A 
ATOM     15  C   UNL     1      -4.466  -7.938  -1.263  0.00  0.00    +0.031 A 
ATOM     16  C   UNL     1      -5.639  -8.270  -0.613  0.00  0.00    +0.128 A 
ATOM     17  C   UNL     1      -6.388  -7.287   0.007  0.00  0.00    +0.031 A 
ATOM     18  C   UNL     1      -5.961  -5.973  -0.019  0.00  0.00    +0.004 A 
BRANCH  16  19
ATOM     19  S   UNL     1      -6.182  -9.946  -0.575  0.00  0.00    +0.151 S 
ATOM     20  O   UNL     1      -7.588  -9.913  -0.372  0.00  0.00    -0.131 OA
ATOM     21  O   UNL     1      -5.588 -10.590  -1.694  0.00  0.00    -0.131 OA
BRANCH  19  22
ATOM     22  O   UNL     1      -5.577 -10.587   0.666  0.00  0.00    -0.342 OA
BRANCH  22  23
ATOM     23  C   UNL     1      -6.178 -10.215   1.828  0.00  0.00    +0.157 A 
ATOM     24  C   UNL     1      -5.723  -9.103   2.520  0.00  0.00    +0.048 A 
ATOM     25  C   UNL     1      -6.335  -8.727   3.700  0.00  0.00    +0.004 A 
ATOM     26  C   UNL     1      -7.400  -9.460   4.191  0.00  0.00    +0.000 A 
ATOM     27  C   UNL     1      -7.855 -10.569   3.503  0.00  0.00    +0.004 A 
ATOM     28  C   UNL     1      -7.250 -10.945   2.319  0.00  0.00    +0.048 A 
ENDBRANCH  22  23
ENDBRANCH  19  22
ENDBRANCH  16  19
ENDBRANCH   1  13
BRANCH   1  29
ATOM     29  C   UNL     1      -4.699  -3.580  -2.052  0.00  0.00    +0.100 C 
BRANCH  29  30
ATOM     30  N   UNL     1      -4.401  -2.142  -2.023  0.00  0.00    -0.205 NA
ATOM     31  H   UNL     1      -4.874  -1.690  -1.255  0.00  0.00    +0.153 HD
BRANCH  30  32
ATOM     32  O   UNL     1      -4.746  -1.509  -3.296  0.00  0.00    -0.315 OA
ATOM     33  H   UNL     1      -4.566  -0.560  -3.325  0.00  0.00    +0.236 HD
ENDBRANCH  30  32
ENDBRANCH  29  30
ENDBRANCH   1  29
TORSDOF 10
