REMARK  Name = ZINC67400514
REMARK  7 active torsions:
REMARK  status: ('A' for Active; 'I' for Inactive)
REMARK    1  A    between atoms: C_1  and  C_2
REMARK    2  A    between atoms: C_2  and  C_4
REMARK    3  A    between atoms: C_2  and  N_14
REMARK    4  A    between atoms: N_6  and  C_7
REMARK    5  A    between atoms: C_17  and  C_20
REMARK    6  A    between atoms: C_20  and  C_22
REMARK    7  A    between atoms: C_20  and  O_29
REMARK                            x       y       z     vdW  Elec       q    Type
REMARK                         _______ _______ _______ _____ _____    ______ ____
ROOT
ATOM      1  N   UNL     1       0.765  -0.595  -1.102  0.00  0.00    +0.387 N 
ATOM      2  C   UNL     1       2.172  -0.177  -1.063  0.00  0.00    -0.077 C 
ATOM      3  C   UNL     1       2.914  -0.757  -2.269  0.00  0.00    -0.012 C 
ATOM      4  C   UNL     1       2.832  -2.285  -2.225  0.00  0.00    +0.019 C 
ATOM      5  C   UNL     1       1.360  -2.707  -2.192  0.00  0.00    -0.012 C 
ATOM      6  C   UNL     1       0.676  -2.055  -0.989  0.00  0.00    -0.077 C 
ATOM      7  H   UNL     1       0.354  -0.300  -1.975  0.00  0.00    -0.081 HD
ENDROOT
BRANCH   1   9
ATOM      8  C   UNL     1       0.246   1.543  -0.025  0.00  0.00    -0.004 C 
ATOM      9  C   UNL     1       0.040   0.027   0.014  0.00  0.00    +0.016 C 
BRANCH   9  10
ATOM     10  C   UNL     1      -1.430  -0.283  -0.108  0.00  0.00    +0.203 C 
ATOM     11  O   UNL     1      -1.869  -0.742  -1.141  0.00  0.00    -0.277 OA
ATOM     12  N   UNL     1      -2.256  -0.050   0.931  0.00  0.00    -0.285 N 
ATOM     13  H   UNL     1      -1.920   0.387   1.730  0.00  0.00    +0.155 HD
BRANCH  12  14
ATOM     14  C   UNL     1      -3.599  -0.439   0.859  0.00  0.00    +0.069 A 
ATOM     15  C   UNL     1      -4.271  -0.397  -0.355  0.00  0.00    +0.026 A 
ATOM     16  C   UNL     1      -5.596  -0.781  -0.423  0.00  0.00    +0.002 A 
ATOM     17  C   UNL     1      -6.255  -1.207   0.715  0.00  0.00    +0.003 A 
ATOM     18  C   UNL     1      -5.590  -1.251   1.927  0.00  0.00    +0.040 A 
ATOM     19  C   UNL     1      -4.261  -0.873   2.002  0.00  0.00    +0.144 A 
ATOM     20  F   UNL     1      -3.610  -0.921   3.185  0.00  0.00    -0.204 F 
ENDBRANCH  12  14
ENDBRANCH   9  10
ENDBRANCH   1   9
BRANCH   4  21
ATOM     21  C   UNL     1       3.504  -2.869  -3.470  0.00  0.00    +0.147 C 
BRANCH  21  22
ATOM     22  C   UNL     1       3.422  -4.374  -3.426  0.00  0.00    -0.019 A 
ATOM     23  C   UNL     1       4.310  -5.091  -2.646  0.00  0.00    +0.007 A 
ATOM     24  C   UNL     1       4.236  -6.471  -2.605  0.00  0.00    +0.020 A 
ATOM     25  C   UNL     1       3.272  -7.133  -3.345  0.00  0.00    +0.041 A 
ATOM     26  C   UNL     1       2.384  -6.415  -4.125  0.00  0.00    +0.020 A 
ATOM     27  C   UNL     1       2.456  -5.035  -4.161  0.00  0.00    +0.007 A 
ATOM     28 CL   UNL     1       3.179  -8.866  -3.294  0.00  0.00    -0.084 Cl
ENDBRANCH  21  22
BRANCH  21  29
ATOM     29  O   UNL     1       4.875  -2.467  -3.505  0.00  0.00    -0.387 OA
ATOM     30  H   UNL     1       5.389  -2.759  -2.739  0.00  0.00    +0.210 HD
ENDBRANCH  21  29
ENDBRANCH   4  21
TORSDOF 6
