REMARK  Name = ZINC63801465
REMARK  8 active torsions:
REMARK  status: ('A' for Active; 'I' for Inactive)
REMARK    1  A    between atoms: C_1  and  C_2
REMARK    2  A    between atoms: N_4  and  C_5
REMARK    3  A    between atoms: C_5  and  C_7
REMARK    4  A    between atoms: C_5  and  C_17
REMARK    5  A    between atoms: C_7  and  C_8
REMARK    6  A    between atoms: N_19  and  C_20
REMARK    7  A    between atoms: C_27  and  S_30
REMARK    8  A    between atoms: S_30  and  C_31
REMARK                            x       y       z     vdW  Elec       q    Type
REMARK                         _______ _______ _______ _____ _____    ______ ____
ROOT
ATOM      1  C   UNL     1       0.015  -2.134  -1.183  0.00  0.00    +0.163 C 
ENDROOT
BRANCH   1   5
ATOM      2  C   UNL     1      -0.020   1.503   0.011  0.00  0.00    +0.109 C 
ATOM      3  C   UNL     1       0.002  -0.004   0.000  0.00  0.00    +0.211 C 
ATOM      4  O   UNL     1       0.026  -0.617   1.046  0.00  0.00    -0.276 OA
ATOM      5  N   UNL     1      -0.006  -0.669  -1.172  0.00  0.00    -0.304 N 
ATOM      6  H   UNL     1      -0.025  -0.178  -2.008  0.00  0.00    +0.149 HD
ENDBRANCH   1   5
BRANCH   1   7
ATOM      7  C   UNL     1      -1.197  -2.659  -0.458  0.00  0.00    +0.238 C 
ATOM      8  O   UNL     1      -1.796  -1.945   0.318  0.00  0.00    -0.273 OA
ATOM      9  N   UNL     1      -1.615  -3.923  -0.671  0.00  0.00    -0.284 N 
ATOM     10  H   UNL     1      -1.177  -4.472  -1.341  0.00  0.00    +0.155 HD
BRANCH   9  11
ATOM     11  C   UNL     1      -2.681  -4.443   0.074  0.00  0.00    +0.035 A 
ATOM     12  C   UNL     1      -3.743  -3.631   0.451  0.00  0.00    +0.025 A 
ATOM     13  C   UNL     1      -4.794  -4.133   1.181  0.00  0.00    +0.026 A 
ATOM     14  C   UNL     1      -4.833  -5.483   1.573  0.00  0.00    +0.042 A 
ATOM     15  C   UNL     1      -3.751  -6.277   1.180  0.00  0.00    +0.033 A 
ATOM     16  C   UNL     1      -2.698  -5.783   0.444  0.00  0.00    +0.040 A 
ATOM     17  S   UNL     1      -4.106  -7.897   1.823  0.00  0.00    -0.090 S 
ATOM     18  C   UNL     1      -5.713  -7.512   2.626  0.00  0.00    +0.192 C 
ATOM     19  N   UNL     1      -5.853  -6.084   2.313  0.00  0.00    -0.323 N 
ATOM     20  H   UNL     1      -6.625  -5.577   2.610  0.00  0.00    +0.148 HD
BRANCH  18  21
ATOM     21  S   UNL     1      -5.630  -7.785   4.417  0.00  0.00    -0.131 S 
ATOM     22  C   UNL     1      -4.295  -6.687   4.966  0.00  0.00    +0.087 C 
ENDBRANCH  18  21
ENDBRANCH   9  11
ENDBRANCH   1   7
BRANCH   1  23
ATOM     23  C   UNL     1       1.283  -2.631  -0.484  0.00  0.00    +0.065 C 
BRANCH  23  24
ATOM     24  C   UNL     1       2.492  -2.209  -1.277  0.00  0.00    -0.039 C 
ATOM     25  C   UNL     1       3.253  -1.109  -1.076  0.00  0.00    -0.001 A 
ATOM     26  C   UNL     1       3.185  -0.018  -0.097  0.00  0.00    +0.010 A 
ATOM     27  C   UNL     1       4.109   0.968  -0.148  0.00  0.00    +0.001 A 
ATOM     28  C   UNL     1       5.128   0.974  -1.110  0.00  0.00    +0.002 A 
ATOM     29  C   UNL     1       5.257   0.006  -2.042  0.00  0.00    +0.026 A 
ATOM     30  C   UNL     1       4.340  -1.080  -2.082  0.00  0.00    +0.043 A 
ATOM     31  N   UNL     1       4.253  -2.121  -2.873  0.00  0.00    -0.380 N 
ATOM     32  C   UNL     1       3.105  -2.933  -2.455  0.00  0.00    +0.144 C 
ATOM     33  H   UNL     1       4.851  -2.323  -3.610  0.00  0.00    +0.160 HD
ENDBRANCH  23  24
ENDBRANCH   1  23
TORSDOF 6
