REMARK  Name = ZINC39771597
REMARK  8 active torsions:
REMARK  status: ('A' for Active; 'I' for Inactive)
REMARK    1  A    between atoms: C_1  and  C_2
REMARK    2  A    between atoms: C_5  and  S_8
REMARK    3  A    between atoms: S_8  and  N_11
REMARK    4  A    between atoms: N_11  and  C_12
REMARK    5  A    between atoms: C_14  and  C_34
REMARK    6  A    between atoms: C_15  and  O_33
REMARK    7  A    between atoms: C_16  and  S_18
REMARK    8  A    between atoms: S_18  and  C_19
REMARK                            x       y       z     vdW  Elec       q    Type
REMARK                         _______ _______ _______ _____ _____    ______ ____
ROOT
ATOM      1  C   UNL     1       3.056  -4.322   1.178  0.00  0.00    +0.050 A 
ATOM      2  C   UNL     1       4.349  -3.814   1.213  0.00  0.00    +0.031 A 
ATOM      3  C   UNL     1       4.997  -3.650   2.422  0.00  0.00    -0.006 A 
ATOM      4  C   UNL     1       4.360  -3.992   3.604  0.00  0.00    +0.134 A 
ATOM      5  C   UNL     1       3.063  -4.501   3.574  0.00  0.00    +0.059 A 
ATOM      6  C   UNL     1       2.411  -4.660   2.359  0.00  0.00    +0.043 A 
ATOM      7  C   UNL     1       6.399  -3.099   2.456  0.00  0.00    +0.047 C 
ENDROOT
BRANCH   1   8
ATOM      8  N   UNL     1       2.402  -4.487  -0.048  0.00  0.00    -0.216 N 
ATOM      9  H   UNL     1       2.870  -4.889  -0.797  0.00  0.00    +0.174 HD
BRANCH   8  10
ATOM     10  S   UNL     1       0.830  -3.996  -0.220  0.00  0.00    +0.072 S 
ATOM     11  O   UNL     1       0.115  -4.528   0.887  0.00  0.00    -0.150 OA
ATOM     12  O   UNL     1       0.464  -4.269  -1.566  0.00  0.00    -0.150 OA
BRANCH  10  17
ATOM     13  C   UNL     1       0.752   2.005   0.402  0.00  0.00    +0.044 C 
ATOM     14  C   UNL     1       0.772   0.506   0.247  0.00  0.00    -0.050 A 
ATOM     15  C   UNL     1       0.950  -0.057  -1.003  0.00  0.00    +0.005 A 
ATOM     16  C   UNL     1       0.968  -1.432  -1.146  0.00  0.00    +0.029 A 
ATOM     17  C   UNL     1       0.808  -2.244  -0.038  0.00  0.00    +0.109 A 
ATOM     18  C   UNL     1       0.631  -1.681   1.212  0.00  0.00    +0.029 A 
ATOM     19  C   UNL     1       0.618  -0.306   1.355  0.00  0.00    +0.005 A 
ENDBRANCH  10  17
ENDBRANCH   8  10
ENDBRANCH   1   8
BRANCH   4  20
ATOM     20  O   UNL     1       5.000  -3.830   4.794  0.00  0.00    -0.505 OA
ATOM     21  H   UNL     1       4.862  -2.963   5.200  0.00  0.00    +0.292 HD
ENDBRANCH   4  20
BRANCH   5  22
ATOM     22  S   UNL     1       2.251  -4.937   5.075  0.00  0.00    -0.045 S 
BRANCH  22  23
ATOM     23  C   UNL     1       2.981  -6.476   5.524  0.00  0.00    +0.212 C 
ATOM     24  N   UNL     1       3.831  -7.024   4.688  0.00  0.00    -0.227 NA
ATOM     25  C   UNL     1       4.372  -8.337   5.031  0.00  0.00    +0.252 C 
ATOM     26  C   UNL     1       4.366  -8.419   6.551  0.00  0.00    +0.117 C 
ATOM     27  C   UNL     1       5.610  -8.850   6.899  0.00  0.00    +0.025 A 
ATOM     28  C   UNL     1       6.176  -9.218   8.145  0.00  0.00    +0.012 A 
ATOM     29  C   UNL     1       7.481  -9.597   8.152  0.00  0.00    +0.001 A 
ATOM     30  C   UNL     1       8.292  -9.645   7.013  0.00  0.00    +0.002 A 
ATOM     31  C   UNL     1       7.854  -9.320   5.767  0.00  0.00    +0.026 A 
ATOM     32  C   UNL     1       6.446  -8.904   5.661  0.00  0.00    +0.046 A 
ATOM     33  N   UNL     1       5.751  -8.560   4.620  0.00  0.00    -0.358 N 
ATOM     34  N   UNL     1       3.326  -7.975   7.265  0.00  0.00    -0.147 NA
ATOM     35  N   UNL     1       2.637  -7.024   6.715  0.00  0.00    -0.122 NA
ATOM     36  H   UNL     1       6.093  -8.466   3.718  0.00  0.00    +0.162 HD
ENDBRANCH  22  23
ENDBRANCH   5  22
TORSDOF 6
