REMARK  Name = ZINC05945294
REMARK  12 active torsions:
REMARK  status: ('A' for Active; 'I' for Inactive)
REMARK    1  A    between atoms: C_1  and  C_2
REMARK    2  A    between atoms: C_2  and  C_29
REMARK    3  A    between atoms: C_4  and  N_10
REMARK    4  A    between atoms: C_6  and  C_8
REMARK    5  A    between atoms: C_6  and  C_9
REMARK    6  A    between atoms: N_10  and  C_11
REMARK    7  A    between atoms: N_10  and  C_20
REMARK    8  A    between atoms: C_11  and  C_12
REMARK    9  A    between atoms: C_15  and  O_18
REMARK   10  A    between atoms: O_18  and  C_19
REMARK   11  A    between atoms: C_20  and  N_22
REMARK   12  A    between atoms: N_22  and  C_23
REMARK                            x       y       z     vdW  Elec       q    Type
REMARK                         _______ _______ _______ _____ _____    ______ ____
ROOT
ATOM      1  N   UNL     1      -2.854  -2.433   0.201  0.00  0.00    -0.305 N 
ENDROOT
BRANCH   1   5
ATOM      2  C   UNL     1       1.829  -3.908   0.257  0.00  0.00    -0.010 C 
ATOM      3  C   UNL     1       0.934  -2.646   0.242  0.00  0.00    -0.072 C 
ATOM      4  C   UNL     1      -0.512  -3.112   0.369  0.00  0.00    +0.009 C 
ATOM      5  C   UNL     1      -1.471  -1.951   0.103  0.00  0.00    +0.073 C 
ATOM      6  C   UNL     1      -1.216  -1.437  -1.314  0.00  0.00    +0.009 C 
ATOM      7  C   UNL     1       0.226  -0.959  -1.454  0.00  0.00    -0.072 C 
ATOM      8  N   UNL     1       1.202  -1.930  -0.993  0.00  0.00    +0.386 N 
ATOM      9  C   UNL     1       0.397   0.385  -0.738  0.00  0.00    -0.010 C 
ATOM     10  C   UNL     1       0.485  -0.707  -2.957  0.00  0.00    -0.010 C 
ATOM     11  C   UNL     1       1.319  -1.808   1.466  0.00  0.00    -0.010 C 
ATOM     12  H   UNL     1       2.107  -1.458  -0.901  0.00  0.00    -0.084 HD
ATOM     13  H   UNL     1       1.343  -2.620  -1.739  0.00  0.00    -0.084 HD
ENDBRANCH   1   5
BRANCH   1  14
ATOM     14  C   UNL     1      -3.652  -1.994   1.194  0.00  0.00    +0.138 C 
ATOM     15  S   UNL     1      -5.233  -2.628   1.365  0.00  0.00    -0.018 S 
BRANCH  14  16
ATOM     16  N   UNL     1      -3.206  -1.056   2.053  0.00  0.00    -0.296 N 
ATOM     17  H   UNL     1      -2.892  -1.315   2.933  0.00  0.00    +0.154 HD
BRANCH  16  18
ATOM     18  C   UNL     1      -3.195   0.291   1.673  0.00  0.00    +0.051 A 
ATOM     19  C   UNL     1      -2.630   1.255   2.505  0.00  0.00    +0.026 A 
ATOM     20  C   UNL     1      -2.643   2.575   2.086  0.00  0.00    +0.021 A 
ATOM     21  C   UNL     1      -3.212   2.890   0.866  0.00  0.00    +0.111 A 
ATOM     22  N   UNL     1      -3.739   1.954   0.101  0.00  0.00    -0.261 NA
ATOM     23  C   UNL     1      -3.742   0.685   0.460  0.00  0.00    +0.134 A 
ENDBRANCH  16  18
ENDBRANCH  14  16
ENDBRANCH   1  14
BRANCH   1  24
ATOM     24  C   UNL     1      -3.367  -3.392  -0.781  0.00  0.00    +0.142 C 
BRANCH  24  25
ATOM     25  C   UNL     1      -3.166  -4.794  -0.266  0.00  0.00    -0.030 A 
ATOM     26  C   UNL     1      -2.065  -5.527  -0.670  0.00  0.00    +0.009 A 
ATOM     27  C   UNL     1      -1.879  -6.812  -0.200  0.00  0.00    +0.046 A 
ATOM     28  C   UNL     1      -2.798  -7.368   0.678  0.00  0.00    +0.120 A 
ATOM     29  C   UNL     1      -3.901  -6.631   1.083  0.00  0.00    +0.046 A 
ATOM     30  C   UNL     1      -4.080  -5.344   0.614  0.00  0.00    +0.009 A 
BRANCH  28  31
ATOM     31  O   UNL     1      -2.617  -8.633   1.142  0.00  0.00    -0.495 OA
ATOM     32  C   UNL     1      -3.603  -9.140   2.043  0.00  0.00    +0.277 C 
ENDBRANCH  28  31
ENDBRANCH  24  25
ENDBRANCH   1  24
TORSDOF 7
