REMARK  Name = ZINC03991824
REMARK  10 active torsions:
REMARK  status: ('A' for Active; 'I' for Inactive)
REMARK    1  A    between atoms: C_1  and  C_2
REMARK    2  A    between atoms: C_6  and  C_38
REMARK    3  A    between atoms: C_7  and  N_8
REMARK    4  A    between atoms: N_8  and  S_9
REMARK    5  A    between atoms: S_9  and  C_12
REMARK    6  A    between atoms: C_25  and  C_27
REMARK    7  A    between atoms: C_25  and  C_28
REMARK    8  A    between atoms: C_31  and  C_34
REMARK    9  A    between atoms: C_34  and  O_36
REMARK   10  A    between atoms: O_36  and  C_37
REMARK                            x       y       z     vdW  Elec       q    Type
REMARK                         _______ _______ _______ _____ _____    ______ ____
ROOT
ATOM      1  C   UNL     1      -1.332   2.488  -1.374  0.00  0.00    +0.109 A 
ATOM      2  C   UNL     1      -2.374   1.871  -2.042  0.00  0.00    +0.030 A 
ATOM      3  C   UNL     1      -3.126   2.591  -2.949  0.00  0.00    +0.025 A 
ATOM      4  C   UNL     1      -2.827   3.925  -3.197  0.00  0.00    +0.032 A 
ATOM      5  C   UNL     1      -1.778   4.545  -2.536  0.00  0.00    -0.018 A 
ATOM      6  C   UNL     1      -1.034   3.813  -1.621  0.00  0.00    +0.034 A 
ATOM      7  C   UNL     1      -1.415   5.976  -2.775  0.00  0.00    +0.049 C 
ATOM      8  C   UNL     1      -1.858   6.857  -1.631  0.00  0.00    -0.023 C 
ATOM      9  C   UNL     1      -2.258   8.021  -2.082  0.00  0.00    -0.030 C 
ATOM     10  C   UNL     1      -2.130   8.077  -3.592  0.00  0.00    +0.033 C 
ATOM     11  C   UNL     1      -2.117   6.576  -4.009  0.00  0.00    +0.031 C 
ATOM     12  C   UNL     1      -3.573   6.105  -4.061  0.00  0.00    +0.058 C 
ATOM     13  N   UNL     1      -3.596   4.640  -4.121  0.00  0.00    -0.334 N 
ATOM     14  C   UNL     1      -4.310   6.578  -2.806  0.00  0.00    +0.037 C 
ATOM     15  H   UNL     1      -4.132   4.178  -4.785  0.00  0.00    +0.147 HD
ENDROOT
BRANCH  12  16
ATOM     16  C   UNL     1      -4.244   6.674  -5.284  0.00  0.00    -0.024 A 
ATOM     17  C   UNL     1      -4.883   7.899  -5.213  0.00  0.00    +0.006 A 
ATOM     18  C   UNL     1      -5.494   8.428  -6.330  0.00  0.00    +0.015 A 
ATOM     19  C   UNL     1      -5.478   7.719  -7.533  0.00  0.00    +0.059 A 
ATOM     20  C   UNL     1      -4.837   6.480  -7.596  0.00  0.00    +0.015 A 
ATOM     21  C   UNL     1      -4.224   5.965  -6.473  0.00  0.00    +0.006 A 
BRANCH  19  22
ATOM     22  C   UNL     1      -6.137   8.276  -8.732  0.00  0.00    +0.339 C 
ATOM     23  O   UNL     1      -6.121   7.656  -9.777  0.00  0.00    -0.245 OA
BRANCH  22  24
ATOM     24  O   UNL     1      -6.754   9.471  -8.667  0.00  0.00    -0.464 OA
ATOM     25  C   UNL     1      -7.380   9.956  -9.884  0.00  0.00    +0.280 C 
ENDBRANCH  22  24
ENDBRANCH  19  22
ENDBRANCH  12  16
BRANCH   1  26
ATOM     26  S   UNL     1      -0.375   1.577  -0.208  0.00  0.00    +0.072 S 
ATOM     27  O   UNL     1      -0.604   0.201  -0.482  0.00  0.00    -0.150 OA
ATOM     28  O   UNL     1       0.925   2.148  -0.214  0.00  0.00    -0.150 OA
BRANCH  26  29
ATOM     29  N   UNL     1      -1.016   1.874   1.290  0.00  0.00    -0.216 N 
ATOM     30  H   UNL     1      -0.512   2.388   1.940  0.00  0.00    +0.174 HD
BRANCH  29  37
ATOM     31  C   UNL     1      -3.188   3.710   1.368  0.00  0.00    +0.046 C 
ATOM     32  C   UNL     1      -3.371   2.245   1.668  0.00  0.00    -0.028 A 
ATOM     33  C   UNL     1      -4.622   1.756   1.988  0.00  0.00    +0.005 A 
ATOM     34  C   UNL     1      -4.790   0.412   2.268  0.00  0.00    +0.001 A 
ATOM     35  C   UNL     1      -3.708  -0.447   2.225  0.00  0.00    +0.005 A 
ATOM     36  C   UNL     1      -2.454   0.034   1.901  0.00  0.00    -0.028 A 
ATOM     37  C   UNL     1      -2.282   1.383   1.618  0.00  0.00    +0.054 A 
ATOM     38  C   UNL     1      -1.275  -0.903   1.854  0.00  0.00    +0.046 C 
ENDBRANCH  29  37
ENDBRANCH  26  29
ENDBRANCH   1  26
TORSDOF 6
