REMARK  Name = ZINC19691242
REMARK  11 active torsions:
REMARK  status: ('A' for Active; 'I' for Inactive)
REMARK    1  A    between atoms: C_1  and  C_2
REMARK    2  A    between atoms: C_2  and  N_3
REMARK    3  A    between atoms: N_6  and  C_9
REMARK    4  A    between atoms: C_9  and  C_10
REMARK    5  A    between atoms: C_11  and  O_35
REMARK    6  A    between atoms: C_17  and  C_31
REMARK    7  A    between atoms: C_18  and  O_21
REMARK    8  A    between atoms: O_21  and  C_22
REMARK    9  A    between atoms: C_27  and  C_28
REMARK   10  A    between atoms: C_28  and  C_29
REMARK   11  A    between atoms: C_28  and  C_30
REMARK                            x       y       z     vdW  Elec       q    Type
REMARK                         _______ _______ _______ _____ _____    ______ ____
ROOT
ATOM      1  C   UNL     1       3.524  -3.558  -4.056  0.00  0.00    +0.051 A 
ATOM      2  C   UNL     1       4.715  -3.972  -3.483  0.00  0.00    +0.125 A 
ATOM      3  C   UNL     1       4.992  -5.329  -3.326  0.00  0.00    +0.046 A 
ATOM      4  C   UNL     1       4.091  -6.270  -3.736  0.00  0.00    +0.019 A 
ATOM      5  C   UNL     1       2.886  -5.869  -4.315  0.00  0.00    +0.068 A 
ATOM      6  C   UNL     1       2.595  -4.502  -4.472  0.00  0.00    +0.147 A 
ATOM      7  O   UNL     1       1.426  -4.125  -5.028  0.00  0.00    -0.447 OA
ATOM      8  C   UNL     1       0.510  -5.011  -5.441  0.00  0.00    +0.254 A 
ATOM      9  C   UNL     1       0.683  -6.343  -5.333  0.00  0.00    +0.222 A 
ATOM     10  C   UNL     1       1.888  -6.852  -4.770  0.00  0.00    +0.235 A 
ATOM     11  O   UNL     1       2.080  -8.051  -4.657  0.00  0.00    -0.283 OA
ENDROOT
BRANCH   8  12
ATOM     12  C   UNL     1      -0.769  -4.496  -6.050  0.00  0.00    +0.454 C 
ATOM     13  F   UNL     1      -1.522  -5.572  -6.532  0.00  0.00    -0.163 F 
ATOM     14  F   UNL     1      -1.505  -3.809  -5.079  0.00  0.00    -0.163 F 
ATOM     15  F   UNL     1      -0.466  -3.629  -7.106  0.00  0.00    -0.163 F 
ENDBRANCH   8  12
BRANCH   2  16
ATOM     16  O   UNL     1       5.620  -3.049  -3.071  0.00  0.00    -0.506 OA
ATOM     17  H   UNL     1       5.504  -2.766  -2.154  0.00  0.00    +0.292 HD
ENDBRANCH   2  16
BRANCH   1  18
ATOM     18  C   UNL     1       3.235  -2.088  -4.221  0.00  0.00    +0.126 C 
BRANCH  18  22
ATOM     19  N   UNL     1       0.463  -0.218  -1.635  0.00  0.00    +0.381 N 
ATOM     20  C   UNL     1       1.805   0.367  -1.748  0.00  0.00    -0.063 C 
ATOM     21  C   UNL     1       2.467  -0.118  -3.040  0.00  0.00    +0.066 C 
ATOM     22  N   UNL     1       2.553  -1.585  -3.021  0.00  0.00    -0.301 NA
ATOM     23  C   UNL     1       1.219  -2.185  -2.883  0.00  0.00    +0.066 C 
ATOM     24  C   UNL     1       0.568  -1.683  -1.593  0.00  0.00    -0.063 C 
ATOM     25  H   UNL     1      -0.091   0.056  -2.432  0.00  0.00    -0.082 HD
BRANCH  19  27
ATOM     26  C   UNL     1      -0.401   1.774  -0.502  0.00  0.00    -0.017 C 
ATOM     27  C   UNL     1      -0.178   0.263  -0.404  0.00  0.00    -0.082 C 
ENDBRANCH  19  27
ENDBRANCH  18  22
ENDBRANCH   1  18
BRANCH   9  28
ATOM     28  O   UNL     1      -0.283  -7.197  -5.769  0.00  0.00    -0.448 OA
BRANCH  28  29
ATOM     29  C   UNL     1      -0.938  -7.946  -4.843  0.00  0.00    +0.132 A 
ATOM     30  C   UNL     1      -0.697  -7.746  -3.491  0.00  0.00    +0.046 A 
ATOM     31  C   UNL     1      -1.363  -8.509  -2.552  0.00  0.00    +0.004 A 
ATOM     32  C   UNL     1      -2.270  -9.471  -2.958  0.00  0.00    +0.001 A 
ATOM     33  C   UNL     1      -2.511  -9.673  -4.304  0.00  0.00    +0.007 A 
ATOM     34  C   UNL     1      -1.851  -8.909  -5.247  0.00  0.00    -0.003 A 
BRANCH  34  35
ATOM     35  C   UNL     1      -2.120  -9.124  -6.714  0.00  0.00    +0.016 C 
ATOM     36  C   UNL     1      -1.771 -10.566  -7.090  0.00  0.00    +0.012 C 
ATOM     37  C   UNL     1      -3.599  -8.865  -7.006  0.00  0.00    +0.012 C 
ENDBRANCH  34  35
ENDBRANCH  28  29
ENDBRANCH   9  28
TORSDOF 8
