REMARK  Name = ZINC03312392
REMARK  9 active torsions:
REMARK  status: ('A' for Active; 'I' for Inactive)
REMARK    1  A    between atoms: C_1  and  C_2
REMARK    2  A    between atoms: C_9  and  C_11
REMARK    3  A    between atoms: C_14  and  N_17
REMARK    4  A    between atoms: C_18  and  C_20
REMARK    5  A    between atoms: C_20  and  O_21
REMARK    6  A    between atoms: O_21  and  C_22
REMARK    7  A    between atoms: C_22  and  C_24
REMARK    8  A    between atoms: C_25  and  C_26
REMARK    9  A    between atoms: C_29  and  N_32
REMARK                            x       y       z     vdW  Elec       q    Type
REMARK                         _______ _______ _______ _____ _____    ______ ____
ROOT
ATOM      1  N   UNL     1      -0.011   0.966   0.007  0.00  0.00    -0.283 N 
ATOM      2  C   UNL     1       1.114   1.708   0.008  0.00  0.00    +0.255 C 
ATOM      3  O   UNL     1       1.042   2.917  -0.072  0.00  0.00    -0.272 OA
ATOM      4  H   UNL     1       0.047  -0.002   0.004  0.00  0.00    +0.155 HD
ENDROOT
BRANCH   1   8
ATOM      5  C   UNL     1      -3.739   2.829   0.003  0.00  0.00    +0.007 A 
ATOM      6  C   UNL     1      -2.671   3.400  -0.691  0.00  0.00    +0.012 A 
ATOM      7  C   UNL     1      -1.440   2.782  -0.688  0.00  0.00    +0.024 A 
ATOM      8  C   UNL     1      -1.260   1.590   0.006  0.00  0.00    +0.034 A 
ATOM      9  C   UNL     1      -2.324   1.016   0.694  0.00  0.00    +0.024 A 
ATOM     10  C   UNL     1      -3.556   1.633   0.700  0.00  0.00    +0.012 A 
BRANCH   5  19
ATOM     11  C   UNL     1     -10.796   6.285   0.040  0.00  0.00    +0.044 C 
ATOM     12  C   UNL     1      -9.361   5.862  -0.144  0.00  0.00    -0.049 A 
ATOM     13  C   UNL     1      -8.494   6.635  -0.903  0.00  0.00    +0.005 A 
ATOM     14  C   UNL     1      -7.194   6.279  -1.087  0.00  0.00    +0.029 A 
ATOM     15  C   UNL     1      -6.677   5.097  -0.505  0.00  0.00    +0.079 A 
ATOM     16  C   UNL     1      -7.585   4.330   0.263  0.00  0.00    +0.040 A 
ATOM     17  C   UNL     1      -8.896   4.699   0.442  0.00  0.00    +0.020 A 
ATOM     18  S   UNL     1      -6.574   2.973   0.801  0.00  0.00    -0.067 S 
ATOM     19  C   UNL     1      -5.061   3.489   0.001  0.00  0.00    +0.109 A 
ATOM     20  N   UNL     1      -5.423   4.610  -0.585  0.00  0.00    -0.239 NA
ENDBRANCH   5  19
ENDBRANCH   1   8
BRANCH   2  21
ATOM     21  C   UNL     1       2.459   1.038   0.108  0.00  0.00    +0.328 C 
BRANCH  21  22
ATOM     22  O   UNL     1       3.488   2.029   0.088  0.00  0.00    -0.452 OA
BRANCH  22  23
ATOM     23  C   UNL     1       4.762   1.592   0.170  0.00  0.00    +0.332 C 
ATOM     24  O   UNL     1       4.992   0.401   0.256  0.00  0.00    -0.246 OA
BRANCH  23  25
ATOM     25  C   UNL     1       5.866   2.550   0.156  0.00  0.00    +0.092 C 
ATOM     26  C   UNL     1       7.140   2.113   0.238  0.00  0.00    +0.015 C 
BRANCH  26  27
ATOM     27  C   UNL     1       8.252   3.077   0.224  0.00  0.00    -0.025 A 
ATOM     28  C   UNL     1       7.992   4.448   0.120  0.00  0.00    +0.010 A 
ATOM     29  C   UNL     1       9.039   5.346   0.114  0.00  0.00    +0.033 A 
ATOM     30  C   UNL     1      10.344   4.893   0.198  0.00  0.00    +0.126 A 
ATOM     31  C   UNL     1      10.609   3.538   0.295  0.00  0.00    +0.033 A 
ATOM     32  C   UNL     1       9.573   2.628   0.309  0.00  0.00    +0.010 A 
BRANCH  30  33
ATOM     33  N   UNL     1      11.462   5.863   0.184  0.00  0.00    +0.056 N 
ATOM     34  O   UNL     1      12.612   5.468   0.257  0.00  0.00    -0.126 OA
ATOM     35  O   UNL     1      11.232   7.056   0.099  0.00  0.00    -0.126 OA
ENDBRANCH  30  33
ENDBRANCH  26  27
ENDBRANCH  23  25
ENDBRANCH  22  23
ENDBRANCH  21  22
ENDBRANCH   2  21
TORSDOF 8
