REMARK  Name = ZINC02433757
REMARK  6 active torsions:
REMARK  status: ('A' for Active; 'I' for Inactive)
REMARK    1  A    between atoms: C_3  and  C_6
REMARK    2  A    between atoms: C_6  and  N_7
REMARK    3  A    between atoms: N_7  and  C_8
REMARK    4  A    between atoms: C_8  and  N_10
REMARK    5  A    between atoms: C_13  and  C_16
REMARK    6  A    between atoms: C_13  and  N_50
REMARK                            x       y       z     vdW  Elec       q    Type
REMARK                         _______ _______ _______ _____ _____    ______ ____
ROOT
ATOM      1  N   UNL     1       4.776  -0.541   4.503  0.00  0.00    -0.313 N 
ATOM      2  C   UNL     1       5.352  -0.827   3.182  0.00  0.00    +0.106 C 
ATOM      3  C   UNL     1       4.506  -0.127   2.114  0.00  0.00    +0.016 C 
ATOM      4  C   UNL     1       3.044  -0.552   2.268  0.00  0.00    +0.015 C 
ATOM      5  C   UNL     1       2.530  -0.127   3.645  0.00  0.00    +0.016 C 
ATOM      6  C   UNL     1       3.353  -0.827   4.731  0.00  0.00    +0.106 C 
ENDROOT
BRANCH   4  12
ATOM      7  C   UNL     1       0.846  -0.382   1.268  0.00  0.00    -0.077 C 
ATOM      8  C   UNL     1       0.070   0.195   0.081  0.00  0.00    -0.019 C 
ATOM      9  C   UNL     1       0.110   1.724   0.147  0.00  0.00    -0.004 C 
ATOM     10  C   UNL     1       1.569   2.189   0.149  0.00  0.00    -0.019 C 
ATOM     11  C   UNL     1       2.301   1.554   1.333  0.00  0.00    -0.077 C 
ATOM     12  N   UNL     1       2.247   0.083   1.198  0.00  0.00    +0.389 N 
ATOM     13  H   UNL     1       2.641  -0.182   0.287  0.00  0.00    -0.080 HD
ENDBRANCH   4  12
BRANCH   4  14
ATOM     14  C   UNL     1       2.939  -2.049   2.133  0.00  0.00    +0.200 C 
ATOM     15  O   UNL     1       2.854  -2.743   3.124  0.00  0.00    -0.278 OA
ATOM     16  N   UNL     1       2.939  -2.617   0.910  0.00  0.00    -0.330 N 
ATOM     17  H   UNL     1       3.080  -2.071   0.121  0.00  0.00    +0.145 HD
ATOM     18  H   UNL     1       2.799  -3.573   0.820  0.00  0.00    +0.145 HD
ENDBRANCH   4  14
BRANCH   1  19
ATOM     19  C   UNL     1       5.539  -0.025   5.488  0.00  0.00    +0.133 C 
ATOM     20  S   UNL     1       7.158   0.429   5.167  0.00  0.00    -0.019 S 
BRANCH  19  21
ATOM     21  N   UNL     1       5.027   0.134   6.724  0.00  0.00    -0.319 N 
ATOM     22  H   UNL     1       4.090  -0.055   6.889  0.00  0.00    +0.148 HD
BRANCH  21  23
ATOM     23  C   UNL     1       5.885   0.591   7.820  0.00  0.00    +0.177 C 
BRANCH  23  26
ATOM     24  C   UNL     1       4.079   0.217  11.010  0.00  0.00    +0.041 A 
ATOM     25  C   UNL     1       4.903  -0.302   9.985  0.00  0.00    +0.046 A 
ATOM     26  C   UNL     1       5.075   0.685   9.087  0.00  0.00    +0.122 A 
ATOM     27  O   UNL     1       4.408   1.769   9.514  0.00  0.00    -0.466 OA
ATOM     28  C   UNL     1       3.797   1.490  10.677  0.00  0.00    +0.195 A 
ENDBRANCH  23  26
ENDBRANCH  21  23
ENDBRANCH  19  21
ENDBRANCH   1  19
TORSDOF 6
