REMARK  Name = ZINC12520297
REMARK  6 active torsions:
REMARK  status: ('A' for Active; 'I' for Inactive)
REMARK    1  A    between atoms: C_1  and  O_2
REMARK    2  A    between atoms: O_2  and  C_3
REMARK    3  A    between atoms: C_5  and  C_14
REMARK    4  A    between atoms: C_8  and  O_9
REMARK    5  A    between atoms: O_9  and  C_10
REMARK    6  A    between atoms: C_10  and  C_11
REMARK                            x       y       z     vdW  Elec       q    Type
REMARK                         _______ _______ _______ _____ _____    ______ ____
ROOT
ATOM      1  C   UNL     1       2.401   0.380  -4.231  0.00  0.00    +0.209 C 
ATOM      2  N   UNL     1       3.666  -0.233  -4.676  0.00  0.00    -0.294 N 
ATOM      3  C   UNL     1       3.593  -1.291  -5.571  0.00  0.00    +0.159 C 
ATOM      4  N   UNL     1       2.832  -1.079  -6.721  0.00  0.00    -0.259 N 
ATOM      5  C   UNL     1       1.712  -0.269  -6.549  0.00  0.00    +0.205 A 
ATOM      6  N   UNL     1       1.496   0.434  -5.384  0.00  0.00    -0.288 N 
ATOM      7  C   UNL     1       0.333   1.132  -5.543  0.00  0.00    +0.072 A 
ATOM      8  C   UNL     1      -0.368   2.002  -4.716  0.00  0.00    +0.028 A 
ATOM      9  C   UNL     1      -1.544   2.538  -5.216  0.00  0.00    +0.002 A 
ATOM     10  C   UNL     1      -2.012   2.229  -6.481  0.00  0.00    +0.002 A 
ATOM     11  C   UNL     1      -1.334   1.366  -7.322  0.00  0.00    +0.030 A 
ATOM     12  C   UNL     1      -0.143   0.813  -6.839  0.00  0.00    +0.091 A 
ATOM     13  N   UNL     1       0.743  -0.045  -7.393  0.00  0.00    -0.214 NA
ATOM     14  N   UNL     1       4.204  -2.420  -5.350  0.00  0.00    -0.375 N 
ATOM     15  H   UNL     1       4.521   0.092  -4.354  0.00  0.00    +0.151 HD
ATOM     16  H   UNL     1       4.727  -2.539  -4.542  0.00  0.00    +0.158 HD
ATOM     17  H   UNL     1       3.065  -1.468  -7.579  0.00  0.00    +0.158 HD
ATOM     18  H   UNL     1       4.136  -3.143  -5.994  0.00  0.00    +0.158 HD
ENDROOT
BRANCH   1  21
ATOM     19  C   UNL     1       0.606  -0.608  -1.056  0.00  0.00    +0.163 A 
ATOM     20  C   UNL     1       1.173   0.159  -2.062  0.00  0.00    +0.056 A 
ATOM     21  C   UNL     1       1.786  -0.455  -3.138  0.00  0.00    -0.002 A 
ATOM     22  C   UNL     1       1.836  -1.835  -3.214  0.00  0.00    +0.026 A 
ATOM     23  C   UNL     1       1.273  -2.606  -2.213  0.00  0.00    +0.064 A 
ATOM     24  C   UNL     1       0.662  -1.996  -1.129  0.00  0.00    +0.176 A 
ATOM     25 BR   UNL     1       1.342  -4.493  -2.321  0.00  0.00    -0.046 Br
BRANCH  19  27
ATOM     26  C   UNL     1      -0.017   1.425   0.010  0.00  0.00    +0.277 C 
ATOM     27  O   UNL     1       0.002  -0.004   0.002  0.00  0.00    -0.491 OA
ENDBRANCH  19  27
BRANCH  24  28
ATOM     28  O   UNL     1       0.112  -2.752  -0.141  0.00  0.00    -0.483 OA
BRANCH  28  29
ATOM     29  C   UNL     1      -1.259  -3.125  -0.296  0.00  0.00    +0.256 C 
BRANCH  29  30
ATOM     30  C   UNL     1      -1.691  -3.954   0.885  0.00  0.00    +0.006 C 
ATOM     31  C   UNL     1      -2.838  -3.714   1.470  0.00  0.00    +0.007 C 
ENDBRANCH  29  30
ENDBRANCH  28  29
ENDBRANCH  24  28
ENDBRANCH   1  21
TORSDOF 5
