REMARK  Name = ZINC65382672
REMARK  6 active torsions:
REMARK  status: ('A' for Active; 'I' for Inactive)
REMARK    1  A    between atoms: C_4  and  C_7
REMARK    2  A    between atoms: C_9  and  C_25
REMARK    3  A    between atoms: N_11  and  C_14
REMARK    4  A    between atoms: C_14  and  C_15
REMARK    5  A    between atoms: C_18  and  S_21
REMARK    6  A    between atoms: S_21  and  N_24
REMARK                            x       y       z     vdW  Elec       q    Type
REMARK                         _______ _______ _______ _____ _____    ______ ____
ROOT
ATOM      1  C   UNL     1       3.711  -0.707  -0.038  0.00  0.00    +0.110 C 
ATOM      2  C   UNL     1       3.965  -1.311  -1.432  0.00  0.00    +0.144 C 
ATOM      3  N   UNL     1       4.051  -2.776  -1.222  0.00  0.00    -0.274 NA
ATOM      4  C   UNL     1       3.301  -3.016   0.037  0.00  0.00    +0.170 C 
ATOM      5  N   UNL     1       3.667  -1.858   0.896  0.00  0.00    -0.295 NA
ATOM      6  H   UNL     1       4.564  -2.002   1.335  0.00  0.00    +0.124 HD
ENDROOT
BRANCH   2   7
ATOM      7  C   UNL     1       5.259  -0.787  -1.999  0.00  0.00    +0.104 A 
ATOM      8  N   UNL     1       5.391   0.304  -2.736  0.00  0.00    -0.349 N 
ATOM      9  C   UNL     1       6.695   0.445  -3.053  0.00  0.00    +0.101 A 
ATOM     10  C   UNL     1       7.358  -0.586  -2.492  0.00  0.00    +0.101 A 
ATOM     11  N   UNL     1       6.450  -1.340  -1.837  0.00  0.00    -0.349 N 
ATOM     12  H   UNL     1       6.639  -2.148  -1.335  0.00  0.00    +0.166 HD
ATOM     13  H   UNL     1       4.674   0.900  -3.002  0.00  0.00    +0.166 HD
ENDBRANCH   2   7
BRANCH   1  17
ATOM     14  C   UNL     1      -0.017   1.378   0.014  0.00  0.00    +0.000 A 
ATOM     15  C   UNL     1       0.010   0.006   0.179  0.00  0.00    +0.000 A 
ATOM     16  C   UNL     1       1.216  -0.669   0.163  0.00  0.00    +0.005 A 
ATOM     17  C   UNL     1       2.396   0.029  -0.020  0.00  0.00    -0.029 A 
ATOM     18  C   UNL     1       2.369   1.401  -0.186  0.00  0.00    +0.005 A 
ATOM     19  C   UNL     1       1.163   2.076  -0.168  0.00  0.00    +0.000 A 
ENDBRANCH   1  17
BRANCH   3  20
ATOM     20  C   UNL     1       3.444  -3.505  -2.344  0.00  0.00    +0.121 C 
BRANCH  20  21
ATOM     21  C   UNL     1       3.764  -4.973  -2.221  0.00  0.00    -0.033 A 
ATOM     22  C   UNL     1       4.909  -5.482  -2.805  0.00  0.00    +0.007 A 
ATOM     23  C   UNL     1       5.202  -6.828  -2.692  0.00  0.00    +0.029 A 
ATOM     24  C   UNL     1       4.351  -7.665  -1.996  0.00  0.00    +0.105 A 
ATOM     25  C   UNL     1       3.206  -7.156  -1.411  0.00  0.00    +0.029 A 
ATOM     26  C   UNL     1       2.915  -5.809  -1.520  0.00  0.00    +0.007 A 
BRANCH  24  27
ATOM     27  S   UNL     1       4.724  -9.381  -1.853  0.00  0.00    +0.056 S 
ATOM     28  O   UNL     1       3.491 -10.046  -1.617  0.00  0.00    -0.153 OA
ATOM     29  O   UNL     1       5.567  -9.706  -2.950  0.00  0.00    -0.153 OA
BRANCH  27  30
ATOM     30  N   UNL     1       5.635  -9.572  -0.484  0.00  0.00    -0.204 NA
ATOM     31  H   UNL     1       5.589 -10.401   0.018  0.00  0.00    +0.144 HD
ATOM     32  H   UNL     1       6.214  -8.854  -0.182  0.00  0.00    +0.144 HD
ENDBRANCH  27  30
ENDBRANCH  24  27
ENDBRANCH  20  21
ENDBRANCH   3  20
TORSDOF 6
