REMARK  Name = ZINC50586108
REMARK  8 active torsions:
REMARK  status: ('A' for Active; 'I' for Inactive)
REMARK    1  A    between atoms: C_1  and  C_2
REMARK    2  A    between atoms: C_2  and  C_3
REMARK    3  A    between atoms: C_3  and  C_5
REMARK    4  A    between atoms: C_3  and  N_21
REMARK    5  A    between atoms: C_5  and  C_7
REMARK    6  A    between atoms: C_5  and  N_13
REMARK    7  A    between atoms: C_14  and  C_20
REMARK    8  A    between atoms: C_16  and  C_18
REMARK                            x       y       z     vdW  Elec       q    Type
REMARK                         _______ _______ _______ _____ _____    ______ ____
ROOT
ATOM      1  C   UNL     1       0.655  -2.037   1.299  0.00  0.00    +0.130 C 
ENDROOT
BRANCH   1   2
ATOM      2  N   UNL     1       1.364  -2.523   2.486  0.00  0.00    -0.261 N 
ATOM      3  C   UNL     1       2.424  -3.360   2.491  0.00  0.00    +0.055 A 
ATOM      4  C   UNL     1       2.783  -3.562   3.781  0.00  0.00    +0.084 A 
ATOM      5  C   UNL     1       1.912  -2.823   4.590  0.00  0.00    +0.078 A 
ATOM      6  N   UNL     1       1.066  -2.196   3.814  0.00  0.00    -0.174 NA
ATOM      7  C   UNL     1       1.948  -2.756   6.095  0.00  0.00    +0.069 C 
ATOM      8 CL   UNL     1       4.091  -4.561   4.333  0.00  0.00    -0.080 Cl
ATOM      9  C   UNL     1       3.087  -3.961   1.279  0.00  0.00    +0.067 C 
ENDBRANCH   1   2
BRANCH   1  10
ATOM     10  C   UNL     1      -0.790  -2.456   1.371  0.00  0.00    +0.014 A 
ATOM     11  C   UNL     1      -1.497  -3.235   0.516  0.00  0.00    +0.014 A 
ATOM     12  C   UNL     1      -2.829  -3.490   0.785  0.00  0.00    +0.023 A 
ATOM     13  C   UNL     1      -3.389  -2.952   1.897  0.00  0.00    +0.055 A 
ATOM     14  S   UNL     1      -2.015  -2.061   2.608  0.00  0.00    -0.084 S 
ATOM     15 BR   UNL     1      -5.162  -3.111   2.533  0.00  0.00    -0.043 Br
ENDBRANCH   1  10
BRANCH   1  16
ATOM     16  C   UNL     1       0.742  -0.511   1.242  0.00  0.00    -0.045 C 
BRANCH  16  17
ATOM     17  N   UNL     1       2.151  -0.103   1.171  0.00  0.00    +0.382 N 
ATOM     18  H   UNL     1       2.209   0.904   1.134  0.00  0.00    -0.090 HD
ATOM     19  H   UNL     1       2.639  -0.437   1.989  0.00  0.00    -0.090 HD
ATOM     20  H   UNL     1       2.574  -0.495   0.344  0.00  0.00    -0.090 HD
ENDBRANCH  16  17
BRANCH  16  22
ATOM     21  C   UNL     1      -0.019   1.526   0.010  0.00  0.00    +0.002 C 
ATOM     22  C   UNL     1       0.002  -0.004   0.002  0.00  0.00    -0.017 C 
ENDBRANCH  16  22
ENDBRANCH   1  16
TORSDOF 5
