REMARK  Name = ZINC13130473
REMARK  5 active torsions:
REMARK  status: ('A' for Active; 'I' for Inactive)
REMARK    1  A    between atoms: C_4  and  C_7
REMARK    2  A    between atoms: C_12  and  C_23
REMARK    3  A    between atoms: C_31  and  C_33
REMARK    4  A    between atoms: C_33  and  C_34
REMARK    5  A    between atoms: C_34  and  C_35
REMARK                            x       y       z     vdW  Elec       q    Type
REMARK                         _______ _______ _______ _____ _____    ______ ____
ROOT
ATOM      1  C   UNL     1       4.875  -0.709   0.072  0.00  0.00    +0.132 C 
ATOM      2  C   UNL     1       4.796  -1.219  -1.379  0.00  0.00    +0.082 C 
ATOM      3  C   UNL     1       4.754  -2.724  -1.243  0.00  0.00    +0.037 C 
ATOM      4  C   UNL     1       4.679  -3.633  -2.300  0.00  0.00    +0.064 C 
ATOM      5  C   UNL     1       4.486  -5.013  -2.057  0.00  0.00    +0.005 C 
ATOM      6  C   UNL     1       4.419  -5.881  -3.172  0.00  0.00    +0.006 A 
ATOM      7  C   UNL     1       4.228  -7.261  -2.989  0.00  0.00    +0.030 A 
ATOM      8  C   UNL     1       4.165  -8.084  -4.074  0.00  0.00    +0.042 A 
ATOM      9  C   UNL     1       4.287  -7.573  -5.364  0.00  0.00    +0.022 A 
ATOM     10  C   UNL     1       4.473  -6.241  -5.576  0.00  0.00    +0.025 A 
ATOM     11  C   UNL     1       4.543  -5.359  -4.483  0.00  0.00    +0.042 A 
ATOM     12  N   UNL     1       4.725  -4.049  -4.692  0.00  0.00    -0.281 N 
ATOM     13  C   UNL     1       4.792  -3.178  -3.696  0.00  0.00    +0.250 C 
ATOM     14  O   UNL     1       4.954  -1.990  -3.937  0.00  0.00    -0.270 OA
ATOM     15 CL   UNL     1       3.929  -9.789  -3.844  0.00  0.00    -0.084 Cl
ATOM     16  N   UNL     1       4.800  -3.042   0.052  0.00  0.00    -0.265 N 
ATOM     17  N   UNL     1       4.874  -1.929   0.891  0.00  0.00    -0.215 N 
ATOM     18  C   UNL     1       4.933  -1.965   2.237  0.00  0.00    +0.233 C 
ATOM     19  O   UNL     1       4.994  -0.932   2.869  0.00  0.00    -0.274 OA
ATOM     20  H   UNL     1       4.785  -3.956   0.378  0.00  0.00    +0.170 HD
ATOM     21  H   UNL     1       4.806  -3.727  -5.603  0.00  0.00    +0.155 HD
ENDROOT
BRANCH   1  25
ATOM     22  C   UNL     1       1.477   1.711   0.990  0.00  0.00    +0.000 A 
ATOM     23  C   UNL     1       2.691   2.305   0.702  0.00  0.00    +0.000 A 
ATOM     24  C   UNL     1       3.791   1.522   0.405  0.00  0.00    +0.005 A 
ATOM     25  C   UNL     1       3.676   0.145   0.397  0.00  0.00    -0.025 A 
ATOM     26  C   UNL     1       2.462  -0.450   0.685  0.00  0.00    +0.005 A 
ATOM     27  C   UNL     1       1.362   0.333   0.981  0.00  0.00    +0.000 A 
ENDBRANCH   1  25
BRANCH   5  28
ATOM     28  C   UNL     1       4.360  -5.532  -0.681  0.00  0.00    -0.016 A 
ATOM     29  C   UNL     1       3.115  -5.543  -0.046  0.00  0.00    +0.008 A 
ATOM     30  C   UNL     1       3.005  -6.029   1.240  0.00  0.00    +0.001 A 
ATOM     31  C   UNL     1       4.123  -6.506   1.901  0.00  0.00    +0.000 A 
ATOM     32  C   UNL     1       5.359  -6.499   1.279  0.00  0.00    +0.001 A 
ATOM     33  C   UNL     1       5.484  -6.021  -0.009  0.00  0.00    +0.008 A 
ENDBRANCH   5  28
BRANCH  18  34
ATOM     34  C   UNL     1       4.924  -3.290   2.956  0.00  0.00    +0.109 C 
BRANCH  34  35
ATOM     35  C   UNL     1       5.000  -3.051   4.465  0.00  0.00    +0.134 C 
BRANCH  35  36
ATOM     36  C   UNL     1       4.990  -4.375   5.184  0.00  0.00    +0.356 C 
ATOM     37  O   UNL     1       4.929  -5.414   4.549  0.00  0.00    -0.246 OA
ATOM     38  O   UNL     1       5.044  -4.408   6.402  0.00  0.00    -0.246 OA
ENDBRANCH  35  36
ENDBRANCH  34  35
ENDBRANCH  18  34
TORSDOF 5
