REMARK  Name = ZINC34785440
REMARK  6 active torsions:
REMARK  status: ('A' for Active; 'I' for Inactive)
REMARK    1  A    between atoms: C_1  and  C_2
REMARK    2  A    between atoms: C_2  and  C_3
REMARK    3  A    between atoms: C_2  and  C_4
REMARK    4  A    between atoms: C_4  and  N_5
REMARK    5  A    between atoms: N_13  and  C_14
REMARK    6  A    between atoms: C_15  and  C_23
REMARK                            x       y       z     vdW  Elec       q    Type
REMARK                         _______ _______ _______ _____ _____    ______ ____
ROOT
ATOM      1  N   UNL     1      -1.176  -2.061  -0.194  0.00  0.00    +0.382 N 
ATOM      2  C   UNL     1      -0.611  -2.666   1.019  0.00  0.00    -0.059 C 
ATOM      3  C   UNL     1      -0.298  -4.142   0.754  0.00  0.00    +0.091 C 
ATOM      4  N   UNL     1      -1.520  -4.797   0.262  0.00  0.00    -0.289 N 
ATOM      5  C   UNL     1      -2.244  -4.165  -0.852  0.00  0.00    +0.091 C 
ATOM      6  C   UNL     1      -2.466  -2.688  -0.511  0.00  0.00    -0.059 C 
ATOM      7  C   UNL     1      -1.963  -5.943   0.815  0.00  0.00    +0.307 C 
ATOM      8  O   UNL     1      -1.304  -6.499   1.672  0.00  0.00    -0.252 OA
ATOM      9  N   UNL     1      -3.137  -6.474   0.418  0.00  0.00    -0.263 N 
ATOM     10  H   UNL     1      -3.628  -6.070  -0.314  0.00  0.00    +0.157 HD
ATOM     11  H   UNL     1      -0.538  -2.199  -0.964  0.00  0.00    -0.082 HD
ENDROOT
BRANCH   9  12
ATOM     12  C   UNL     1      -3.642  -7.596   1.057  0.00  0.00    +0.086 A 
ATOM     13  C   UNL     1      -4.819  -8.275   0.783  0.00  0.00    +0.068 A 
ATOM     14  C   UNL     1      -5.124  -9.433   1.605  0.00  0.00    -0.023 A 
ATOM     15  C   UNL     1      -4.197  -9.700   2.550  0.00  0.00    -0.004 A 
ATOM     16  S   UNL     1      -2.964  -8.449   2.334  0.00  0.00    -0.077 S 
ATOM     17  C   UNL     1      -4.224 -10.817   3.547  0.00  0.00    +0.043 C 
ATOM     18  C   UNL     1      -5.646 -11.394   3.586  0.00  0.00    +0.005 C 
ATOM     19  C   UNL     1      -6.122 -11.637   2.151  0.00  0.00    +0.005 C 
ATOM     20  C   UNL     1      -6.366 -10.299   1.450  0.00  0.00    +0.037 C 
BRANCH  13  21
ATOM     21  C   UNL     1      -5.718  -7.842  -0.291  0.00  0.00    +0.244 C 
ATOM     22  O   UNL     1      -5.577  -8.281  -1.417  0.00  0.00    -0.270 OA
ATOM     23  N   UNL     1      -6.702  -6.958  -0.031  0.00  0.00    -0.325 N 
ATOM     24  H   UNL     1      -6.814  -6.608   0.867  0.00  0.00    +0.145 HD
ATOM     25  H   UNL     1      -7.297  -6.672  -0.741  0.00  0.00    +0.145 HD
ENDBRANCH  13  21
ENDBRANCH   9  12
BRANCH   1  26
ATOM     26  C   UNL     1      -1.373  -0.622   0.025  0.00  0.00    -0.076 C 
BRANCH  26  28
ATOM     27  C   UNL     1      -2.071   1.526  -1.045  0.00  0.00    +0.005 C 
ATOM     28  C   UNL     1      -1.802   0.039  -1.287  0.00  0.00    -0.034 C 
ATOM     29  C   UNL     1      -0.689  -0.116  -2.324  0.00  0.00    +0.005 C 
ENDBRANCH  26  28
ENDBRANCH   1  26
TORSDOF 4
