REMARK  Name = ZINC67433430
REMARK  8 active torsions:
REMARK  status: ('A' for Active; 'I' for Inactive)
REMARK    1  A    between atoms: C_4  and  C_7
REMARK    2  A    between atoms: C_7  and  C_8
REMARK    3  A    between atoms: C_8  and  N_9
REMARK    4  A    between atoms: C_13  and  C_16
REMARK    5  A    between atoms: C_13  and  O_29
REMARK    6  A    between atoms: C_16  and  N_17
REMARK    7  A    between atoms: N_17  and  C_18
REMARK    8  A    between atoms: C_18  and  C_19
REMARK                            x       y       z     vdW  Elec       q    Type
REMARK                         _______ _______ _______ _____ _____    ______ ____
ROOT
ATOM      1  N   UNL     1       5.539  -1.413   0.945  0.00  0.00    -0.299 N 
ATOM      2  C   UNL     1       5.463  -2.855   0.746  0.00  0.00    +0.108 C 
ATOM      3  C   UNL     1       6.827  -3.409   0.329  0.00  0.00    +0.022 C 
ATOM      4  C   UNL     1       7.884  -2.905   1.318  0.00  0.00    +0.044 C 
ATOM      5  C   UNL     1       8.030  -1.391   1.141  0.00  0.00    +0.127 C 
ATOM      6  C   UNL     1       6.675  -0.743   1.140  0.00  0.00    +0.245 C 
ATOM      7  O   UNL     1       6.611   0.453   1.331  0.00  0.00    -0.273 OA
ENDROOT
BRANCH   5   8
ATOM      8  O   UNL     1       8.682  -1.119  -0.101  0.00  0.00    -0.381 OA
ATOM      9  H   UNL     1       8.809  -0.178  -0.281  0.00  0.00    +0.211 HD
ENDBRANCH   5   8
BRANCH   1  10
ATOM     10  C   UNL     1       4.287  -0.651   0.925  0.00  0.00    +0.112 C 
BRANCH  10  11
ATOM     11  C   UNL     1       3.987  -0.201  -0.506  0.00  0.00    +0.054 C 
BRANCH  11  15
ATOM     12  C   UNL     1       0.340   2.021  -0.568  0.00  0.00    +0.000 A 
ATOM     13  C   UNL     1       1.543   2.672  -0.367  0.00  0.00    +0.000 A 
ATOM     14  C   UNL     1       2.723   1.953  -0.347  0.00  0.00    +0.004 A 
ATOM     15  C   UNL     1       2.701   0.583  -0.527  0.00  0.00    -0.046 A 
ATOM     16  C   UNL     1       1.498  -0.069  -0.726  0.00  0.00    +0.004 A 
ATOM     17  C   UNL     1       0.318   0.651  -0.748  0.00  0.00    +0.000 A 
ENDBRANCH  11  15
ENDBRANCH  10  11
ENDBRANCH   1  10
BRANCH   5  18
ATOM     18  C   UNL     1       8.868  -0.824   2.288  0.00  0.00    -0.037 C 
BRANCH  18  19
ATOM     19  N   UNL     1      10.182  -1.479   2.306  0.00  0.00    +0.385 N 
ATOM     20  H   UNL     1      10.066  -2.459   2.521  0.00  0.00    -0.085 HD
ATOM     21  H   UNL     1      10.618  -1.382   1.402  0.00  0.00    -0.085 HD
BRANCH  19  22
ATOM     22  C   UNL     1      11.029  -0.851   3.329  0.00  0.00    -0.028 C 
BRANCH  22  23
ATOM     23  C   UNL     1      12.378  -1.524   3.347  0.00  0.00    -0.000 A 
ATOM     24  C   UNL     1      12.727  -2.528   4.166  0.00  0.00    +0.029 A 
ATOM     25  C   UNL     1      14.113  -2.878   3.848  0.00  0.00    -0.000 A 
ATOM     26  C   UNL     1      15.014  -3.822   4.344  0.00  0.00    +0.010 A 
ATOM     27  C   UNL     1      16.273  -3.900   3.820  0.00  0.00    +0.001 A 
ATOM     28  C   UNL     1      16.664  -3.047   2.796  0.00  0.00    +0.002 A 
ATOM     29  C   UNL     1      15.791  -2.108   2.292  0.00  0.00    +0.026 A 
ATOM     30  C   UNL     1      14.504  -2.012   2.811  0.00  0.00    +0.047 A 
ATOM     31  N   UNL     1      13.425  -1.205   2.526  0.00  0.00    -0.360 N 
ATOM     32  H   UNL     1      13.411  -0.513   1.847  0.00  0.00    +0.166 HD
ENDBRANCH  22  23
ENDBRANCH  19  22
ENDBRANCH  18  19
ENDBRANCH   5  18
TORSDOF 8
