REMARK  Name = ZINC59116560
REMARK  8 active torsions:
REMARK  status: ('A' for Active; 'I' for Inactive)
REMARK    1  A    between atoms: C_1  and  C_2
REMARK    2  A    between atoms: C_2  and  N_3
REMARK    3  A    between atoms: N_12  and  C_13
REMARK    4  A    between atoms: C_13  and  C_14
REMARK    5  A    between atoms: C_17  and  N_20
REMARK    6  A    between atoms: N_20  and  S_21
REMARK    7  A    between atoms: S_21  and  C_24
REMARK    8  A    between atoms: C_27  and  C_30
REMARK                            x       y       z     vdW  Elec       q    Type
REMARK                         _______ _______ _______ _____ _____    ______ ____
ROOT
ATOM      1  C   UNL     1      -2.024  -0.777  -4.844  0.00  0.00    -0.030 A 
ATOM      2  C   UNL     1      -2.179   0.460  -5.442  0.00  0.00    +0.007 A 
ATOM      3  C   UNL     1      -1.551   0.733  -6.641  0.00  0.00    +0.025 A 
ATOM      4  C   UNL     1      -0.763  -0.238  -7.247  0.00  0.00    +0.048 A 
ATOM      5  C   UNL     1      -0.610  -1.480  -6.644  0.00  0.00    +0.025 A 
ATOM      6  C   UNL     1      -1.236  -1.744  -5.442  0.00  0.00    +0.007 A 
ENDROOT
BRANCH   4   7
ATOM      7  N   UNL     1      -0.127   0.034  -8.460  0.00  0.00    -0.216 N 
ATOM      8  H   UNL     1      -0.618   0.458  -9.181  0.00  0.00    +0.174 HD
BRANCH   7   9
ATOM      9  S   UNL     1       1.467  -0.366  -8.668  0.00  0.00    +0.072 S 
ATOM     10  O   UNL     1       1.591  -1.736  -8.311  0.00  0.00    -0.150 OA
ATOM     11  O   UNL     1       1.846   0.126  -9.946  0.00  0.00    -0.150 OA
BRANCH   9  12
ATOM     12  C   UNL     1       2.393   0.549  -7.481  0.00  0.00    +0.109 A 
ATOM     13  C   UNL     1       2.783   1.846  -7.759  0.00  0.00    +0.029 A 
ATOM     14  C   UNL     1       3.509   2.565  -6.828  0.00  0.00    +0.005 A 
ATOM     15  C   UNL     1       3.845   1.986  -5.618  0.00  0.00    -0.050 A 
ATOM     16  C   UNL     1       3.455   0.690  -5.339  0.00  0.00    +0.005 A 
ATOM     17  C   UNL     1       2.725  -0.027  -6.269  0.00  0.00    +0.029 A 
ATOM     18  C   UNL     1       4.638   2.769  -4.603  0.00  0.00    +0.044 C 
ENDBRANCH   9  12
ENDBRANCH   7   9
ENDBRANCH   4   7
BRANCH   1  19
ATOM     19  C   UNL     1      -2.711  -1.071  -3.535  0.00  0.00    +0.139 C 
BRANCH  19  29
ATOM     20  N   UNL     1      -1.517  -0.552  -0.016  0.00  0.00    -0.314 N 
ATOM     21  C   UNL     1      -2.286  -0.874   1.090  0.00  0.00    +0.068 A 
ATOM     22  C   UNL     1      -2.089  -0.780   2.459  0.00  0.00    +0.028 A 
ATOM     23  C   UNL     1      -3.077  -1.198   3.327  0.00  0.00    +0.002 A 
ATOM     24  C   UNL     1      -4.268  -1.714   2.838  0.00  0.00    +0.002 A 
ATOM     25  C   UNL     1      -4.481  -1.816   1.482  0.00  0.00    +0.028 A 
ATOM     26  C   UNL     1      -3.491  -1.396   0.590  0.00  0.00    +0.065 A 
ATOM     27  N   UNL     1      -3.405  -1.369  -0.766  0.00  0.00    -0.327 N 
ATOM     28  C   UNL     1      -2.249  -0.869  -1.124  0.00  0.00    +0.174 A 
ATOM     29  N   UNL     1      -1.832  -0.691  -2.426  0.00  0.00    -0.312 N 
ATOM     30  H   UNL     1      -0.957  -0.315  -2.608  0.00  0.00    +0.149 HD
ATOM     31  H   UNL     1      -4.097  -1.671  -1.375  0.00  0.00    +0.169 HD
BRANCH  20  33
ATOM     32  C   UNL     1      -0.272   1.553   0.003  0.00  0.00    +0.027 C 
ATOM     33  C   UNL     1      -0.171   0.026   0.000  0.00  0.00    +0.122 C 
ENDBRANCH  20  33
ENDBRANCH  19  29
ENDBRANCH   1  19
TORSDOF 6
