REMARK  Name = ZINC49921755
REMARK  7 active torsions:
REMARK  status: ('A' for Active; 'I' for Inactive)
REMARK    1  A    between atoms: C_1  and  C_2
REMARK    2  A    between atoms: C_4  and  C_20
REMARK    3  A    between atoms: C_5  and  N_9
REMARK    4  A    between atoms: C_10  and  C_12
REMARK    5  A    between atoms: C_12  and  C_13
REMARK    6  A    between atoms: C_16  and  C_18
REMARK    7  A    between atoms: C_18  and  N_19
REMARK                            x       y       z     vdW  Elec       q    Type
REMARK                         _______ _______ _______ _____ _____    ______ ____
ROOT
ATOM      1  N   UNL     1       0.057  -4.171  -0.023  0.00  0.00    -0.284 N 
ATOM      2  C   UNL     1       0.471  -4.846   1.067  0.00  0.00    +0.223 C 
ATOM      3  O   UNL     1       0.741  -4.246   2.086  0.00  0.00    -0.275 OA
ATOM      4  H   UNL     1      -0.228  -4.655  -0.814  0.00  0.00    +0.155 HD
ENDROOT
BRANCH   1   9
ATOM      5  C   UNL     1      -0.016   1.503   0.014  0.00  0.00    +0.044 C 
ATOM      6  C   UNL     1       0.004  -0.004   0.003  0.00  0.00    -0.049 A 
ATOM      7  C   UNL     1      -1.135  -0.711   0.340  0.00  0.00    +0.008 A 
ATOM      8  C   UNL     1      -1.121  -2.092   0.333  0.00  0.00    -0.028 A 
ATOM      9  C   UNL     1       0.039  -2.771  -0.015  0.00  0.00    +0.055 A 
ATOM     10  C   UNL     1       1.183  -2.058  -0.353  0.00  0.00    +0.063 A 
ATOM     11  C   UNL     1       1.160  -0.676  -0.348  0.00  0.00    +0.025 A 
ATOM     12 CL   UNL     1       2.636  -2.902  -0.788  0.00  0.00    -0.082 Cl
ATOM     13  C   UNL     1      -2.363  -2.862   0.701  0.00  0.00    +0.046 C 
ENDBRANCH   1   9
BRANCH   2  14
ATOM     14  C   UNL     1       0.598  -6.347   1.021  0.00  0.00    +0.152 C 
BRANCH  14  15
ATOM     15  C   UNL     1       1.074  -6.853   2.358  0.00  0.00    +0.057 A 
ATOM     16  C   UNL     1       0.388  -7.802   3.045  0.00  0.00    +0.070 A 
ATOM     17  S   UNL     1       1.417  -7.970   4.494  0.00  0.00    -0.082 S 
ATOM     18  C   UNL     1       2.589  -6.835   4.078  0.00  0.00    +0.061 A 
ATOM     19  N   UNL     1       2.180  -6.397   2.913  0.00  0.00    -0.250 NA
BRANCH  18  20
ATOM     20  C   UNL     1       3.814  -6.427   4.854  0.00  0.00    -0.022 C 
BRANCH  20  21
ATOM     21  N   UNL     1       3.479  -5.305   5.742  0.00  0.00    +0.382 N 
ATOM     22  H   UNL     1       3.155  -4.525   5.191  0.00  0.00    -0.090 HD
ATOM     23  H   UNL     1       2.754  -5.589   6.384  0.00  0.00    -0.090 HD
ATOM     24  H   UNL     1       4.300  -5.032   6.262  0.00  0.00    -0.090 HD
ENDBRANCH  20  21
ENDBRANCH  18  20
ENDBRANCH  14  15
ENDBRANCH   2  14
TORSDOF 5
