REMARK  Name = ZINC08497924
REMARK  9 active torsions:
REMARK  status: ('A' for Active; 'I' for Inactive)
REMARK    1  A    between atoms: C_1  and  C_2
REMARK    2  A    between atoms: C_2  and  C_4
REMARK    3  A    between atoms: C_2  and  O_22
REMARK    4  A    between atoms: C_4  and  N_40
REMARK    5  A    between atoms: C_5  and  C_6
REMARK    6  A    between atoms: C_5  and  N_40
REMARK    7  A    between atoms: C_11  and  O_12
REMARK    8  A    between atoms: O_12  and  C_13
REMARK    9  A    between atoms: C_13  and  C_14
REMARK                            x       y       z     vdW  Elec       q    Type
REMARK                         _______ _______ _______ _____ _____    ______ ____
ROOT
ATOM      1  C   UNL     1      -3.377   3.242   2.842  0.00  0.00    -0.022 A 
ATOM      2  C   UNL     1      -4.570   3.914   3.030  0.00  0.00    +0.020 A 
ATOM      3  C   UNL     1      -5.310   4.330   1.939  0.00  0.00    +0.018 A 
ATOM      4  C   UNL     1      -4.855   4.080   0.656  0.00  0.00    +0.019 A 
ATOM      5  C   UNL     1      -3.661   3.413   0.464  0.00  0.00    +0.047 A 
ATOM      6  C   UNL     1      -2.917   2.995   1.558  0.00  0.00    +0.122 A 
ATOM      7 BR   UNL     1      -6.945   5.243   2.199  0.00  0.00    -0.050 Br
ENDROOT
BRANCH   1   8
ATOM      8  C   UNL     1      -2.575   2.782   4.032  0.00  0.00    -0.043 C 
BRANCH   8   9
ATOM      9  N   UNL     1      -1.480   3.740   4.276  0.00  0.00    +0.383 N 
ATOM     10  H   UNL     1      -0.878   3.784   3.445  0.00  0.00    -0.085 HD
ATOM     11  H   UNL     1      -1.877   4.668   4.460  0.00  0.00    -0.085 HD
BRANCH   9  12
ATOM     12  C   UNL     1      -0.676   3.314   5.437  0.00  0.00    -0.051 C 
BRANCH  12  14
ATOM     13  C   UNL     1       1.362   3.827   6.788  0.00  0.00    +0.035 C 
ATOM     14  C   UNL     1       0.450   4.324   5.665  0.00  0.00    +0.095 C 
BRANCH  14  15
ATOM     15  O   UNL     1      -0.110   5.588   6.030  0.00  0.00    -0.394 OA
ATOM     16  H   UNL     1       0.548   6.278   6.190  0.00  0.00    +0.210 HD
ENDBRANCH  14  15
ENDBRANCH  12  14
ENDBRANCH   9  12
ENDBRANCH   8   9
ENDBRANCH   1   8
BRANCH   6  17
ATOM     17  O   UNL     1      -1.742   2.338   1.370  0.00  0.00    -0.487 OA
BRANCH  17  18
ATOM     18  C   UNL     1      -1.332   2.113   0.020  0.00  0.00    +0.264 C 
BRANCH  18  19
ATOM     19  C   UNL     1      -0.017   1.378   0.010  0.00  0.00    -0.010 A 
ATOM     20  C   UNL     1       1.170   2.087   0.002  0.00  0.00    +0.010 A 
ATOM     21  C   UNL     1       2.377   1.414  -0.013  0.00  0.00    +0.039 A 
ATOM     22  C   UNL     1       2.397   0.029  -0.021  0.00  0.00    +0.123 A 
ATOM     23  C   UNL     1       1.208  -0.679  -0.013  0.00  0.00    +0.039 A 
ATOM     24  C   UNL     1       0.002  -0.004   0.002  0.00  0.00    +0.010 A 
ATOM     25  F   UNL     1       3.577  -0.630  -0.035  0.00  0.00    -0.205 F 
ENDBRANCH  18  19
ENDBRANCH  17  18
ENDBRANCH   6  17
TORSDOF 8
