REMARK  Name = ZINC26653481
REMARK  4 active torsions:
REMARK  status: ('A' for Active; 'I' for Inactive)
REMARK    1  A    between atoms: C_1  and  C_2
REMARK    2  A    between atoms: C_2  and  C_28
REMARK    3  A    between atoms: C_7  and  S_12
REMARK    4  A    between atoms: S_12  and  C_15
REMARK                            x       y       z     vdW  Elec       q    Type
REMARK                         _______ _______ _______ _____ _____    ______ ____
ROOT
ATOM      1  C   UNL     1      -3.488  -2.168  -0.970  0.00  0.00    +0.057 C 
ATOM      2  C   UNL     1      -3.433  -0.639  -0.964  0.00  0.00    +0.121 C 
ATOM      3  C   UNL     1      -2.347  -0.166   0.006  0.00  0.00    +0.160 C 
ATOM      4  N   UNL     1      -2.365   1.307   0.021  0.00  0.00    -0.277 N 
ATOM      5  C   UNL     1      -3.617   1.943   0.030  0.00  0.00    +0.079 A 
ATOM      6  C   UNL     1      -3.706   3.295   0.324  0.00  0.00    +0.054 A 
ATOM      7  C   UNL     1      -4.941   3.918   0.329  0.00  0.00    +0.096 A 
ATOM      8  C   UNL     1      -6.083   3.195   0.041  0.00  0.00    +0.031 A 
ATOM      9  C   UNL     1      -5.999   1.846  -0.251  0.00  0.00    +0.049 A 
ATOM     10  C   UNL     1      -4.766   1.212  -0.258  0.00  0.00    +0.143 A 
ATOM     11  O   UNL     1      -4.694  -0.116  -0.539  0.00  0.00    -0.483 OA
ATOM     12  C   UNL     1      -1.182   2.042   0.019  0.00  0.00    +0.147 A 
ATOM     13  C   UNL     1      -0.655   2.496  -1.185  0.00  0.00    +0.045 A 
ATOM     14  C   UNL     1       0.524   3.221  -1.173  0.00  0.00    +0.005 A 
ATOM     15  C   UNL     1       1.134   3.473   0.048  0.00  0.00    +0.021 A 
ATOM     16  C   UNL     1       0.552   2.997   1.206  0.00  0.00    +0.135 A 
ATOM     17  N   UNL     1      -0.573   2.308   1.165  0.00  0.00    -0.125 N 
ATOM     18  O   UNL     1      -1.139   1.836   2.374  0.00  0.00    -0.163 OA
ATOM     19  C   UNL     1      -3.116  -0.132  -2.372  0.00  0.00    +0.057 C 
ENDROOT
BRANCH   7  20
ATOM     20  S   UNL     1      -5.058   5.636   0.703  0.00  0.00    +0.025 S 
ATOM     21  O   UNL     1      -6.379   5.859   1.176  0.00  0.00    -0.164 OA
ATOM     22  O   UNL     1      -3.908   5.964   1.471  0.00  0.00    -0.164 OA
BRANCH  20  23
ATOM     23  C   UNL     1      -4.913   6.512  -0.819  0.00  0.00    +0.094 A 
ATOM     24  C   UNL     1      -3.669   6.910  -1.272  0.00  0.00    +0.027 A 
ATOM     25  C   UNL     1      -3.555   7.593  -2.468  0.00  0.00    +0.002 A 
ATOM     26  C   UNL     1      -4.686   7.886  -3.207  0.00  0.00    +0.000 A 
ATOM     27  C   UNL     1      -5.931   7.492  -2.752  0.00  0.00    +0.002 A 
ATOM     28  C   UNL     1      -6.044   6.805  -1.558  0.00  0.00    +0.027 A 
ENDBRANCH  20  23
ENDBRANCH   7  20
TORSDOF 2
