REMARK  Name = ZINC16518686
REMARK  13 active torsions:
REMARK  status: ('A' for Active; 'I' for Inactive)
REMARK    1  A    between atoms: C_1  and  C_2
REMARK    2  A    between atoms: C_2  and  C_4
REMARK    3  A    between atoms: C_2  and  N_7
REMARK    4  A    between atoms: C_4  and  C_5
REMARK    5  A    between atoms: C_4  and  C_6
REMARK    6  A    between atoms: N_7  and  C_8
REMARK    7  A    between atoms: C_8  and  C_10
REMARK    8  A    between atoms: C_8  and  C_11
REMARK    9  A    between atoms: N_13  and  C_14
REMARK   10  A    between atoms: C_17  and  C_20
REMARK   11  A    between atoms: N_22  and  C_23
REMARK   12  A    between atoms: C_28  and  O_29
REMARK   13  A    between atoms: O_29  and  C_30
REMARK                            x       y       z     vdW  Elec       q    Type
REMARK                         _______ _______ _______ _____ _____    ______ ____
ROOT
ATOM      1  C   UNL     1      -5.651  -0.692  -2.228  0.00  0.00    +0.033 A 
ATOM      2  C   UNL     1      -6.192  -1.335  -1.119  0.00  0.00    +0.024 A 
ATOM      3  C   UNL     1      -7.494  -1.782  -1.147  0.00  0.00    +0.015 A 
ATOM      4  C   UNL     1      -8.272  -1.589  -2.292  0.00  0.00    +0.037 A 
ATOM      5  C   UNL     1      -7.726  -0.943  -3.404  0.00  0.00    +0.015 A 
ATOM      6  C   UNL     1      -6.425  -0.493  -3.367  0.00  0.00    +0.024 A 
ENDROOT
BRANCH   1   9
ATOM      7  C   UNL     1      -3.394  -0.946  -1.533  0.00  0.00    +0.203 C 
ATOM      8  O   UNL     1      -3.712  -1.927  -0.894  0.00  0.00    -0.277 OA
ATOM      9  N   UNL     1      -4.332  -0.240  -2.195  0.00  0.00    -0.287 N 
ATOM     10  H   UNL     1      -4.090   0.583  -2.648  0.00  0.00    +0.155 HD
BRANCH   7  11
ATOM     11  C   UNL     1      -1.951  -0.517  -1.587  0.00  0.00    +0.014 C 
ATOM     12  C   UNL     1      -1.468  -0.531  -3.039  0.00  0.00    -0.004 C 
BRANCH  11  13
ATOM     13  N   UNL     1      -1.134  -1.443  -0.791  0.00  0.00    +0.388 N 
ATOM     14  H   UNL     1      -1.157  -2.359  -1.213  0.00  0.00    -0.084 HD
ATOM     15  H   UNL     1      -1.504  -1.496   0.146  0.00  0.00    -0.084 HD
BRANCH  13  17
ATOM     16  C   UNL     1       0.301   0.373   0.007  0.00  0.00    -0.013 C 
ATOM     17  C   UNL     1       0.252  -0.959  -0.745  0.00  0.00    -0.071 C 
BRANCH  17  18
ATOM     18  C   UNL     1       1.127  -1.985  -0.022  0.00  0.00    -0.032 C 
ATOM     19  C   UNL     1       1.077  -3.317  -0.774  0.00  0.00    +0.005 C 
ATOM     20  C   UNL     1       2.570  -1.480   0.026  0.00  0.00    +0.005 C 
ENDBRANCH  17  18
ENDBRANCH  13  17
ENDBRANCH  11  13
ENDBRANCH   7  11
ENDBRANCH   1   9
BRANCH   4  21
ATOM     21  C   UNL     1      -9.668  -2.067  -2.326  0.00  0.00    +0.248 C 
ATOM     22  O   UNL     1     -10.142  -2.630  -1.358  0.00  0.00    -0.270 OA
ATOM     23  N   UNL     1     -10.417  -1.880  -3.431  0.00  0.00    -0.279 N 
ATOM     24  H   UNL     1     -10.017  -1.505  -4.231  0.00  0.00    +0.155 HD
BRANCH  23  25
ATOM     25  C   UNL     1     -11.774  -2.228  -3.424  0.00  0.00    +0.076 A 
ATOM     26  C   UNL     1     -12.476  -2.268  -2.228  0.00  0.00    +0.027 A 
ATOM     27  C   UNL     1     -13.814  -2.611  -2.223  0.00  0.00    +0.002 A 
ATOM     28  C   UNL     1     -14.457  -2.915  -3.409  0.00  0.00    +0.004 A 
ATOM     29  C   UNL     1     -13.765  -2.877  -4.605  0.00  0.00    +0.047 A 
ATOM     30  C   UNL     1     -12.424  -2.529  -4.619  0.00  0.00    +0.141 A 
BRANCH  30  31
ATOM     31  O   UNL     1     -11.743  -2.486  -5.795  0.00  0.00    -0.493 OA
ATOM     32  C   UNL     1     -12.474  -2.807  -6.980  0.00  0.00    +0.277 C 
ENDBRANCH  30  31
ENDBRANCH  23  25
ENDBRANCH   4  21
TORSDOF 8
