REMARK  Name = ZINC39271985
REMARK  6 active torsions:
REMARK  status: ('A' for Active; 'I' for Inactive)
REMARK    1  A    between atoms: C_4  and  S_25
REMARK    2  A    between atoms: C_5  and  C_7
REMARK    3  A    between atoms: N_12  and  C_13
REMARK    4  A    between atoms: N_15  and  C_16
REMARK    5  A    between atoms: S_25  and  C_26
REMARK    6  A    between atoms: C_26  and  C_27
REMARK                            x       y       z     vdW  Elec       q    Type
REMARK                         _______ _______ _______ _____ _____    ______ ____
ROOT
ATOM      1  C   UNL     1       1.215  -2.160  -0.008  0.00  0.00    +0.194 C 
ATOM      2  N   UNL     1      -0.138  -2.713  -0.251  0.00  0.00    -0.289 N 
ATOM      3  N   UNL     1      -0.645  -3.397   0.610  0.00  0.00    -0.153 NA
ATOM      4  C   UNL     1      -0.051  -3.705   1.815  0.00  0.00    +0.203 C 
ATOM      5  N   UNL     1      -0.517  -4.436   2.811  0.00  0.00    -0.136 NA
ATOM      6  S   UNL     1       1.520  -2.852   1.674  0.00  0.00    -0.056 S 
ATOM      7  H   UNL     1      -0.608  -2.531  -1.080  0.00  0.00    +0.184 HD
ENDROOT
BRANCH   1  12
ATOM      8  C   UNL     1      -0.018   1.408   0.050  0.00  0.00    +0.000 A 
ATOM      9  C   UNL     1       1.170   2.116   0.042  0.00  0.00    +0.001 A 
ATOM     10  C   UNL     1       2.376   1.444   0.018  0.00  0.00    +0.015 A 
ATOM     11  C   UNL     1       2.395   0.054   0.002  0.00  0.00    +0.014 A 
ATOM     12  C   UNL     1       1.200  -0.654   0.010  0.00  0.00    -0.000 A 
ATOM     13  C   UNL     1      -0.003   0.025   0.034  0.00  0.00    +0.007 A 
BRANCH  11  14
ATOM     14  S   UNL     1       3.932  -0.808  -0.029  0.00  0.00    -0.120 S 
BRANCH  14  15
ATOM     15  C   UNL     1       5.176   0.513  -0.031  0.00  0.00    +0.109 C 
BRANCH  15  16
ATOM     16  C   UNL     1       6.554  -0.096  -0.057  0.00  0.00    -0.037 A 
ATOM     17  C   UNL     1       7.200  -0.394   1.128  0.00  0.00    +0.007 A 
ATOM     18  C   UNL     1       8.464  -0.952   1.106  0.00  0.00    +0.038 A 
ATOM     19  C   UNL     1       9.083  -1.213  -0.105  0.00  0.00    +0.123 A 
ATOM     20  C   UNL     1       8.435  -0.914  -1.292  0.00  0.00    +0.038 A 
ATOM     21  C   UNL     1       7.169  -0.361  -1.266  0.00  0.00    +0.007 A 
ATOM     22  F   UNL     1      10.319  -1.759  -0.128  0.00  0.00    -0.205 F 
ENDBRANCH  15  16
ENDBRANCH  14  15
ENDBRANCH  11  14
ENDBRANCH   1  12
BRANCH   5  23
ATOM     23  C   UNL     1       0.227  -4.619   3.915  0.00  0.00    +0.330 C 
ATOM     24  O   UNL     1       1.331  -4.110   3.997  0.00  0.00    -0.250 OA
ATOM     25  N   UNL     1      -0.248  -5.365   4.932  0.00  0.00    -0.266 N 
ATOM     26  H   UNL     1      -1.152  -5.716   4.895  0.00  0.00    +0.156 HD
BRANCH  25  27
ATOM     27  C   UNL     1       0.562  -5.633   6.041  0.00  0.00    +0.053 A 
ATOM     28  C   UNL     1       1.465  -4.679   6.490  0.00  0.00    +0.026 A 
ATOM     29  C   UNL     1       2.264  -4.947   7.585  0.00  0.00    +0.022 A 
ATOM     30  C   UNL     1       2.165  -6.165   8.235  0.00  0.00    +0.042 A 
ATOM     31  C   UNL     1       1.266  -7.118   7.789  0.00  0.00    +0.041 A 
ATOM     32  C   UNL     1       0.460  -6.854   6.698  0.00  0.00    +0.064 A 
ATOM     33 CL   UNL     1      -0.673  -8.047   6.145  0.00  0.00    -0.082 Cl
ATOM     34 CL   UNL     1       3.170  -6.497   9.610  0.00  0.00    -0.083 Cl
ENDBRANCH  25  27
ENDBRANCH   5  23
TORSDOF 6
