REMARK  Name = ZINC20996831
REMARK  12 active torsions:
REMARK  status: ('A' for Active; 'I' for Inactive)
REMARK    1  A    between atoms: C_1  and  C_2
REMARK    2  A    between atoms: C_2  and  C_3
REMARK    3  A    between atoms: C_2  and  N_4
REMARK    4  A    between atoms: C_5  and  C_7
REMARK    5  A    between atoms: C_10  and  N_17
REMARK    6  A    between atoms: N_13  and  C_14
REMARK    7  A    between atoms: C_14  and  C_15
REMARK    8  A    between atoms: C_14  and  C_16
REMARK    9  A    between atoms: N_17  and  C_18
REMARK   10  A    between atoms: C_18  and  C_19
REMARK   11  A    between atoms: C_19  and  C_27
REMARK   12  A    between atoms: C_20  and  C_21
REMARK                            x       y       z     vdW  Elec       q    Type
REMARK                         _______ _______ _______ _____ _____    ______ ____
ROOT
ATOM      1  C   UNL     1      -0.774   2.917   1.165  0.00  0.00    +0.021 C 
ATOM      2  C   UNL     1      -0.933   2.921  -0.367  0.00  0.00    +0.010 C 
ATOM      3  C   UNL     1      -0.542   1.495  -0.818  0.00  0.00    +0.036 C 
ATOM      4  C   UNL     1       0.329   0.987   0.359  0.00  0.00    -0.059 C 
ATOM      5  N   UNL     1      -0.344   1.555   1.555  0.00  0.00    +0.390 N 
ATOM      6  H   UNL     1      -1.198   0.940   1.877  0.00  0.00    -0.080 HD
ENDROOT
BRANCH   1   8
ATOM      7  N   UNL     1      -2.677   4.440   1.586  0.00  0.00    -0.314 N 
ATOM      8  C   UNL     1      -2.091   3.249   1.818  0.00  0.00    +0.200 C 
ATOM      9  O   UNL     1      -2.623   2.444   2.553  0.00  0.00    -0.278 OA
ATOM     10  H   UNL     1      -2.194   5.170   0.920  0.00  0.00    +0.149 HD
BRANCH   7  12
ATOM     11  C   UNL     1      -4.103   6.282   2.331  0.00  0.00    +0.027 C 
ATOM     12  C   UNL     1      -3.957   4.763   2.221  0.00  0.00    +0.067 C 
ATOM     13  C   UNL     1      -5.102   4.200   1.377  0.00  0.00    +0.027 C 
ENDBRANCH   7  12
ENDBRANCH   1   8
BRANCH   5  14
ATOM     14  C   UNL     1       0.570   1.596   2.704  0.00  0.00    -0.074 C 
ATOM     15  C   UNL     1      -0.105   2.324   3.868  0.00  0.00    -0.013 C 
ATOM     16  C   UNL     1       0.919   0.168   3.130  0.00  0.00    -0.013 C 
ENDBRANCH   5  14
BRANCH   3  17
ATOM     17  N   UNL     1       0.239   1.539  -2.061  0.00  0.00    -0.311 NA
ATOM     18  H   UNL     1      -0.184   2.300  -2.733  0.00  0.00    +0.122 HD
BRANCH  17  19
ATOM     19  C   UNL     1       0.214   0.239  -2.745  0.00  0.00    +0.112 C 
BRANCH  19  20
ATOM     20  C   UNL     1       1.024   0.322  -4.013  0.00  0.00    -0.058 C 
ATOM     21  C   UNL     1       2.293  -0.058  -4.014  0.00  0.00    +0.008 C 
ATOM     22  C   UNL     1       0.390   0.838  -5.279  0.00  0.00    +0.040 C 
BRANCH  21  23
ATOM     23  C   UNL     1       3.135   0.180  -5.206  0.00  0.00    -0.025 A 
ATOM     24  C   UNL     1       4.153  -0.715  -5.535  0.00  0.00    +0.008 A 
ATOM     25  C   UNL     1       4.932  -0.490  -6.652  0.00  0.00    +0.001 A 
ATOM     26  C   UNL     1       4.712   0.628  -7.438  0.00  0.00    +0.000 A 
ATOM     27  C   UNL     1       3.708   1.522  -7.114  0.00  0.00    +0.001 A 
ATOM     28  C   UNL     1       2.918   1.305  -6.003  0.00  0.00    +0.008 A 
ENDBRANCH  21  23
ENDBRANCH  19  20
ENDBRANCH  17  19
ENDBRANCH   3  17
TORSDOF 7
