REMARK  Name = ZINC20355332
REMARK  9 active torsions:
REMARK  status: ('A' for Active; 'I' for Inactive)
REMARK    1  A    between atoms: C_1  and  C_2
REMARK    2  A    between atoms: C_5  and  C_8
REMARK    3  A    between atoms: C_15  and  C_20
REMARK    4  A    between atoms: N_22  and  C_23
REMARK    5  A    between atoms: C_23  and  C_24
REMARK    6  A    between atoms: C_24  and  C_25
REMARK    7  A    between atoms: C_25  and  N_26
REMARK    8  A    between atoms: N_26  and  C_27
REMARK    9  A    between atoms: N_26  and  C_28
REMARK                            x       y       z     vdW  Elec       q    Type
REMARK                         _______ _______ _______ _____ _____    ______ ____
ROOT
ATOM      1  C   UNL     1      -8.549  10.335  -5.283  0.00  0.00    +0.028 C 
ATOM      2  C   UNL     1      -7.224  10.050  -5.269  0.00  0.00    +0.075 C 
ATOM      3  C   UNL     1      -6.216  11.037  -4.824  0.00  0.00    +0.255 C 
ATOM      4  O   UNL     1      -6.447  12.226  -4.934  0.00  0.00    -0.269 OA
ATOM      5  N   UNL     1      -5.055  10.633  -4.302  0.00  0.00    -0.280 N 
ATOM      6  C   UNL     1      -4.681   9.324  -4.024  0.00  0.00    +0.048 A 
ATOM      7  C   UNL     1      -3.655   9.109  -3.112  0.00  0.00    +0.037 A 
ATOM      8  C   UNL     1      -3.248   7.811  -2.801  0.00  0.00    +0.039 A 
ATOM      9  C   UNL     1      -3.869   6.715  -3.409  0.00  0.00    +0.014 A 
ATOM     10  C   UNL     1      -4.890   6.924  -4.309  0.00  0.00    +0.017 A 
ATOM     11  C   UNL     1      -5.294   8.216  -4.620  0.00  0.00    +0.034 A 
ATOM     12  S   UNL     1      -6.599   8.472  -5.785  0.00  0.00    -0.082 S 
ATOM     13  H   UNL     1      -4.279  11.371  -4.048  0.00  0.00    +0.155 HD
ENDROOT
BRANCH   1  18
ATOM     14  C   UNL     1     -10.468  15.192  -2.884  0.00  0.00    +0.044 C 
ATOM     15  C   UNL     1      -9.965  13.918  -3.513  0.00  0.00    -0.050 A 
ATOM     16  C   UNL     1     -10.574  13.427  -4.655  0.00  0.00    +0.004 A 
ATOM     17  C   UNL     1     -10.120  12.263  -5.237  0.00  0.00    +0.008 A 
ATOM     18  C   UNL     1      -9.040  11.577  -4.669  0.00  0.00    -0.024 A 
ATOM     19  C   UNL     1      -8.434  12.077  -3.512  0.00  0.00    +0.008 A 
ATOM     20  C   UNL     1      -8.897  13.246  -2.946  0.00  0.00    +0.004 A 
ENDBRANCH   1  18
BRANCH   8  21
ATOM     21  C   UNL     1      -2.157   7.595  -1.833  0.00  0.00    +0.244 C 
ATOM     22  O   UNL     1      -1.613   8.547  -1.307  0.00  0.00    -0.270 OA
ATOM     23  N   UNL     1      -1.763   6.342  -1.531  0.00  0.00    -0.311 N 
ATOM     24  H   UNL     1      -2.255   5.481  -2.006  0.00  0.00    +0.149 HD
BRANCH  23  25
ATOM     25  C   UNL     1      -0.678   6.127  -0.569  0.00  0.00    +0.102 C 
BRANCH  25  26
ATOM     26  C   UNL     1      -0.430   4.626  -0.408  0.00  0.00    +0.000 C 
BRANCH  26  27
ATOM     27  C   UNL     1       0.702   4.401   0.597  0.00  0.00    -0.077 C 
BRANCH  27  28
ATOM     28  N   UNL     1       0.940   2.960   0.751  0.00  0.00    +0.380 N 
ATOM     29  C   UNL     1       1.456   2.375  -0.493  0.00  0.00    -0.096 C 
ATOM     30  H   UNL     1      -0.024   2.480   0.976  0.00  0.00    -0.082 HD
BRANCH  28  31
ATOM     31  C   UNL     1       1.849   2.694   1.874  0.00  0.00    -0.069 C 
ATOM     32  C   UNL     1       3.228   3.283   1.565  0.00  0.00    -0.015 C 
ATOM     33  C   UNL     1       4.174   3.006   2.734  0.00  0.00    -0.002 C 
ATOM     34  C   UNL     1       4.300   1.496   2.943  0.00  0.00    -0.000 C 
ATOM     35  C   UNL     1       2.922   0.907   3.252  0.00  0.00    -0.002 C 
ATOM     36  C   UNL     1       1.975   1.184   2.083  0.00  0.00    -0.015 C 
ENDBRANCH  28  31
ENDBRANCH  27  28
ENDBRANCH  26  27
ENDBRANCH  25  26
ENDBRANCH  23  25
ENDBRANCH   8  21
TORSDOF 7
