REMARK  Name = ZINC38091999
REMARK  5 active torsions:
REMARK  status: ('A' for Active; 'I' for Inactive)
REMARK    1  A    between atoms: C_5  and  N_7
REMARK    2  A    between atoms: C_8  and  C_10
REMARK    3  A    between atoms: C_10  and  N_11
REMARK    4  A    between atoms: N_11  and  C_12
REMARK    5  A    between atoms: C_15  and  C_18
REMARK                            x       y       z     vdW  Elec       q    Type
REMARK                         _______ _______ _______ _____ _____    ______ ____
ROOT
ATOM      1  N   UNL     1      -1.254  -4.789   0.300  0.00  0.00    +0.387 N 
ATOM      2  H   UNL     1      -1.692  -4.404   1.123  0.00  0.00    -0.085 HD
ATOM      3  H   UNL     1      -1.779  -4.520  -0.519  0.00  0.00    -0.085 HD
ENDROOT
BRANCH   1   4
ATOM      4  C   UNL     1      -1.222  -6.254   0.401  0.00  0.00    -0.071 C 
ATOM      5  C   UNL     1      -0.671  -6.844  -0.899  0.00  0.00    -0.015 C 
ATOM      6  C   UNL     1      -0.638  -8.370  -0.793  0.00  0.00    +0.011 C 
ATOM      7  C   UNL     1      -2.055  -8.895  -0.555  0.00  0.00    +0.075 C 
ATOM      8  C   UNL     1      -2.606  -8.306   0.745  0.00  0.00    +0.011 C 
ATOM      9  C   UNL     1      -2.639  -6.780   0.639  0.00  0.00    -0.015 C 
BRANCH   7  10
ATOM     10  C   UNL     1      -2.022 -10.398  -0.451  0.00  0.00    +0.214 C 
ATOM     11  O   UNL     1      -0.970 -10.991  -0.557  0.00  0.00    -0.276 OA
ATOM     12  N   UNL     1      -3.163 -11.084  -0.240  0.00  0.00    -0.329 N 
ATOM     13  H   UNL     1      -4.006 -10.610  -0.156  0.00  0.00    +0.145 HD
ATOM     14  H   UNL     1      -3.143 -12.052  -0.173  0.00  0.00    +0.145 HD
ENDBRANCH   7  10
ENDBRANCH   1   4
BRANCH   1  15
ATOM     15  C   UNL     1       0.119  -4.276   0.191  0.00  0.00    +0.015 C 
BRANCH  15  17
ATOM     16  N   UNL     1       1.237  -2.080  -0.022  0.00  0.00    -0.286 N 
ATOM     17  C   UNL     1       0.086  -2.773   0.087  0.00  0.00    +0.200 C 
ATOM     18  O   UNL     1      -0.976  -2.187   0.102  0.00  0.00    -0.278 OA
ATOM     19  H   UNL     1       2.080  -2.551  -0.115  0.00  0.00    +0.155 HD
BRANCH  16  24
ATOM     20  C   UNL     1       0.153   1.372   0.637  0.00  0.00    +0.002 A 
ATOM     21  C   UNL     1       1.173   2.086   0.035  0.00  0.00    +0.001 A 
ATOM     22  C   UNL     1       2.214   1.421  -0.586  0.00  0.00    +0.017 A 
ATOM     23  C   UNL     1       2.239   0.040  -0.607  0.00  0.00    +0.039 A 
ATOM     24  C   UNL     1       1.216  -0.681  -0.003  0.00  0.00    +0.047 A 
ATOM     25  C   UNL     1       0.172  -0.009   0.620  0.00  0.00    +0.024 A 
ATOM     26 BR   UNL     1       3.662  -0.869  -1.458  0.00  0.00    -0.048 Br
ENDBRANCH  16  24
ENDBRANCH  15  17
ENDBRANCH   1  15
TORSDOF 5
