REMARK  Name = ZINC40105447
REMARK  7 active torsions:
REMARK  status: ('A' for Active; 'I' for Inactive)
REMARK    1  A    between atoms: C_1  and  C_2
REMARK    2  A    between atoms: C_2  and  C_4
REMARK    3  A    between atoms: C_2  and  O_15
REMARK    4  A    between atoms: N_6  and  C_7
REMARK    5  A    between atoms: O_15  and  C_16
REMARK    6  A    between atoms: C_16  and  C_18
REMARK    7  A    between atoms: C_27  and  N_28
REMARK                            x       y       z     vdW  Elec       q    Type
REMARK                         _______ _______ _______ _____ _____    ______ ____
ROOT
ATOM      1  C   UNL     1       1.356  -0.707   1.138  0.00  0.00    +0.343 C 
ATOM      2  O   UNL     1       1.917  -0.449   0.091  0.00  0.00    -0.245 OA
ENDROOT
BRANCH   1   3
ATOM      3  C   UNL     1       2.128  -1.224   2.279  0.00  0.00    +0.096 A 
ATOM      4  C   UNL     1       1.474  -1.630   3.453  0.00  0.00    +0.099 A 
ATOM      5  N   UNL     1       2.136  -2.093   4.482  0.00  0.00    -0.360 N 
ATOM      6  C   UNL     1       3.472  -2.208   4.476  0.00  0.00    +0.048 A 
ATOM      7  C   UNL     1       4.155  -2.709   5.595  0.00  0.00    +0.026 A 
ATOM      8  C   UNL     1       5.512  -2.818   5.568  0.00  0.00    +0.002 A 
ATOM      9  C   UNL     1       6.240  -2.438   4.444  0.00  0.00    +0.001 A 
ATOM     10  C   UNL     1       5.610  -1.946   3.339  0.00  0.00    +0.012 A 
ATOM     11  C   UNL     1       4.214  -1.823   3.334  0.00  0.00    +0.020 A 
ATOM     12  C   UNL     1       3.526  -1.322   2.203  0.00  0.00    +0.049 A 
ATOM     13  H   UNL     1       1.645  -2.362   5.274  0.00  0.00    +0.165 HD
BRANCH  12  14
ATOM     14  N   UNL     1       4.206  -0.940   1.068  0.00  0.00    -0.357 N 
ATOM     15  H   UNL     1       3.715  -0.668   0.277  0.00  0.00    +0.142 HD
ATOM     16  H   UNL     1       5.176  -0.942   1.060  0.00  0.00    +0.142 HD
ENDBRANCH  12  14
ENDBRANCH   1   3
BRANCH   1  17
ATOM     17  O   UNL     1       0.027  -0.519   1.254  0.00  0.00    -0.449 OA
BRANCH  17  19
ATOM     18  C   UNL     1      -0.675   1.515   0.154  0.00  0.00    +0.062 C 
ATOM     19  C   UNL     1      -0.660  -0.014   0.107  0.00  0.00    +0.259 C 
BRANCH  19  20
ATOM     20  C   UNL     1      -2.076  -0.531   0.102  0.00  0.00    +0.258 C 
ATOM     21  O   UNL     1      -2.487  -1.184   1.037  0.00  0.00    -0.271 OA
ATOM     22  N   UNL     1      -2.885  -0.266  -0.943  0.00  0.00    -0.281 N 
ATOM     23  H   UNL     1      -2.578   0.308  -1.661  0.00  0.00    +0.155 HD
BRANCH  22  24
ATOM     24  C   UNL     1      -4.170  -0.821  -0.991  0.00  0.00    +0.053 A 
ATOM     25  C   UNL     1      -4.893  -1.002   0.180  0.00  0.00    +0.025 A 
ATOM     26  C   UNL     1      -6.161  -1.549   0.130  0.00  0.00    +0.003 A 
ATOM     27  C   UNL     1      -6.710  -1.917  -1.084  0.00  0.00    +0.021 A 
ATOM     28  C   UNL     1      -5.993  -1.738  -2.254  0.00  0.00    +0.061 A 
ATOM     29  C   UNL     1      -4.725  -1.185  -2.211  0.00  0.00    +0.080 A 
ATOM     30 CL   UNL     1      -3.828  -0.954  -3.679  0.00  0.00    -0.080 Cl
ATOM     31 CL   UNL     1      -6.686  -2.201  -3.776  0.00  0.00    -0.082 Cl
ENDBRANCH  22  24
ENDBRANCH  19  20
ENDBRANCH  17  19
ENDBRANCH   1  17
TORSDOF 6
