REMARK  Name = ZINC05741633
REMARK  5 active torsions:
REMARK  status: ('A' for Active; 'I' for Inactive)
REMARK    1  A    between atoms: C_1  and  N_2
REMARK    2  A    between atoms: N_2  and  C_3
REMARK    3  A    between atoms: C_3  and  N_5
REMARK    4  A    between atoms: N_5  and  N_6
REMARK    5  A    between atoms: N_15  and  C_16
REMARK                            x       y       z     vdW  Elec       q    Type
REMARK                         _______ _______ _______ _____ _____    ______ ____
ROOT
ATOM      1  N   UNL     1      -1.214   1.704   0.008  0.00  0.00    -0.233 N 
ATOM      2  C   UNL     1      -0.054   1.129  -0.407  0.00  0.00    +0.223 A 
ATOM      3  N   UNL     1       1.078   1.766  -0.445  0.00  0.00    -0.216 NA
ATOM      4  C   UNL     1       1.195   3.051  -0.070  0.00  0.00    +0.168 A 
ATOM      5  C   UNL     1       0.065   3.744   0.381  0.00  0.00    +0.080 A 
ATOM      6  C   UNL     1      -1.216   3.023   0.424  0.00  0.00    +0.136 A 
ATOM      7  N   UNL     1      -2.315   3.608   0.834  0.00  0.00    -0.383 N 
ATOM      8  C   UNL     1       0.471   5.050   0.702  0.00  0.00    +0.148 A 
ATOM      9  N   UNL     1       1.752   5.152   0.466  0.00  0.00    -0.172 NA
ATOM     10  N   UNL     1       2.236   3.929  -0.015  0.00  0.00    -0.214 N 
ATOM     11  H   UNL     1      -2.291   4.659   1.160  0.00  0.00    +0.157 HD
ATOM     12  H   UNL     1      -3.262   3.049   0.853  0.00  0.00    +0.157 HD
ENDROOT
BRANCH  10  13
ATOM     13  C   UNL     1       3.561   3.655  -0.376  0.00  0.00    +0.068 A 
ATOM     14  C   UNL     1       4.102   2.398  -0.138  0.00  0.00    +0.028 A 
ATOM     15  C   UNL     1       5.407   2.129  -0.501  0.00  0.00    +0.002 A 
ATOM     16  C   UNL     1       6.179   3.114  -1.089  0.00  0.00    +0.000 A 
ATOM     17  C   UNL     1       5.646   4.368  -1.323  0.00  0.00    +0.002 A 
ATOM     18  C   UNL     1       4.339   4.641  -0.968  0.00  0.00    +0.028 A 
ENDBRANCH  10  13
BRANCH   1  19
ATOM     19  N   UNL     1      -2.402   0.961   0.019  0.00  0.00    -0.232 N 
ATOM     20  H   UNL     1      -3.331   1.404  -0.369  0.00  0.00    +0.175 HD
BRANCH  19  21
ATOM     21  C   UNL     1      -2.406  -0.296   0.505  0.00  0.00    +0.149 C 
ATOM     22  S   UNL     1      -0.997  -0.935   1.238  0.00  0.00    -0.017 S 
BRANCH  21  24
ATOM     23  C   UNL     1      -3.525  -2.415   0.944  0.00  0.00    +0.127 C 
ATOM     24  N   UNL     1      -3.520  -1.049   0.415  0.00  0.00    -0.328 N 
ATOM     25  H   UNL     1      -4.426  -0.638  -0.055  0.00  0.00    +0.147 HD
ENDBRANCH  21  24
ENDBRANCH  19  21
ENDBRANCH   1  19
TORSDOF 4
