REMARK  Name = ZINC64968085
REMARK  7 active torsions:
REMARK  status: ('A' for Active; 'I' for Inactive)
REMARK    1  A    between atoms: C_4  and  C_7
REMARK    2  A    between atoms: C_7  and  C_8
REMARK    3  A    between atoms: C_8  and  C_9
REMARK    4  A    between atoms: C_15  and  C_19
REMARK    5  A    between atoms: N_21  and  C_22
REMARK    6  A    between atoms: C_22  and  C_23
REMARK    7  A    between atoms: C_23  and  C_24
REMARK                            x       y       z     vdW  Elec       q    Type
REMARK                         _______ _______ _______ _____ _____    ______ ____
ROOT
ATOM      1  C   UNL     1       5.507  -1.710   1.381  0.00  0.00    +0.261 C 
ATOM      2  N   UNL     1       5.915  -2.049   2.751  0.00  0.00    -0.307 N 
ATOM      3  C   UNL     1       7.135  -1.405   2.969  0.00  0.00    +0.072 A 
ATOM      4  C   UNL     1       7.964  -1.382   4.086  0.00  0.00    +0.027 A 
ATOM      5  C   UNL     1       9.138  -0.664   4.064  0.00  0.00    +0.015 A 
ATOM      6  C   UNL     1       9.499   0.045   2.915  0.00  0.00    +0.040 A 
ATOM      7  C   UNL     1       8.667   0.022   1.793  0.00  0.00    +0.060 A 
ATOM      8  C   UNL     1       7.487  -0.701   1.818  0.00  0.00    +0.145 A 
ATOM      9  O   UNL     1       6.536  -0.867   0.858  0.00  0.00    -0.469 OA
ATOM     10  H   UNL     1       5.432  -2.608   3.380  0.00  0.00    +0.150 HD
ENDROOT
BRANCH   6  11
ATOM     11  C   UNL     1      10.756   0.816   2.887  0.00  0.00    +0.244 C 
ATOM     12  O   UNL     1      11.069   1.432   1.886  0.00  0.00    -0.270 OA
ATOM     13  N   UNL     1      11.558   0.838   3.970  0.00  0.00    -0.311 N 
ATOM     14  H   UNL     1      11.308   0.346   4.768  0.00  0.00    +0.149 HD
BRANCH  13  15
ATOM     15  C   UNL     1      12.806   1.603   3.942  0.00  0.00    +0.109 C 
BRANCH  15  16
ATOM     16  C   UNL     1      13.522   1.461   5.287  0.00  0.00    +0.052 C 
BRANCH  16  17
ATOM     17  C   UNL     1      14.806   2.249   5.259  0.00  0.00    -0.040 C 
ATOM     18  C   UNL     1      14.996   3.511   5.706  0.00  0.00    -0.001 A 
ATOM     19  C   UNL     1      14.097   4.491   6.329  0.00  0.00    +0.010 A 
ATOM     20  C   UNL     1      14.588   5.703   6.676  0.00  0.00    +0.001 A 
ATOM     21  C   UNL     1      15.929   6.045   6.457  0.00  0.00    +0.002 A 
ATOM     22  C   UNL     1      16.815   5.199   5.891  0.00  0.00    +0.026 A 
ATOM     23  C   UNL     1      16.408   3.897   5.486  0.00  0.00    +0.043 A 
ATOM     24  N   UNL     1      17.065   2.912   4.925  0.00  0.00    -0.380 N 
ATOM     25  C   UNL     1      16.145   1.786   4.730  0.00  0.00    +0.144 C 
ATOM     26  H   UNL     1      18.004   2.924   4.682  0.00  0.00    +0.160 HD
ENDBRANCH  16  17
ENDBRANCH  15  16
ENDBRANCH  13  15
ENDBRANCH   6  11
BRANCH   1  27
ATOM     27  C   UNL     1       4.171  -0.963   1.399  0.00  0.00    +0.070 C 
BRANCH  27  28
ATOM     28  C   UNL     1       3.711  -0.707  -0.038  0.00  0.00    +0.040 C 
BRANCH  28  32
ATOM     29  C   UNL     1      -0.017   1.378   0.010  0.00  0.00    +0.000 A 
ATOM     30  C   UNL     1       1.171   2.086   0.002  0.00  0.00    +0.000 A 
ATOM     31  C   UNL     1       2.377   1.411  -0.013  0.00  0.00    +0.003 A 
ATOM     32  C   UNL     1       2.396   0.029  -0.020  0.00  0.00    -0.047 A 
ATOM     33  C   UNL     1       1.208  -0.679  -0.012  0.00  0.00    +0.003 A 
ATOM     34  C   UNL     1       0.002  -0.004   0.002  0.00  0.00    +0.000 A 
ENDBRANCH  28  32
ENDBRANCH  27  28
ENDBRANCH   1  27
TORSDOF 7
