REMARK  Name = ZINC13721838
REMARK  10 active torsions:
REMARK  status: ('A' for Active; 'I' for Inactive)
REMARK    1  A    between atoms: C_1  and  N_65
REMARK    2  A    between atoms: C_2  and  N_65
REMARK    3  A    between atoms: C_3  and  C_4
REMARK    4  A    between atoms: C_3  and  N_65
REMARK    5  A    between atoms: C_4  and  C_5
REMARK    6  A    between atoms: C_5  and  N_6
REMARK    7  A    between atoms: C_7  and  C_9
REMARK    8  A    between atoms: N_11  and  C_12
REMARK    9  A    between atoms: C_17  and  C_18
REMARK   10  A    between atoms: N_20  and  C_21
REMARK                            x       y       z     vdW  Elec       q    Type
REMARK                         _______ _______ _______ _____ _____    ______ ____
ROOT
ATOM      1  C   UNL     1      -2.669   7.935  -2.039  0.00  0.00    +0.046 A 
ATOM      2  C   UNL     1      -2.688   9.323  -2.021  0.00  0.00    +0.024 A 
ATOM      3  C   UNL     1      -2.184  10.007  -0.933  0.00  0.00    +0.002 A 
ATOM      4  C   UNL     1      -1.658   9.317   0.147  0.00  0.00    +0.001 A 
ATOM      5  C   UNL     1      -1.636   7.939   0.149  0.00  0.00    +0.015 A 
ATOM      6  C   UNL     1      -2.137   7.233  -0.947  0.00  0.00    +0.058 A 
ENDROOT
BRANCH   1   9
ATOM      7  C   UNL     1      -3.037   7.750  -4.375  0.00  0.00    +0.303 C 
ATOM      8  O   UNL     1      -2.385   8.759  -4.549  0.00  0.00    -0.265 OA
ATOM      9  N   UNL     1      -3.177   7.243  -3.135  0.00  0.00    -0.277 N 
ATOM     10  H   UNL     1      -3.632   6.396  -3.005  0.00  0.00    +0.155 HD
BRANCH   7  12
ATOM     11  N   UNL     1      -3.542   7.575  -6.779  0.00  0.00    -0.308 N 
ATOM     12  C   UNL     1      -3.682   7.069  -5.537  0.00  0.00    +0.299 C 
ATOM     13  O   UNL     1      -4.333   6.059  -5.364  0.00  0.00    -0.265 OA
ATOM     14  H   UNL     1      -3.022   8.382  -6.917  0.00  0.00    +0.149 HD
BRANCH  11  15
ATOM     15  C   UNL     1      -4.175   6.908  -7.918  0.00  0.00    +0.103 C 
BRANCH  15  16
ATOM     16  C   UNL     1      -3.862   7.681  -9.201  0.00  0.00    +0.000 C 
BRANCH  16  17
ATOM     17  C   UNL     1      -4.524   6.984 -10.391  0.00  0.00    -0.078 C 
BRANCH  17  20
ATOM     18  C   UNL     1      -4.637   6.966 -12.810  0.00  0.00    -0.097 C 
ATOM     19  C   UNL     1      -4.851   9.054 -11.603  0.00  0.00    -0.097 C 
ATOM     20  N   UNL     1      -4.195   7.730 -11.624  0.00  0.00    +0.376 N 
ATOM     21  H   UNL     1      -3.178   7.862 -11.672  0.00  0.00    -0.083 HD
ENDBRANCH  17  20
ENDBRANCH  16  17
ENDBRANCH  15  16
ENDBRANCH  11  15
ENDBRANCH   7  12
ENDBRANCH   1   9
BRANCH   6  22
ATOM     22  C   UNL     1      -2.111   5.758  -0.954  0.00  0.00    +0.246 C 
ATOM     23  O   UNL     1      -2.633   5.145  -1.865  0.00  0.00    -0.270 OA
ATOM     24  N   UNL     1      -1.510   5.090   0.050  0.00  0.00    -0.306 N 
ATOM     25  H   UNL     1      -1.093   5.579   0.777  0.00  0.00    +0.150 HD
BRANCH  24  26
ATOM     26  C   UNL     1      -1.484   3.625   0.043  0.00  0.00    +0.036 C 
ATOM     27  C   UNL     1      -0.762   3.133  -1.213  0.00  0.00    +0.029 C 
ATOM     28  C   UNL     1      -0.736   1.603  -1.220  0.00  0.00    -0.008 C 
ATOM     29  C   UNL     1       0.002   1.100   0.022  0.00  0.00    +0.007 C 
ATOM     30  C   UNL     1      -0.720   1.592   1.279  0.00  0.00    -0.008 C 
ATOM     31  C   UNL     1      -0.747   3.122   1.286  0.00  0.00    +0.029 C 
ATOM     32  C   UNL     1      -2.154   1.057   1.285  0.00  0.00    +0.007 C 
ATOM     33  C   UNL     1      -2.891   1.560   0.043  0.00  0.00    -0.008 C 
ATOM     34  C   UNL     1      -2.169   1.068  -1.213  0.00  0.00    +0.007 C 
ATOM     35  C   UNL     1      -2.918   3.090   0.050  0.00  0.00    +0.029 C 
ENDBRANCH  24  26
ENDBRANCH   6  22
TORSDOF 8
