REMARK  Name = ZINC00860757
REMARK  4 active torsions:
REMARK  status: ('A' for Active; 'I' for Inactive)
REMARK    1  A    between atoms: C_4  and  C_7
REMARK    2  A    between atoms: C_14  and  C_25
REMARK    3  A    between atoms: N_16  and  C_19
REMARK    4  A    between atoms: C_29  and  N_31
REMARK                            x       y       z     vdW  Elec       q    Type
REMARK                         _______ _______ _______ _____ _____    ______ ____
ROOT
ATOM      1  C   UNL     1       3.677  -0.655  -0.166  0.00  0.00    +0.050 C 
ATOM      2  N   UNL     1       4.806   0.011  -0.307  0.00  0.00    -0.382 N 
ATOM      3  C   UNL     1       6.056  -0.714  -0.510  0.00  0.00    +0.131 C 
ATOM      4  C   UNL     1       6.634  -1.315   0.776  0.00  0.00    +0.122 C 
ATOM      5  N   UNL     1       5.566  -1.963   1.546  0.00  0.00    -0.338 N 
ATOM      6  C   UNL     1       4.618  -2.696   0.849  0.00  0.00    +0.098 C 
ATOM      7  C   UNL     1       3.736  -2.110   0.006  0.00  0.00    +0.027 C 
ATOM      8  C   UNL     1       2.923  -3.202  -0.618  0.00  0.00    +0.146 C 
ATOM      9  N   UNL     1       3.394  -4.452   0.002  0.00  0.00    -0.255 N 
ATOM     10  C   UNL     1       4.377  -4.144   0.857  0.00  0.00    +0.266 C 
ATOM     11  O   UNL     1       4.976  -4.947   1.546  0.00  0.00    -0.268 OA
ATOM     12  H   UNL     1       5.525  -1.882   2.511  0.00  0.00    +0.146 HD
ATOM     13  H   UNL     1       4.806   0.981  -0.276  0.00  0.00    +0.160 HD
ENDROOT
BRANCH   1  17
ATOM     14  C   UNL     1      -0.057   1.377  -0.191  0.00  0.00    +0.000 A 
ATOM     15  C   UNL     1       0.167   0.359   0.719  0.00  0.00    +0.001 A 
ATOM     16  C   UNL     1       1.377  -0.304   0.731  0.00  0.00    +0.010 A 
ATOM     17  C   UNL     1       2.375   0.053  -0.175  0.00  0.00    -0.002 A 
ATOM     18  C   UNL     1       2.143   1.080  -1.089  0.00  0.00    +0.010 A 
ATOM     19  C   UNL     1       0.929   1.736  -1.093  0.00  0.00    +0.001 A 
ENDBRANCH   1  17
BRANCH   9  20
ATOM     20  C   UNL     1       2.905  -5.735  -0.262  0.00  0.00    +0.038 A 
ATOM     21  C   UNL     1       1.886  -5.915  -1.188  0.00  0.00    +0.023 A 
ATOM     22  C   UNL     1       1.406  -7.183  -1.447  0.00  0.00    +0.002 A 
ATOM     23  C   UNL     1       1.939  -8.274  -0.785  0.00  0.00    +0.000 A 
ATOM     24  C   UNL     1       2.954  -8.099   0.138  0.00  0.00    +0.002 A 
ATOM     25  C   UNL     1       3.442  -6.833   0.398  0.00  0.00    +0.023 A 
ENDBRANCH   9  20
BRANCH   8  26
ATOM     26  C   UNL     1       1.460  -2.993  -0.326  0.00  0.00    -0.020 A 
ATOM     27  C   UNL     1       0.949  -3.319   0.916  0.00  0.00    +0.006 A 
ATOM     28  C   UNL     1      -0.394  -3.128   1.184  0.00  0.00    +0.003 A 
ATOM     29  C   UNL     1      -1.226  -2.610   0.209  0.00  0.00    +0.033 A 
ATOM     30  C   UNL     1      -0.715  -2.283  -1.033  0.00  0.00    +0.127 A 
ATOM     31  C   UNL     1       0.629  -2.470  -1.299  0.00  0.00    +0.038 A 
BRANCH  30  32
ATOM     32  N   UNL     1      -1.605  -1.728  -2.077  0.00  0.00    +0.056 N 
ATOM     33  O   UNL     1      -2.780  -1.561  -1.844  0.00  0.00    -0.126 OA
ATOM     34  O   UNL     1      -1.159  -1.442  -3.164  0.00  0.00    -0.126 OA
ENDBRANCH  30  32
ENDBRANCH   8  26
TORSDOF 4
