REMARK  Name = ZINC20431635
REMARK  6 active torsions:
REMARK  status: ('A' for Active; 'I' for Inactive)
REMARK    1  A    between atoms: C_1  and  C_2
REMARK    2  A    between atoms: N_5  and  S_8
REMARK    3  A    between atoms: S_8  and  N_11
REMARK    4  A    between atoms: N_11  and  C_12
REMARK    5  A    between atoms: C_12  and  C_20
REMARK    6  A    between atoms: C_20  and  N_21
REMARK                            x       y       z     vdW  Elec       q    Type
REMARK                         _______ _______ _______ _____ _____    ______ ____
ROOT
ATOM      1  C   UNL     1       4.213  -0.287  -1.001  0.00  0.00    +0.026 C 
ATOM      2  C   UNL     1       3.025   0.658  -1.100  0.00  0.00    +0.022 C 
ATOM      3  C   UNL     1       2.320   0.649  -2.446  0.00  0.00    +0.002 C 
ATOM      4  C   UNL     1       1.088  -0.258  -2.394  0.00  0.00    +0.000 C 
ATOM      5  C   UNL     1       1.513  -1.722  -2.393  0.00  0.00    +0.000 C 
ATOM      6  C   UNL     1       2.646  -1.964  -3.378  0.00  0.00    +0.000 C 
ATOM      7  C   UNL     1       3.966  -2.203  -2.647  0.00  0.00    +0.002 C 
ATOM      8  C   UNL     1       4.647  -0.872  -2.338  0.00  0.00    +0.022 C 
ENDROOT
BRANCH   1   9
ATOM      9  N   UNL     1       3.914  -1.347  -0.033  0.00  0.00    -0.175 NA
ATOM     10  H   UNL     1       2.870  -1.591   0.210  0.00  0.00    +0.150 HD
BRANCH   9  11
ATOM     11  S   UNL     1       5.132  -2.005   0.876  0.00  0.00    +0.097 S 
ATOM     12  O   UNL     1       4.507  -2.755   1.909  0.00  0.00    -0.141 OA
ATOM     13  O   UNL     1       6.051  -0.955   1.146  0.00  0.00    -0.141 OA
BRANCH  11  18
ATOM     14  C   UNL     1       6.391  -4.906  -3.907  0.00  0.00    +0.007 C 
ATOM     15  C   UNL     1       6.565  -4.537  -2.433  0.00  0.00    -0.012 C 
ATOM     16  C   UNL     1       5.263  -4.818  -1.679  0.00  0.00    +0.020 C 
ATOM     17  C   UNL     1       5.452  -4.480  -0.197  0.00  0.00    +0.111 C 
ATOM     18  N   UNL     1       5.927  -3.094  -0.085  0.00  0.00    -0.167 NA
ATOM     19  C   UNL     1       7.121  -2.693  -0.842  0.00  0.00    +0.111 C 
ATOM     20  C   UNL     1       6.913  -3.051  -2.317  0.00  0.00    +0.020 C 
ENDBRANCH  11  18
ENDBRANCH   9  11
ENDBRANCH   1   9
BRANCH   1  21
ATOM     21  C   UNL     1       5.407   0.517  -0.435  0.00  0.00    -0.062 C 
BRANCH  21  22
ATOM     22  N   UNL     1       5.079   0.996   0.914  0.00  0.00    +0.379 N 
ATOM     23  H   UNL     1       5.928   1.568   1.317  0.00  0.00    -0.090 HD
ATOM     24  H   UNL     1       4.873   0.136   1.568  0.00  0.00    -0.090 HD
ATOM     25  H   UNL     1       4.191   1.643   0.868  0.00  0.00    -0.090 HD
ENDBRANCH  21  22
ENDBRANCH   1  21
TORSDOF 5
