REMARK  Name = ZINC12872050
REMARK  13 active torsions:
REMARK  status: ('A' for Active; 'I' for Inactive)
REMARK    1  A    between atoms: C_1  and  C_2
REMARK    2  A    between atoms: C_10  and  C_23
REMARK    3  A    between atoms: C_15  and  C_16
REMARK    4  A    between atoms: C_15  and  O_19
REMARK    5  A    between atoms: C_16  and  C_18
REMARK    6  A    between atoms: O_19  and  C_20
REMARK    7  A    between atoms: C_20  and  C_22
REMARK    8  A    between atoms: C_24  and  C_41
REMARK    9  A    between atoms: C_27  and  O_31
REMARK   10  A    between atoms: O_31  and  C_32
REMARK   11  A    between atoms: C_32  and  C_34
REMARK   12  A    between atoms: C_34  and  C_35
REMARK   13  A    between atoms: C_35  and  N_85
REMARK                            x       y       z     vdW  Elec       q    Type
REMARK                         _______ _______ _______ _____ _____    ______ ____
ROOT
ATOM      1  C   UNL     1      -0.460  -0.451  -0.481  0.00  0.00    +0.044 C 
ATOM      2  C   UNL     1       0.589   0.625  -0.361  0.00  0.00    -0.051 C 
ATOM      3  C   UNL     1       0.227   1.889  -0.214  0.00  0.00    -0.019 C 
ATOM      4  C   UNL     1       1.201   3.018  -0.104  0.00  0.00    +0.020 C 
ATOM      5  C   UNL     1       2.583   2.544   0.324  0.00  0.00    +0.006 C 
ATOM      6  C   UNL     1       2.502   2.015   1.762  0.00  0.00    +0.005 C 
ATOM      7  C   UNL     1       2.089   3.165   2.678  0.00  0.00    +0.011 C 
ATOM      8  C   UNL     1       0.743   3.724   2.282  0.00  0.00    +0.018 C 
ATOM      9  C   UNL     1       0.664   4.123   0.798  0.00  0.00    +0.006 C 
ATOM     10  C   UNL     1      -0.864   4.214   0.542  0.00  0.00    +0.009 C 
ATOM     11  C   UNL     1      -1.531   3.281   1.570  0.00  0.00    +0.057 C 
ATOM     12  C   UNL     1      -0.393   2.694   2.437  0.00  0.00    +0.176 C 
ATOM     13  C   UNL     1       0.438   4.946   3.151  0.00  0.00    +0.016 C 
ATOM     14  C   UNL     1       3.008   1.390  -0.594  0.00  0.00    -0.003 C 
ATOM     15  C   UNL     1       2.025   0.269  -0.409  0.00  0.00    -0.039 C 
ATOM     16  C   UNL     1       2.382  -0.994  -0.291  0.00  0.00    +0.021 C 
ATOM     17  C   UNL     1       3.813  -1.446  -0.237  0.00  0.00    +0.200 C 
ATOM     18  C   UNL     1       4.711  -0.405  -0.907  0.00  0.00    +0.050 C 
ATOM     19  C   UNL     1       4.431   0.964  -0.282  0.00  0.00    +0.015 C 
ATOM     20  C   UNL     1       2.944   1.868  -2.046  0.00  0.00    +0.016 C 
ENDROOT
BRANCH  12  21
ATOM     21  C   UNL     1      -0.822   2.591   3.878  0.00  0.00    +0.174 C 
ATOM     22  O   UNL     1      -0.397   3.375   4.692  0.00  0.00    -0.293 OA
ATOM     23  C   UNL     1      -1.782   1.510   4.302  0.00  0.00    +0.090 C 
ENDBRANCH  12  21
BRANCH  12  24
ATOM     24  O   UNL     1       0.020   1.398   1.931  0.00  0.00    -0.450 OA
BRANCH  24  25
ATOM     25  C   UNL     1       0.666   0.588   2.784  0.00  0.00    +0.305 C 
ATOM     26  O   UNL     1       0.927   0.970   3.900  0.00  0.00    -0.251 OA
ATOM     27  C   UNL     1       1.067  -0.799   2.350  0.00  0.00    +0.136 C 
ENDBRANCH  24  25
ENDBRANCH  12  24
BRANCH  17  28
ATOM     28  O   UNL     1       3.936  -2.711  -0.940  0.00  0.00    -0.457 OA
BRANCH  28  29
ATOM     29  C   UNL     1       3.763  -3.829  -0.218  0.00  0.00    +0.306 C 
ATOM     30  O   UNL     1       3.517  -3.753   0.963  0.00  0.00    -0.251 OA
BRANCH  29  31
ATOM     31  C   UNL     1       3.874  -5.178  -0.879  0.00  0.00    +0.102 C 
BRANCH  31  32
ATOM     32  C   UNL     1       3.636  -6.277   0.159  0.00  0.00    -0.068 C 
BRANCH  32  38
ATOM     33  C   UNL     1       2.668  -7.789  -1.465  0.00  0.00    -0.079 C 
ATOM     34  C   UNL     1       2.896  -9.102  -2.219  0.00  0.00    -0.019 C 
ATOM     35  C   UNL     1       2.920 -10.261  -1.218  0.00  0.00    -0.004 C 
ATOM     36  C   UNL     1       4.018 -10.007  -0.182  0.00  0.00    -0.019 C 
ATOM     37  C   UNL     1       3.758  -8.668   0.513  0.00  0.00    -0.079 C 
ATOM     38  N   UNL     1       3.771  -7.592  -0.501  0.00  0.00    +0.380 N 
ATOM     39  H   UNL     1       4.664  -7.621  -1.006  0.00  0.00    -0.082 HD
ENDBRANCH  32  38
ENDBRANCH  31  32
ENDBRANCH  29  31
ENDBRANCH  28  29
ENDBRANCH  17  28
TORSDOF 8
