REMARK  Name = ZINC08982175
REMARK  13 active torsions:
REMARK  status: ('A' for Active; 'I' for Inactive)
REMARK    1  A    between atoms: C_1  and  C_2
REMARK    2  A    between atoms: C_2  and  O_3
REMARK    3  A    between atoms: O_3  and  C_4
REMARK    4  A    between atoms: C_6  and  C_14
REMARK    5  A    between atoms: C_9  and  O_10
REMARK    6  A    between atoms: O_10  and  C_11
REMARK    7  A    between atoms: C_14  and  N_57
REMARK    8  A    between atoms: C_15  and  C_16
REMARK    9  A    between atoms: C_15  and  N_57
REMARK   10  A    between atoms: N_18  and  C_19
REMARK   11  A    between atoms: C_23  and  S_25
REMARK   12  A    between atoms: S_25  and  N_28
REMARK   13  A    between atoms: C_29  and  N_57
REMARK                            x       y       z     vdW  Elec       q    Type
REMARK                         _______ _______ _______ _____ _____    ______ ____
ROOT
ATOM      1  N   UNL     1       3.891   0.066   3.721  0.00  0.00    +0.390 N 
ATOM      2  H   UNL     1       3.816   0.722   4.508  0.00  0.00    -0.080 HD
ENDROOT
BRANCH   1   3
ATOM      3  C   UNL     1       3.867   0.829   2.456  0.00  0.00    -0.068 C 
ATOM      4  C   UNL     1       4.956   0.544   1.419  0.00  0.00    -0.017 C 
ATOM      5  C   UNL     1       4.994   1.840   2.233  0.00  0.00    -0.017 C 
ENDBRANCH   1   3
BRANCH   1   6
ATOM      6  C   UNL     1       2.749  -0.872   3.767  0.00  0.00    -0.042 C 
BRANCH   6   9
ATOM      7  C   UNL     1      -0.371   1.033   2.812  0.00  0.00    +0.162 A 
ATOM      8  C   UNL     1       0.803   0.302   2.720  0.00  0.00    +0.051 A 
ATOM      9  C   UNL     1       1.472  -0.078   3.869  0.00  0.00    -0.060 A 
ATOM     10  C   UNL     1       0.973   0.269   5.111  0.00  0.00    +0.005 A 
ATOM     11  C   UNL     1      -0.198   0.998   5.209  0.00  0.00    +0.050 A 
ATOM     12  C   UNL     1      -0.871   1.387   4.062  0.00  0.00    +0.168 A 
BRANCH   7  13
ATOM     13  O   UNL     1      -1.030   1.407   1.683  0.00  0.00    -0.489 OA
BRANCH  13  15
ATOM     14  C   UNL     1      -1.331   1.522  -0.712  0.00  0.00    +0.048 C 
ATOM     15  C   UNL     1      -0.456   1.014   0.435  0.00  0.00    +0.226 C 
ENDBRANCH  13  15
ENDBRANCH   7  13
BRANCH  12  16
ATOM     16  O   UNL     1      -2.020   2.108   4.157  0.00  0.00    -0.431 OA
BRANCH  16  17
ATOM     17  C   UNL     1      -2.473   2.435   5.471  0.00  0.00    +0.541 C 
ATOM     18  F   UNL     1      -2.708   1.258   6.190  0.00  0.00    -0.166 F 
ATOM     19  F   UNL     1      -1.498   3.195   6.126  0.00  0.00    -0.166 F 
ENDBRANCH  16  17
ENDBRANCH  12  16
ENDBRANCH   6   9
ENDBRANCH   1   6
BRANCH   1  20
ATOM     20  C   UNL     1       5.162  -0.679   3.838  0.00  0.00    +0.020 C 
BRANCH  20  21
ATOM     21  C   UNL     1       5.362  -1.069   5.280  0.00  0.00    +0.201 C 
ATOM     22  O   UNL     1       4.492  -0.848   6.095  0.00  0.00    -0.278 OA
ATOM     23  N   UNL     1       6.509  -1.663   5.664  0.00  0.00    -0.287 N 
ATOM     24  H   UNL     1       7.179  -1.899   5.003  0.00  0.00    +0.155 HD
BRANCH  23  25
ATOM     25  C   UNL     1       6.734  -1.941   7.017  0.00  0.00    +0.035 A 
ATOM     26  C   UNL     1       8.017  -1.852   7.541  0.00  0.00    +0.023 A 
ATOM     27  C   UNL     1       8.236  -2.122   8.878  0.00  0.00    +0.004 A 
ATOM     28  C   UNL     1       7.180  -2.491   9.692  0.00  0.00    +0.028 A 
ATOM     29  C   UNL     1       5.902  -2.586   9.171  0.00  0.00    +0.107 A 
ATOM     30  C   UNL     1       5.677  -2.312   7.836  0.00  0.00    +0.051 A 
BRANCH  29  31
ATOM     31  S   UNL     1       4.561  -3.056  10.212  0.00  0.00    +0.056 S 
ATOM     32  O   UNL     1       4.943  -2.728  11.541  0.00  0.00    -0.153 OA
ATOM     33  O   UNL     1       3.380  -2.543   9.610  0.00  0.00    -0.153 OA
BRANCH  31  34
ATOM     34  N   UNL     1       4.446  -4.707  10.146  0.00  0.00    -0.204 NA
ATOM     35  H   UNL     1       5.063  -5.215   9.597  0.00  0.00    +0.144 HD
ATOM     36  H   UNL     1       3.760  -5.166  10.657  0.00  0.00    +0.144 HD
ENDBRANCH  31  34
ENDBRANCH  29  31
ENDBRANCH  23  25
ENDBRANCH  20  21
ENDBRANCH   1  20
TORSDOF 12
