REMARK  Name = ZINC07927421
REMARK  11 active torsions:
REMARK  status: ('A' for Active; 'I' for Inactive)
REMARK    1  A    between atoms: C_1  and  C_2
REMARK    2  A    between atoms: C_2  and  C_3
REMARK    3  A    between atoms: C_3  and  N_4
REMARK    4  A    between atoms: C_5  and  N_29
REMARK    5  A    between atoms: C_6  and  C_13
REMARK    6  A    between atoms: C_13  and  C_15
REMARK    7  A    between atoms: C_15  and  N_54
REMARK    8  A    between atoms: C_16  and  C_17
REMARK    9  A    between atoms: C_16  and  N_54
REMARK   10  A    between atoms: C_22  and  C_23
REMARK   11  A    between atoms: C_22  and  N_54
REMARK                            x       y       z     vdW  Elec       q    Type
REMARK                         _______ _______ _______ _____ _____    ______ ____
ROOT
ATOM      1  C   UNL     1       4.558   2.880  -1.779  0.00  0.00    +0.155 C 
ATOM      2  O   UNL     1       5.263   2.644  -2.739  0.00  0.00    -0.294 OA
ENDROOT
BRANCH   1   5
ATOM      3  N   UNL     1       1.323   3.625  -3.382  0.00  0.00    -0.281 N 
ATOM      4  C   UNL     1       2.650   3.331  -3.253  0.00  0.00    +0.116 A 
ATOM      5  C   UNL     1       3.191   3.179  -1.964  0.00  0.00    +0.118 A 
ATOM      6  C   UNL     1       2.288   3.341  -0.818  0.00  0.00    +0.266 A 
ATOM      7  O   UNL     1       2.701   3.221   0.321  0.00  0.00    -0.267 OA
ATOM      8  N   UNL     1       0.990   3.626  -1.052  0.00  0.00    -0.274 N 
ATOM      9  H   UNL     1       0.363   3.739  -0.282  0.00  0.00    +0.173 HD
ATOM     10  C   UNL     1       0.530   3.759  -2.307  0.00  0.00    +0.331 A 
ATOM     11  O   UNL     1      -0.645   4.017  -2.475  0.00  0.00    -0.246 OA
BRANCH   4  12
ATOM     12  N   UNL     1       3.438   3.193  -4.354  0.00  0.00    -0.344 N 
ATOM     13  H   UNL     1       3.034   3.088  -5.229  0.00  0.00    +0.144 HD
ATOM     14  H   UNL     1       4.404   3.200  -4.263  0.00  0.00    +0.144 HD
ENDBRANCH   4  12
BRANCH   3  15
ATOM     15  C   UNL     1       0.751   3.791  -4.721  0.00  0.00    +0.128 C 
BRANCH  15  17
ATOM     16  C   UNL     1      -0.353   2.614  -6.628  0.00  0.00    +0.005 C 
ATOM     17  C   UNL     1       0.244   2.440  -5.230  0.00  0.00    +0.018 C 
ENDBRANCH  15  17
ENDBRANCH   3  15
ENDBRANCH   1   5
BRANCH   1  18
ATOM     18  C   UNL     1       5.141   2.853  -0.390  0.00  0.00    +0.003 C 
BRANCH  18  19
ATOM     19  N   UNL     1       6.601   2.647  -0.493  0.00  0.00    +0.389 N 
ATOM     20  H   UNL     1       6.787   1.936  -1.209  0.00  0.00    -0.081 HD
BRANCH  19  21
ATOM     21  C   UNL     1       7.138   2.177   0.802  0.00  0.00    -0.035 C 
BRANCH  21  22
ATOM     22  C   UNL     1       6.710   0.748   1.013  0.00  0.00    -0.027 A 
ATOM     23  C   UNL     1       7.322  -0.394   0.614  0.00  0.00    +0.009 A 
ATOM     24  C   UNL     1       6.743  -1.610   0.926  0.00  0.00    +0.008 A 
ATOM     25  C   UNL     1       5.575  -1.624   1.613  0.00  0.00    +0.045 A 
ATOM     26  S   UNL     1       5.262   0.118   1.846  0.00  0.00    -0.103 S 
ENDBRANCH  21  22
ENDBRANCH  19  21
BRANCH  19  27
ATOM     27  C   UNL     1       7.263   3.909  -0.886  0.00  0.00    -0.046 C 
BRANCH  27  28
ATOM     28  C   UNL     1       8.731   3.619  -1.202  0.00  0.00    +0.102 C 
ATOM     29  C   UNL     1       9.483   4.931  -1.518  0.00  0.00    +0.032 C 
ATOM     30  C   UNL     1      10.465   4.539  -2.644  0.00  0.00    +0.030 C 
ATOM     31  C   UNL     1      10.190   3.036  -2.876  0.00  0.00    +0.160 C 
ATOM     32  O   UNL     1       8.839   2.832  -2.408  0.00  0.00    -0.378 OA
ENDBRANCH  27  28
ENDBRANCH  19  27
ENDBRANCH  18  19
ENDBRANCH   1  18
TORSDOF 10
