REMARK  Name = ZINC05348784
REMARK  10 active torsions:
REMARK  status: ('A' for Active; 'I' for Inactive)
REMARK    1  A    between atoms: C_1  and  N_55
REMARK    2  A    between atoms: C_2  and  N_55
REMARK    3  A    between atoms: C_3  and  C_4
REMARK    4  A    between atoms: C_3  and  N_55
REMARK    5  A    between atoms: C_4  and  C_5
REMARK    6  A    between atoms: C_5  and  N_6
REMARK    7  A    between atoms: C_12  and  C_22
REMARK    8  A    between atoms: C_17  and  O_21
REMARK    9  A    between atoms: C_27  and  O_28
REMARK   10  A    between atoms: O_28  and  C_29
REMARK                            x       y       z     vdW  Elec       q    Type
REMARK                         _______ _______ _______ _____ _____    ______ ____
ROOT
ATOM      1  N   UNL     1      -1.059   6.250  -2.865  0.00  0.00    -0.318 N 
ATOM      2  C   UNL     1      -2.258   6.593  -2.330  0.00  0.00    +0.204 A 
ATOM      3  N   UNL     1      -2.503   6.447  -1.060  0.00  0.00    -0.202 NA
ATOM      4  C   UNL     1      -1.588   5.951  -0.206  0.00  0.00    +0.229 A 
ATOM      5  C   UNL     1      -0.360   5.585  -0.667  0.00  0.00    +0.066 A 
ATOM      6  C   UNL     1      -0.074   5.736  -2.045  0.00  0.00    +0.115 A 
ATOM      7  C   UNL     1       0.688   5.026   0.253  0.00  0.00    +0.095 C 
ATOM      8  C   UNL     1       0.348   5.336   1.686  0.00  0.00    +0.007 A 
ATOM      9  C   UNL     1       1.328   5.234   2.657  0.00  0.00    +0.012 A 
ATOM     10  C   UNL     1       1.033   5.513   3.976  0.00  0.00    +0.046 A 
ATOM     11  C   UNL     1      -0.252   5.899   4.333  0.00  0.00    +0.120 A 
ATOM     12  C   UNL     1      -1.235   6.003   3.363  0.00  0.00    +0.092 A 
ATOM     13  C   UNL     1      -0.937   5.721   2.036  0.00  0.00    +0.138 A 
ATOM     14  O   UNL     1      -1.910   5.824   1.100  0.00  0.00    -0.437 OA
ATOM     15  H   UNL     1       1.379   5.466  -3.464  0.00  0.00    +0.157 HD
ATOM     16  N   UNL     1       1.139   5.370  -2.477  0.00  0.00    -0.384 N 
ATOM     17  H   UNL     1       1.828   4.995  -1.815  0.00  0.00    +0.157 HD
ENDROOT
BRANCH   7  18
ATOM     18  C   UNL     1       0.766   3.532   0.071  0.00  0.00    +0.006 A 
ATOM     19  C   UNL     1      -0.339   2.745   0.331  0.00  0.00    +0.008 A 
ATOM     20  C   UNL     1      -0.270   1.375   0.158  0.00  0.00    +0.001 A 
ATOM     21  C   UNL     1       0.909   0.788  -0.264  0.00  0.00    +0.004 A 
ATOM     22  C   UNL     1       2.016   1.571  -0.526  0.00  0.00    +0.046 A 
ATOM     23  C   UNL     1       1.948   2.946  -0.358  0.00  0.00    +0.124 A 
BRANCH  23  24
ATOM     24  O   UNL     1       3.037   3.718  -0.615  0.00  0.00    -0.495 OA
ATOM     25  C   UNL     1       4.219   3.047  -1.053  0.00  0.00    +0.277 C 
ENDBRANCH  23  24
ENDBRANCH   7  18
BRANCH  11  26
ATOM     26  O   UNL     1      -0.544   6.175   5.631  0.00  0.00    -0.507 OA
ATOM     27  H   UNL     1      -0.847   5.409   6.137  0.00  0.00    +0.292 HD
ENDBRANCH  11  26
BRANCH   1  28
ATOM     28  C   UNL     1      -0.812   6.424  -4.298  0.00  0.00    +0.123 C 
BRANCH  28  29
ATOM     29  C   UNL     1      -1.099   5.110  -5.028  0.00  0.00    +0.003 C 
BRANCH  29  30
ATOM     30  C   UNL     1      -0.841   5.292  -6.526  0.00  0.00    -0.078 C 
BRANCH  30  33
ATOM     31  C   UNL     1      -1.110   4.225  -8.682  0.00  0.00    -0.097 C 
ATOM     32  C   UNL     1      -0.160   2.988  -6.831  0.00  0.00    -0.097 C 
ATOM     33  N   UNL     1      -1.143   4.022  -7.219  0.00  0.00    +0.376 N 
ATOM     34  H   UNL     1      -2.082   3.708  -6.947  0.00  0.00    -0.083 HD
ENDBRANCH  30  33
ENDBRANCH  29  30
ENDBRANCH  28  29
ENDBRANCH   1  28
TORSDOF 7
