REMARK  Name = ZINC03477724
REMARK  10 active torsions:
REMARK  status: ('A' for Active; 'I' for Inactive)
REMARK    1  A    between atoms: C_1  and  C_2
REMARK    2  A    between atoms: C_2  and  O_3
REMARK    3  A    between atoms: O_3  and  C_4
REMARK    4  A    between atoms: C_4  and  C_6
REMARK    5  A    between atoms: C_7  and  C_30
REMARK    6  A    between atoms: C_8  and  C_27
REMARK    7  A    between atoms: C_10  and  N_11
REMARK    8  A    between atoms: C_12  and  C_14
REMARK    9  A    between atoms: C_14  and  N_15
REMARK   10  A    between atoms: N_15  and  C_16
REMARK                            x       y       z     vdW  Elec       q    Type
REMARK                         _______ _______ _______ _____ _____    ______ ____
ROOT
ATOM      1  N   UNL     1      -0.556  -1.954  -4.124  0.00  0.00    -0.281 N 
ATOM      2  C   UNL     1      -1.087  -2.425  -5.269  0.00  0.00    +0.201 C 
ATOM      3  O   UNL     1      -0.361  -2.808  -6.162  0.00  0.00    -0.278 OA
ATOM      4  H   UNL     1      -1.136  -1.647  -3.410  0.00  0.00    +0.155 HD
ENDROOT
BRANCH   1   9
ATOM      5  C   UNL     1       1.541  -1.456  -2.862  0.00  0.00    +0.091 A 
ATOM      6  C   UNL     1       2.926  -1.513  -2.935  0.00  0.00    -0.015 A 
ATOM      7  C   UNL     1       3.453  -2.007  -4.098  0.00  0.00    +0.079 A 
ATOM      8  S   UNL     1       2.001  -2.378  -5.060  0.00  0.00    -0.068 S 
ATOM      9  C   UNL     1       0.816  -1.907  -3.966  0.00  0.00    +0.087 A 
ATOM     10  C   UNL     1       3.802  -1.056  -1.797  0.00  0.00    +0.046 C 
BRANCH   7  11
ATOM     11  C   UNL     1       4.860  -2.184  -4.461  0.00  0.00    +0.248 C 
ATOM     12  O   UNL     1       5.736  -1.874  -3.674  0.00  0.00    -0.270 OA
ATOM     13  N   UNL     1       5.186  -2.692  -5.666  0.00  0.00    -0.325 N 
ATOM     14  H   UNL     1       4.489  -2.939  -6.293  0.00  0.00    +0.145 HD
ATOM     15  H   UNL     1       6.119  -2.810  -5.907  0.00  0.00    +0.145 HD
ENDBRANCH   7  11
BRANCH   5  16
ATOM     16  C   UNL     1       0.863  -0.945  -1.665  0.00  0.00    +0.342 C 
ATOM     17  O   UNL     1       0.568  -1.704  -0.763  0.00  0.00    -0.245 OA
BRANCH  16  18
ATOM     18  O   UNL     1       0.568   0.367  -1.565  0.00  0.00    -0.461 OA
BRANCH  18  20
ATOM     19  C   UNL     1      -0.342   2.303  -0.441  0.00  0.00    +0.048 C 
ATOM     20  C   UNL     1      -0.092   0.795  -0.372  0.00  0.00    +0.229 C 
ENDBRANCH  18  20
ENDBRANCH  16  18
ENDBRANCH   5  16
ENDBRANCH   1   9
BRANCH   2  21
ATOM     21  C   UNL     1      -2.583  -2.476  -5.441  0.00  0.00    +0.016 C 
BRANCH  21  22
ATOM     22  N   UNL     1      -2.906  -3.025  -6.765  0.00  0.00    +0.389 N 
ATOM     23  H   UNL     1      -2.434  -2.486  -7.476  0.00  0.00    -0.084 HD
ATOM     24  H   UNL     1      -2.602  -3.986  -6.814  0.00  0.00    -0.084 HD
BRANCH  22  25
ATOM     25  C   UNL     1      -4.357  -2.959  -6.982  0.00  0.00    -0.040 C 
ATOM     26  C   UNL     1      -5.059  -3.863  -5.971  0.00  0.00    -0.011 C 
ATOM     27  C   UNL     1      -6.542  -3.951  -6.349  0.00  0.00    +0.003 C 
ATOM     28  C   UNL     1      -6.663  -4.760  -7.639  0.00  0.00    +0.035 C 
ATOM     29  C   UNL     1      -5.730  -4.219  -8.692  0.00  0.00    -0.046 A 
ATOM     30  C   UNL     1      -4.669  -3.396  -8.389  0.00  0.00    -0.058 A 
ATOM     31  C   UNL     1      -3.843  -2.938  -9.407  0.00  0.00    +0.002 A 
ATOM     32  C   UNL     1      -4.079  -3.299 -10.717  0.00  0.00    +0.000 A 
ATOM     33  C   UNL     1      -5.146  -4.123 -11.021  0.00  0.00    +0.000 A 
ATOM     34  C   UNL     1      -5.967  -4.579 -10.012  0.00  0.00    +0.004 A 
ENDBRANCH  22  25
ENDBRANCH  21  22
ENDBRANCH   2  21
TORSDOF 8
