REMARK  Name = ZINC06492084
REMARK  8 active torsions:
REMARK  status: ('A' for Active; 'I' for Inactive)
REMARK    1  A    between atoms: C_1  and  C_2
REMARK    2  A    between atoms: C_7  and  C_8
REMARK    3  A    between atoms: C_12  and  C_34
REMARK    4  A    between atoms: C_12  and  C_35
REMARK    5  A    between atoms: C_16  and  C_19
REMARK    6  A    between atoms: C_20  and  C_32
REMARK    7  A    between atoms: N_21  and  C_31
REMARK    8  A    between atoms: N_22  and  C_25
REMARK                            x       y       z     vdW  Elec       q    Type
REMARK                         _______ _______ _______ _____ _____    ______ ____
ROOT
ATOM      1  C   UNL     1      -0.021   2.133  -1.194  0.00  0.00    +0.044 C 
ATOM      2  C   UNL     1      -0.146   0.650  -0.960  0.00  0.00    -0.046 A 
ATOM      3  C   UNL     1      -0.024  -0.227  -2.025  0.00  0.00    +0.028 A 
ATOM      4  C   UNL     1      -0.150  -1.588  -1.802  0.00  0.00    +0.050 A 
ATOM      5  C   UNL     1      -0.421  -2.063  -0.527  0.00  0.00    +0.053 A 
ATOM      6  C   UNL     1      -0.519  -1.187   0.539  0.00  0.00    +0.028 A 
ATOM      7  C   UNL     1      -0.377   0.173   0.317  0.00  0.00    -0.046 A 
ATOM      8  C   UNL     1      -0.480   1.137   1.470  0.00  0.00    +0.044 C 
ATOM      9  N   UNL     1      -0.646  -3.427  -0.389  0.00  0.00    -0.316 N 
ATOM     10  C   UNL     1       0.283  -4.391  -0.611  0.00  0.00    +0.017 C 
ATOM     11  C   UNL     1       0.378  -5.447   0.477  0.00  0.00    +0.058 C 
ATOM     12  C   UNL     1       0.759  -6.793  -0.137  0.00  0.00    -0.023 C 
ATOM     13  C   UNL     1       2.118  -6.622  -0.828  0.00  0.00    +0.086 C 
ATOM     14  C   UNL     1       2.010  -5.511  -1.828  0.00  0.00    +0.163 C 
ATOM     15  C   UNL     1       1.090  -4.446  -1.684  0.00  0.00    +0.037 C 
ATOM     16  C   UNL     1       1.126  -3.450  -2.818  0.00  0.00    +0.143 C 
ATOM     17  N   UNL     1       0.021  -2.514  -2.830  0.00  0.00    -0.331 N 
ATOM     18  O   UNL     1       2.742  -5.524  -2.799  0.00  0.00    -0.292 OA
ATOM     19  C   UNL     1      -0.295  -7.212  -1.164  0.00  0.00    +0.011 C 
ATOM     20  C   UNL     1       0.866  -7.853   0.961  0.00  0.00    +0.011 C 
ATOM     21  H   UNL     1      -0.611  -2.532  -3.566  0.00  0.00    +0.147 HD
ATOM     22  H   UNL     1      -1.532  -3.711  -0.112  0.00  0.00    +0.152 HD
ENDROOT
BRANCH  16  23
ATOM     23  C   UNL     1       2.410  -2.667  -2.726  0.00  0.00    +0.064 A 
ATOM     24  C   UNL     1       3.412  -2.680  -3.628  0.00  0.00    +0.043 A 
ATOM     25  N   UNL     1       4.399  -1.844  -3.191  0.00  0.00    -0.284 N 
ATOM     26  N   UNL     1       3.993  -1.290  -1.969  0.00  0.00    -0.217 N 
ATOM     27  C   UNL     1       2.772  -1.786  -1.681  0.00  0.00    +0.277 A 
ATOM     28  O   UNL     1       2.104  -1.524  -0.697  0.00  0.00    -0.265 OA
ATOM     29  C   UNL     1       5.663  -1.572  -3.879  0.00  0.00    +0.171 C 
ATOM     30  C   UNL     1       3.439  -3.483  -4.904  0.00  0.00    +0.065 C 
BRANCH  26  31
ATOM     31  C   UNL     1       4.720  -0.383  -1.192  0.00  0.00    +0.067 A 
ATOM     32  C   UNL     1       4.867  -0.597   0.173  0.00  0.00    +0.028 A 
ATOM     33  C   UNL     1       5.585   0.301   0.937  0.00  0.00    +0.002 A 
ATOM     34  C   UNL     1       6.157   1.413   0.346  0.00  0.00    +0.000 A 
ATOM     35  C   UNL     1       6.013   1.629  -1.012  0.00  0.00    +0.002 A 
ATOM     36  C   UNL     1       5.301   0.731  -1.784  0.00  0.00    +0.028 A 
ENDBRANCH  26  31
ENDBRANCH  16  23
TORSDOF 2
