REMARK  Name = ZINC06026480
REMARK  11 active torsions:
REMARK  status: ('A' for Active; 'I' for Inactive)
REMARK    1  A    between atoms: C_1  and  C_2
REMARK    2  A    between atoms: C_2  and  N_62
REMARK    3  A    between atoms: N_5  and  C_8
REMARK    4  A    between atoms: C_11  and  N_15
REMARK    5  A    between atoms: C_16  and  C_18
REMARK    6  A    between atoms: C_18  and  O_19
REMARK    7  A    between atoms: O_19  and  C_20
REMARK    8  A    between atoms: C_22  and  C_29
REMARK    9  A    between atoms: C_25  and  C_26
REMARK   10  A    between atoms: C_26  and  C_27
REMARK   11  A    between atoms: C_26  and  C_28
REMARK                            x       y       z     vdW  Elec       q    Type
REMARK                         _______ _______ _______ _____ _____    ______ ____
ROOT
ATOM      1  C   UNL     1      -1.301  -0.510  -0.071  0.00  0.00    +0.048 A 
ATOM      2  C   UNL     1      -1.959  -0.599  -1.291  0.00  0.00    +0.026 A 
ATOM      3  C   UNL     1      -3.238  -1.115  -1.349  0.00  0.00    +0.025 A 
ATOM      4  C   UNL     1      -3.868  -1.545  -0.188  0.00  0.00    +0.035 A 
ATOM      5  C   UNL     1      -3.212  -1.455   1.032  0.00  0.00    +0.045 A 
ATOM      6  C   UNL     1      -1.929  -0.945   1.090  0.00  0.00    +0.064 A 
ATOM      7 CL   UNL     1      -1.105  -0.840   2.614  0.00  0.00    -0.082 Cl
ENDROOT
BRANCH   1  10
ATOM      8  C   UNL     1       2.340  -0.227  -0.675  0.00  0.00    -0.060 C 
ATOM      9  C   UNL     1       0.922  -0.782  -0.829  0.00  0.00    +0.086 C 
ATOM     10  N   UNL     1      -0.004   0.013  -0.012  0.00  0.00    -0.332 N 
ATOM     11  C   UNL     1       0.014   1.424  -0.422  0.00  0.00    +0.086 C 
ATOM     12  C   UNL     1       1.432   1.979  -0.268  0.00  0.00    -0.060 C 
ATOM     13  N   UNL     1       2.349   1.185  -1.112  0.00  0.00    +0.382 N 
ATOM     14  H   UNL     1       2.033   1.234  -2.087  0.00  0.00    -0.082 HD
BRANCH  13  16
ATOM     15  C   UNL     1       4.597   1.041  -2.069  0.00  0.00    -0.017 C 
ATOM     16  C   UNL     1       3.720   1.732  -1.023  0.00  0.00    -0.082 C 
ENDBRANCH  13  16
ENDBRANCH   1  10
BRANCH   4  17
ATOM     17  N   UNL     1      -5.166  -2.068  -0.249  0.00  0.00    -0.283 N 
ATOM     18  C   UNL     1      -5.561  -2.770  -1.330  0.00  0.00    +0.255 C 
ATOM     19  O   UNL     1      -4.765  -3.030  -2.207  0.00  0.00    -0.272 OA
ATOM     20  H   UNL     1      -5.782  -1.926   0.488  0.00  0.00    +0.155 HD
BRANCH  18  21
ATOM     21  C   UNL     1      -6.990  -3.231  -1.448  0.00  0.00    +0.324 C 
BRANCH  21  22
ATOM     22  O   UNL     1      -7.159  -3.949  -2.673  0.00  0.00    -0.482 OA
BRANCH  22  23
ATOM     23  C   UNL     1      -8.400  -4.437  -2.936  0.00  0.00    +0.125 A 
ATOM     24  C   UNL     1      -9.433  -4.234  -2.031  0.00  0.00    +0.049 A 
ATOM     25  C   UNL     1     -10.694  -4.726  -2.303  0.00  0.00    -0.047 A 
ATOM     26  C   UNL     1     -10.926  -5.430  -3.471  0.00  0.00    +0.004 A 
ATOM     27  C   UNL     1      -9.898  -5.638  -4.371  0.00  0.00    +0.008 A 
ATOM     28  C   UNL     1      -8.635  -5.143  -4.106  0.00  0.00    -0.003 A 
ATOM     29  C   UNL     1     -11.817  -4.502  -1.324  0.00  0.00    +0.044 C 
BRANCH  28  30
ATOM     30  C   UNL     1      -7.515  -5.370  -5.088  0.00  0.00    +0.016 C 
ATOM     31  C   UNL     1      -7.291  -6.873  -5.268  0.00  0.00    +0.012 C 
ATOM     32  C   UNL     1      -7.882  -4.744  -6.435  0.00  0.00    +0.012 C 
ENDBRANCH  28  30
ENDBRANCH  22  23
ENDBRANCH  21  22
ENDBRANCH  18  21
ENDBRANCH   4  17
TORSDOF 7
