REMARK  Name = ZINC45662554
REMARK  7 active torsions:
REMARK  status: ('A' for Active; 'I' for Inactive)
REMARK    1  A    between atoms: C_1  and  C_2
REMARK    2  A    between atoms: N_5  and  C_11
REMARK    3  A    between atoms: C_7  and  C_9
REMARK    4  A    between atoms: C_7  and  C_10
REMARK    5  A    between atoms: C_11  and  C_13
REMARK    6  A    between atoms: C_11  and  C_15
REMARK    7  A    between atoms: C_13  and  N_14
REMARK                            x       y       z     vdW  Elec       q    Type
REMARK                         _______ _______ _______ _____ _____    ______ ____
ROOT
ATOM      1  C   UNL     1      -2.765  -2.553   0.042  0.00  0.00    +0.071 C 
ENDROOT
BRANCH   1   5
ATOM      2  C   UNL     1       0.285   1.271  -0.501  0.00  0.00    +0.039 C 
ATOM      3  C   UNL     1       0.190  -0.245  -0.317  0.00  0.00    +0.130 C 
ATOM      4  C   UNL     1      -1.282  -0.659  -0.238  0.00  0.00    +0.116 C 
ATOM      5  N   UNL     1      -1.367  -2.104   0.015  0.00  0.00    -0.292 NA
ATOM      6  C   UNL     1      -0.676  -2.456   1.265  0.00  0.00    +0.119 C 
ATOM      7  C   UNL     1       0.789  -2.024   1.171  0.00  0.00    +0.077 C 
ATOM      8  O   UNL     1       0.852  -0.623   0.892  0.00  0.00    -0.368 OA
ATOM      9  C   UNL     1       1.494  -2.314   2.497  0.00  0.00    +0.042 C 
ATOM     10  C   UNL     1       1.478  -2.799   0.045  0.00  0.00    +0.042 C 
ENDBRANCH   1   5
BRANCH   1  11
ATOM     11  C   UNL     1      -2.809  -4.060   0.062  0.00  0.00    -0.018 A 
ATOM     12  C   UNL     1      -1.709  -4.789  -0.349  0.00  0.00    +0.006 A 
ATOM     13  C   UNL     1      -1.749  -6.170  -0.331  0.00  0.00    +0.000 A 
ATOM     14  C   UNL     1      -2.889  -6.824   0.100  0.00  0.00    +0.001 A 
ATOM     15  C   UNL     1      -3.989  -6.095   0.511  0.00  0.00    +0.015 A 
ATOM     16  C   UNL     1      -3.948  -4.713   0.498  0.00  0.00    +0.022 A 
ATOM     17 BR   UNL     1      -5.450  -3.716   1.067  0.00  0.00    -0.050 Br
ENDBRANCH   1  11
BRANCH   1  18
ATOM     18  C   UNL     1      -3.490  -2.038  -1.203  0.00  0.00    -0.063 C 
BRANCH  18  19
ATOM     19  N   UNL     1      -2.755  -2.454  -2.405  0.00  0.00    +0.379 N 
ATOM     20  H   UNL     1      -1.797  -2.143  -2.337  0.00  0.00    -0.090 HD
ATOM     21  H   UNL     1      -2.777  -3.459  -2.482  0.00  0.00    -0.090 HD
ATOM     22  H   UNL     1      -3.184  -2.044  -3.220  0.00  0.00    -0.090 HD
ENDBRANCH  18  19
ENDBRANCH   1  18
TORSDOF 4
