REMARK  Name = ZINC39939881
REMARK  5 active torsions:
REMARK  status: ('A' for Active; 'I' for Inactive)
REMARK    1  A    between atoms: C_13  and  O_15
REMARK    2  A    between atoms: O_15  and  C_16
REMARK    3  A    between atoms: C_16  and  C_17
REMARK    4  A    between atoms: CA_18  and  C_29
REMARK    5  A    between atoms: CA_22  and  N_26
REMARK                            x       y       z     vdW  Elec       q    Type
REMARK                         _______ _______ _______ _____ _____    ______ ____
ROOT
ATOM      1  C   UNL     1       4.599  -4.735   2.531  0.00  0.00    +0.266 C 
ENDROOT
BRANCH   1   2
ATOM      2  C   UNL     1       4.904  -5.740   3.611  0.00  0.00    +0.006 C 
ATOM      3  CA  UNL     1       6.093  -5.630   4.187  0.00  0.00    +0.129 C 
ATOM      4  N   UNL     1       6.499  -6.545   5.174  0.00  0.00    -0.255 N 
ATOM      5  C   UNL     1       5.633  -7.479   5.940  0.00  0.00    +0.134 C 
ATOM      6  CA  UNL     1       6.895  -8.271   6.208  0.00  0.00    +0.045 C 
ATOM      7  C   UNL     1       7.598  -7.028   5.736  0.00  0.00    +0.209 C 
ATOM      8  O   UNL     1       8.737  -6.622   5.833  0.00  0.00    -0.277 OA
ATOM      9  S   UNL     1       4.476  -8.207   4.731  0.00  0.00    -0.135 S 
ATOM     10  C   UNL     1       3.827  -6.734   3.903  0.00  0.00    +0.107 C 
BRANCH   6  11
ATOM     11  N   UNL     1       7.114  -8.586   7.626  0.00  0.00    +0.387 N 
ATOM     12  H1  UNL     1       6.340  -9.132   7.973  0.00  0.00    -0.089 HD
ATOM     13  H2  UNL     1       7.969  -9.112   7.725  0.00  0.00    -0.089 HD
ATOM     14  H3  UNL     1       7.184  -7.728   8.154  0.00  0.00    -0.089 HD
ENDBRANCH   6  11
BRANCH   3  15
ATOM     15  C   UNL     1       6.996  -4.538   3.789  0.00  0.00    +0.401 C 
ATOM     16  O   UNL     1       6.610  -3.678   3.011  0.00  0.00    -0.239 OA
ATOM     17  OXT UNL     1       8.134  -4.492   4.237  0.00  0.00    -0.239 OA
ENDBRANCH   3  15
ENDBRANCH   1   2
BRANCH   1  18
ATOM     18  O   UNL     1       3.336  -5.041   1.938  0.00  0.00    -0.457 OA
BRANCH  18  30
ATOM     19  C   UNL     1      -0.360   0.816  -0.469  0.00  0.00    +0.001 A 
ATOM     20  C   UNL     1       0.705   1.716  -0.323  0.00  0.00    +0.002 A 
ATOM     21  C   UNL     1       1.983   1.293  -0.203  0.00  0.00    +0.026 A 
ATOM     22  C   UNL     1       2.268  -0.147  -0.226  0.00  0.00    +0.046 A 
ATOM     23  N   UNL     1       3.387  -0.819  -0.099  0.00  0.00    -0.358 N 
ATOM     24  C   UNL     1       3.116  -2.229  -0.325  0.00  0.00    +0.255 C 
ATOM     25  C   UNL     1       1.603  -2.360  -0.349  0.00  0.00    +0.117 C 
ATOM     26  C   UNL     1       1.117  -1.075  -0.370  0.00  0.00    +0.025 A 
ATOM     27  C   UNL     1      -0.179  -0.524  -0.494  0.00  0.00    +0.012 A 
ATOM     28  N   UNL     1       1.000  -3.544  -0.220  0.00  0.00    -0.145 NA
ATOM     29  N   UNL     1       1.668  -4.442   0.440  0.00  0.00    -0.092 NA
ATOM     30  C   UNL     1       2.864  -4.172   1.014  0.00  0.00    +0.335 C 
ATOM     31  N   UNL     1       3.595  -3.123   0.728  0.00  0.00    -0.200 NA
ATOM     32  H   UNL     1       4.254  -0.438   0.110  0.00  0.00    +0.162 HD
ENDBRANCH  18  30
ENDBRANCH   1  18
TORSDOF 5
