REMARK  Name = ZINC14878345
REMARK  8 active torsions:
REMARK  status: ('A' for Active; 'I' for Inactive)
REMARK    1  A    between atoms: C_1  and  C_2
REMARK    2  A    between atoms: C_3  and  C_17
REMARK    3  A    between atoms: N_5  and  C_7
REMARK    4  A    between atoms: C_7  and  C_8
REMARK    5  A    between atoms: C_18  and  C_19
REMARK    6  A    between atoms: N_21  and  C_22
REMARK    7  A    between atoms: C_26  and  S_28
REMARK    8  A    between atoms: S_28  and  N_31
REMARK                            x       y       z     vdW  Elec       q    Type
REMARK                         _______ _______ _______ _____ _____    ______ ____
ROOT
ATOM      1  C   UNL     1       2.160   4.241  -0.870  0.00  0.00    +0.018 C 
ATOM      2  C   UNL     1       1.003   3.543  -0.841  0.00  0.00    +0.068 C 
ENDROOT
BRANCH   1   5
ATOM      3  C   UNL     1       4.130   5.619   1.201  0.00  0.00    +0.068 C 
ATOM      4  C   UNL     1       3.037   6.294   0.412  0.00  0.00    +0.069 A 
ATOM      5  C   UNL     1       2.167   5.665  -0.509  0.00  0.00    +0.034 A 
ATOM      6  C   UNL     1       1.319   6.643  -1.001  0.00  0.00    +0.135 A 
ATOM      7  N   UNL     1       1.662   7.803  -0.413  0.00  0.00    -0.248 N 
ATOM      8  N   UNL     1       2.732   7.561   0.456  0.00  0.00    -0.174 NA
ATOM      9 CL   UNL     1       0.049   6.415  -2.162  0.00  0.00    -0.062 Cl
BRANCH   7  10
ATOM     10  C   UNL     1       1.023   9.101  -0.642  0.00  0.00    +0.183 C 
BRANCH  10  11
ATOM     11  C   UNL     1       0.008   9.360   0.441  0.00  0.00    +0.011 A 
ATOM     12  C   UNL     1      -1.327   9.068   0.224  0.00  0.00    +0.047 A 
ATOM     13  C   UNL     1      -2.257   9.300   1.221  0.00  0.00    +0.020 A 
ATOM     14  C   UNL     1      -1.855   9.835   2.430  0.00  0.00    +0.003 A 
ATOM     15  C   UNL     1      -0.523  10.132   2.647  0.00  0.00    +0.020 A 
ATOM     16  C   UNL     1       0.410   9.895   1.652  0.00  0.00    +0.047 A 
ATOM     17 CL   UNL     1       2.083  10.268   1.924  0.00  0.00    -0.083 Cl
ATOM     18 CL   UNL     1      -1.833   8.403  -1.298  0.00  0.00    -0.083 Cl
ENDBRANCH  10  11
ENDBRANCH   7  10
ENDBRANCH   1   5
BRANCH   2  19
ATOM     19  C   UNL     1       0.996   2.169  -1.190  0.00  0.00    +0.241 C 
ATOM     20  O   UNL     1       2.032   1.619  -1.516  0.00  0.00    -0.270 OA
ATOM     21  N   UNL     1      -0.157   1.472  -1.160  0.00  0.00    -0.282 N 
ATOM     22  H   UNL     1      -0.994   1.927  -0.978  0.00  0.00    +0.155 HD
BRANCH  21  23
ATOM     23  C   UNL     1      -0.147   0.094  -1.397  0.00  0.00    +0.036 A 
ATOM     24  C   UNL     1       0.939  -0.673  -0.995  0.00  0.00    +0.023 A 
ATOM     25  C   UNL     1       0.945  -2.034  -1.230  0.00  0.00    +0.004 A 
ATOM     26  C   UNL     1      -0.128  -2.633  -1.865  0.00  0.00    +0.028 A 
ATOM     27  C   UNL     1      -1.211  -1.871  -2.266  0.00  0.00    +0.107 A 
ATOM     28  C   UNL     1      -1.226  -0.511  -2.029  0.00  0.00    +0.051 A 
BRANCH  27  29
ATOM     29  S   UNL     1      -2.576  -2.639  -3.074  0.00  0.00    +0.056 S 
ATOM     30  O   UNL     1      -3.219  -1.626  -3.835  0.00  0.00    -0.153 OA
ATOM     31  O   UNL     1      -2.080  -3.835  -3.660  0.00  0.00    -0.153 OA
BRANCH  29  32
ATOM     32  N   UNL     1      -3.646  -3.098  -1.896  0.00  0.00    -0.204 NA
ATOM     33  H   UNL     1      -3.447  -2.921  -0.964  0.00  0.00    +0.144 HD
ATOM     34  H   UNL     1      -4.473  -3.543  -2.139  0.00  0.00    +0.144 HD
ENDBRANCH  29  32
ENDBRANCH  27  29
ENDBRANCH  21  23
ENDBRANCH   2  19
TORSDOF 7
