REMARK  Name = ZINC12350127
REMARK  6 active torsions:
REMARK  status: ('A' for Active; 'I' for Inactive)
REMARK    1  A    between atoms: C_1  and  C_2
REMARK    2  A    between atoms: C_2  and  N_22
REMARK    3  A    between atoms: C_3  and  C_4
REMARK    4  A    between atoms: N_9  and  C_12
REMARK    5  A    between atoms: C_15  and  C_17
REMARK    6  A    between atoms: N_25  and  C_28
REMARK                            x       y       z     vdW  Elec       q    Type
REMARK                         _______ _______ _______ _____ _____    ______ ____
ROOT
ATOM      1  C   UNL     1       2.397   1.616  -0.108  0.00  0.00    +0.241 C 
ATOM      2  O   UNL     1       2.477   0.402  -0.060  0.00  0.00    -0.271 OA
ATOM      3  N   UNL     1       3.516   2.363  -0.181  0.00  0.00    -0.295 N 
ATOM      4  C   UNL     1       3.449   3.831  -0.122  0.00  0.00    +0.127 C 
ATOM      5  C   UNL     1       4.438   4.315   0.951  0.00  0.00    +0.125 C 
ATOM      6  N   UNL     1       5.770   3.766   0.665  0.00  0.00    -0.313 N 
ATOM      7  C   UNL     1       5.770   2.299   0.746  0.00  0.00    +0.125 C 
ATOM      8  C   UNL     1       4.837   1.732  -0.329  0.00  0.00    +0.127 C 
ENDROOT
BRANCH   6   9
ATOM      9  C   UNL     1       6.727   4.312   1.514  0.00  0.00    +0.118 A 
ATOM     10  C   UNL     1       7.271   5.561   1.228  0.00  0.00    +0.079 A 
ATOM     11  C   UNL     1       8.218   6.094   2.084  0.00  0.00    +0.037 A 
ATOM     12  C   UNL     1       8.598   5.353   3.196  0.00  0.00    +0.072 A 
ATOM     13  C   UNL     1       8.021   4.119   3.415  0.00  0.00    +0.096 A 
ATOM     14 CL   UNL     1       6.765   6.440  -0.181  0.00  0.00    -0.080 Cl
ATOM     15  N   UNL     1       7.084   3.566   2.599  0.00  0.00    -0.348 N 
ATOM     16  H   UNL     1       6.671   2.645   2.787  0.00  0.00    +0.167 HD
BRANCH  12  17
ATOM     17  C   UNL     1       9.630   5.892   4.153  0.00  0.00    +0.419 C 
ATOM     18  F   UNL     1       9.838   4.967   5.183  0.00  0.00    -0.166 F 
ATOM     19  F   UNL     1      10.832   6.108   3.470  0.00  0.00    -0.166 F 
ATOM     20  F   UNL     1       9.178   7.099   4.696  0.00  0.00    -0.166 F 
ENDBRANCH  12  17
ENDBRANCH   6   9
BRANCH   1  23
ATOM     21  C   UNL     1       0.100  -0.008  -0.035  0.00  0.00    +0.060 C 
ATOM     22  C   UNL     1       0.007   1.494  -0.115  0.00  0.00    +0.008 C 
ATOM     23  C   UNL     1       1.129   2.242  -0.087  0.00  0.00    +0.085 C 
BRANCH  22  24
ATOM     24  N   UNL     1      -1.215   2.098  -0.223  0.00  0.00    -0.330 N 
ATOM     25  C   UNL     1      -1.323   3.551  -0.423  0.00  0.00    +0.123 C 
ATOM     26  C   UNL     1      -2.247   3.804  -1.625  0.00  0.00    +0.124 C 
ATOM     27  N   UNL     1      -3.524   3.110  -1.409  0.00  0.00    -0.327 N 
ATOM     28  C   UNL     1      -3.335   1.655  -1.342  0.00  0.00    +0.124 C 
ATOM     29  C   UNL     1      -2.455   1.313  -0.134  0.00  0.00    +0.123 C 
BRANCH  27  30
ATOM     30  C   UNL     1      -4.451   3.449  -2.398  0.00  0.00    +0.030 A 
ATOM     31  C   UNL     1      -5.049   2.455  -3.162  0.00  0.00    +0.024 A 
ATOM     32  C   UNL     1      -5.970   2.793  -4.134  0.00  0.00    +0.022 A 
ATOM     33  C   UNL     1      -6.288   4.121  -4.356  0.00  0.00    +0.041 A 
ATOM     34  C   UNL     1      -5.689   5.114  -3.601  0.00  0.00    +0.022 A 
ATOM     35  C   UNL     1      -4.772   4.782  -2.623  0.00  0.00    +0.024 A 
ATOM     36 CL   UNL     1      -7.440   4.542  -5.585  0.00  0.00    -0.084 Cl
ENDBRANCH  27  30
ENDBRANCH  22  24
ENDBRANCH   1  23
TORSDOF 5
