REMARK  Name = ZINC39689246
REMARK  9 active torsions:
REMARK  status: ('A' for Active; 'I' for Inactive)
REMARK    1  A    between atoms: C_1  and  C_2
REMARK    2  A    between atoms: C_2  and  C_3
REMARK    3  A    between atoms: C_3  and  C_5
REMARK    4  A    between atoms: C_3  and  C_6
REMARK    5  A    between atoms: C_6  and  C_7
REMARK    6  A    between atoms: C_11  and  C_20
REMARK    7  A    between atoms: N_22  and  C_23
REMARK    8  A    between atoms: C_23  and  C_24
REMARK    9  A    between atoms: N_27  and  C_30
REMARK                            x       y       z     vdW  Elec       q    Type
REMARK                         _______ _______ _______ _____ _____    ______ ____
ROOT
ATOM      1  C   UNL     1       1.197  -2.548  -2.315  0.00  0.00    +0.216 C 
ATOM      2  O   UNL     1       1.654  -1.678  -3.025  0.00  0.00    -0.276 OA
ATOM      3  N   UNL     1       1.242  -3.835  -2.711  0.00  0.00    -0.300 N 
ATOM      4  C   UNL     1       0.735  -5.026  -1.990  0.00  0.00    +0.121 C 
ATOM      5  C   UNL     1       0.117  -5.916  -3.092  0.00  0.00    +0.100 C 
ATOM      6  C   UNL     1       0.829  -5.488  -4.387  0.00  0.00    -0.004 C 
ATOM      7  C   UNL     1       1.805  -4.378  -3.970  0.00  0.00    +0.115 C 
ATOM      8  C   UNL     1      -0.183  -4.943  -5.390  0.00  0.00    -0.010 C 
ATOM      9  C   UNL     1       0.541  -4.577  -6.690  0.00  0.00    -0.082 C 
ATOM     10  N   UNL     1       1.206  -5.768  -7.233  0.00  0.00    +0.379 N 
ATOM     11  C   UNL     1       2.242  -6.231  -6.302  0.00  0.00    -0.082 C 
ATOM     12  C   UNL     1       1.591  -6.666  -4.986  0.00  0.00    -0.010 C 
ATOM     13  H   UNL     1       0.525  -6.500  -7.368  0.00  0.00    -0.086 HD
ATOM     14  H   UNL     1       1.631  -5.539  -8.119  0.00  0.00    -0.086 HD
ENDROOT
BRANCH   5  15
ATOM     15  C   UNL     1      -1.365  -5.666  -3.199  0.00  0.00    +0.218 C 
ATOM     16  O   UNL     1      -1.817  -4.574  -2.929  0.00  0.00    -0.275 OA
ATOM     17  N   UNL     1      -2.189  -6.658  -3.593  0.00  0.00    -0.315 N 
ATOM     18  H   UNL     1      -1.827  -7.532  -3.809  0.00  0.00    +0.149 HD
BRANCH  17  19
ATOM     19  C   UNL     1      -3.630  -6.415  -3.697  0.00  0.00    +0.107 C 
BRANCH  19  20
ATOM     20  C   UNL     1      -4.330  -7.694  -4.161  0.00  0.00    +0.003 C 
ATOM     21  C   UNL     1      -3.883  -8.034  -5.586  0.00  0.00    -0.014 C 
ATOM     22  C   UNL     1      -4.646  -9.267  -6.074  0.00  0.00    -0.078 C 
ATOM     23  N   UNL     1      -6.087  -8.991  -6.065  0.00  0.00    +0.382 N 
ATOM     24  C   UNL     1      -6.537  -8.734  -4.691  0.00  0.00    -0.078 C 
ATOM     25  C   UNL     1      -5.846  -7.480  -4.150  0.00  0.00    -0.014 C 
ATOM     26  H   UNL     1      -6.277  -8.181  -6.636  0.00  0.00    -0.081 HD
BRANCH  23  27
ATOM     27  C   UNL     1      -6.810 -10.149  -6.607  0.00  0.00    -0.069 C 
ATOM     28  C   UNL     1      -6.407 -10.382  -8.078  0.00  0.00    -0.015 C 
ATOM     29  C   UNL     1      -7.720 -10.834  -8.764  0.00  0.00    -0.002 C 
ATOM     30  C   UNL     1      -8.788  -9.950  -8.073  0.00  0.00    -0.002 C 
ATOM     31  C   UNL     1      -8.324  -9.874  -6.604  0.00  0.00    -0.015 C 
ENDBRANCH  23  27
ENDBRANCH  19  20
ENDBRANCH  17  19
ENDBRANCH   5  15
BRANCH   1  32
ATOM     32  C   UNL     1       0.578  -2.189  -0.988  0.00  0.00    +0.099 C 
BRANCH  32  33
ATOM     33  C   UNL     1       0.654  -0.675  -0.782  0.00  0.00    -0.006 C 
ATOM     34  C   UNL     1       2.119  -0.248  -0.674  0.00  0.00    +0.008 C 
BRANCH  33  36
ATOM     35  C   UNL     1      -0.115   1.225   0.646  0.00  0.00    +0.004 C 
ATOM     36  C   UNL     1      -0.083  -0.298   0.504  0.00  0.00    +0.000 C 
ENDBRANCH  33  36
ENDBRANCH  32  33
ENDBRANCH   1  32
TORSDOF 7
