REMARK  Name = ZINC05947315
REMARK  5 active torsions:
REMARK  status: ('A' for Active; 'I' for Inactive)
REMARK    1  A    between atoms: C_4  and  N_7
REMARK    2  A    between atoms: C_10  and  C_24
REMARK    3  A    between atoms: C_12  and  C_15
REMARK    4  A    between atoms: C_15  and  S_16
REMARK    5  A    between atoms: S_16  and  C_17
REMARK                            x       y       z     vdW  Elec       q    Type
REMARK                         _______ _______ _______ _____ _____    ______ ____
ROOT
ATOM      1  N   UNL     1       3.617  -0.673  -0.022  0.00  0.00    -0.204 N 
ATOM      2  C   UNL     1       4.798  -0.032  -0.100  0.00  0.00    +0.245 C 
ATOM      3  O   UNL     1       4.955   1.169  -0.164  0.00  0.00    -0.273 OA
ATOM      4  C   UNL     1       5.899  -1.078  -0.095  0.00  0.00    +0.156 C 
ATOM      5  C   UNL     1       5.146  -2.343   0.383  0.00  0.00    +0.102 C 
ATOM      6  N   UNL     1       3.750  -2.030   0.007  0.00  0.00    -0.228 NA
ATOM      7  H   UNL     1       3.519  -2.435  -0.887  0.00  0.00    +0.145 HD
ENDROOT
BRANCH   4   8
ATOM      8  C   UNL     1       6.992  -0.701   0.872  0.00  0.00    +0.076 C 
ATOM      9  N   UNL     1       8.243  -1.047   0.622  0.00  0.00    -0.390 N 
ATOM     10  N   UNL     1       6.699  -0.026   1.970  0.00  0.00    -0.348 N 
ATOM     11  H   UNL     1       8.457  -1.543  -0.184  0.00  0.00    +0.157 HD
ATOM     12  H   UNL     1       5.773   0.151   2.199  0.00  0.00    +0.143 HD
ATOM     13  H   UNL     1       7.411   0.294   2.546  0.00  0.00    +0.143 HD
ATOM     14  H   UNL     1       8.946  -0.804   1.244  0.00  0.00    +0.157 HD
ENDBRANCH   4   8
BRANCH   1  18
ATOM     15  C   UNL     1      -0.057   1.285   0.128  0.00  0.00    +0.000 A 
ATOM     16  C   UNL     1       0.980   1.699   0.944  0.00  0.00    +0.002 A 
ATOM     17  C   UNL     1       2.199   1.052   0.897  0.00  0.00    +0.025 A 
ATOM     18  C   UNL     1       2.383  -0.016   0.029  0.00  0.00    +0.053 A 
ATOM     19  C   UNL     1       1.340  -0.430  -0.789  0.00  0.00    +0.025 A 
ATOM     20  C   UNL     1       0.123   0.222  -0.737  0.00  0.00    +0.002 A 
ENDBRANCH   1  18
BRANCH   5  21
ATOM     21  C   UNL     1       5.648  -3.588  -0.351  0.00  0.00    +0.096 C 
BRANCH  21  22
ATOM     22  S   UNL     1       4.741  -5.045   0.238  0.00  0.00    -0.124 S 
BRANCH  22  23
ATOM     23  C   UNL     1       5.426  -6.377  -0.690  0.00  0.00    +0.008 A 
ATOM     24  C   UNL     1       6.436  -6.136  -1.613  0.00  0.00    +0.016 A 
ATOM     25  C   UNL     1       6.970  -7.182  -2.339  0.00  0.00    +0.021 A 
ATOM     26  C   UNL     1       6.500  -8.470  -2.147  0.00  0.00    +0.041 A 
ATOM     27  C   UNL     1       5.494  -8.713  -1.228  0.00  0.00    +0.021 A 
ATOM     28  C   UNL     1       4.960  -7.672  -0.496  0.00  0.00    +0.016 A 
ATOM     29 CL   UNL     1       7.174  -9.783  -3.062  0.00  0.00    -0.084 Cl
ENDBRANCH  22  23
ENDBRANCH  21  22
ENDBRANCH   5  21
TORSDOF 5
