REMARK  Name = ZINC22791698
REMARK  9 active torsions:
REMARK  status: ('A' for Active; 'I' for Inactive)
REMARK    1  A    between atoms: C_1  and  C_2
REMARK    2  A    between atoms: C_2  and  C_4
REMARK    3  A    between atoms: C_2  and  N_18
REMARK    4  A    between atoms: N_6  and  C_7
REMARK    5  A    between atoms: C_8  and  C_15
REMARK    6  A    between atoms: N_21  and  C_24
REMARK    7  A    between atoms: C_24  and  C_25
REMARK    8  A    between atoms: C_25  and  O_26
REMARK    9  A    between atoms: O_26  and  C_27
REMARK                            x       y       z     vdW  Elec       q    Type
REMARK                         _______ _______ _______ _____ _____    ______ ____
ROOT
ATOM      1  C   UNL     1      -2.108   6.285   3.803  0.00  0.00    -0.004 C 
ATOM      2  C   UNL     1      -1.034   7.227   4.350  0.00  0.00    +0.017 C 
ENDROOT
BRANCH   2   3
ATOM      3  N   UNL     1       0.160   7.157   3.497  0.00  0.00    +0.389 N 
ATOM      4  C   UNL     1       1.267   7.929   4.077  0.00  0.00    -0.062 C 
ATOM      5  C   UNL     1       2.463   7.897   3.122  0.00  0.00    +0.066 C 
ATOM      6  N   UNL     1       2.863   6.502   2.889  0.00  0.00    -0.303 NA
ATOM      7  C   UNL     1       1.755   5.730   2.309  0.00  0.00    +0.066 C 
ATOM      8  C   UNL     1       0.559   5.762   3.264  0.00  0.00    -0.062 C 
ATOM      9  H   UNL     1      -0.094   7.604   2.525  0.00  0.00    -0.081 HD
BRANCH   6  10
ATOM     10  C   UNL     1       4.056   6.432   2.036  0.00  0.00    +0.125 C 
BRANCH  10  11
ATOM     11  C   UNL     1       5.292   6.808   2.856  0.00  0.00    +0.244 C 
BRANCH  11  12
ATOM     12  O   UNL     1       5.481   5.848   3.899  0.00  0.00    -0.491 OA
BRANCH  12  13
ATOM     13  C   UNL     1       6.544   6.037   4.725  0.00  0.00    +0.121 A 
ATOM     14  C   UNL     1       6.787   5.144   5.758  0.00  0.00    +0.047 A 
ATOM     15  C   UNL     1       7.868   5.337   6.597  0.00  0.00    +0.023 A 
ATOM     16  C   UNL     1       8.707   6.420   6.407  0.00  0.00    +0.041 A 
ATOM     17  C   UNL     1       8.466   7.312   5.377  0.00  0.00    +0.023 A 
ATOM     18  C   UNL     1       7.386   7.123   4.537  0.00  0.00    +0.047 A 
ATOM     19 CL   UNL     1      10.065   6.661   7.462  0.00  0.00    -0.084 Cl
ENDBRANCH  12  13
ENDBRANCH  11  12
ENDBRANCH  10  11
ENDBRANCH   6  10
ENDBRANCH   2   3
BRANCH   2  20
ATOM     20  C   UNL     1      -1.562   8.638   4.361  0.00  0.00    +0.204 C 
ATOM     21  O   UNL     1      -1.357   9.370   3.415  0.00  0.00    -0.277 OA
ATOM     22  N   UNL     1      -2.263   9.088   5.421  0.00  0.00    -0.281 N 
ATOM     23  H   UNL     1      -2.449   8.425   6.278  0.00  0.00    +0.155 HD
BRANCH  22  24
ATOM     24  C   UNL     1      -2.749  10.387   5.430  0.00  0.00    +0.084 A 
ATOM     25  C   UNL     1      -3.486  11.022   6.414  0.00  0.00    +0.068 A 
ATOM     26  C   UNL     1      -3.875  12.412   6.178  0.00  0.00    -0.023 A 
ATOM     27  C   UNL     1      -3.473  12.926   5.002  0.00  0.00    -0.004 A 
ATOM     28  S   UNL     1      -2.586  11.605   4.212  0.00  0.00    -0.077 S 
ATOM     29  C   UNL     1      -3.912  14.354   4.830  0.00  0.00    +0.043 C 
ATOM     30  C   UNL     1      -4.285  14.820   6.255  0.00  0.00    +0.010 C 
ATOM     31  C   UNL     1      -4.657  13.487   6.934  0.00  0.00    +0.037 C 
BRANCH  25  32
ATOM     32  C   UNL     1      -3.861  10.328   7.650  0.00  0.00    +0.244 C 
ATOM     33  O   UNL     1      -3.125  10.370   8.619  0.00  0.00    -0.270 OA
ATOM     34  N   UNL     1      -5.020   9.643   7.714  0.00  0.00    -0.325 N 
ATOM     35  H   UNL     1      -5.300   9.122   8.642  0.00  0.00    +0.145 HD
ATOM     36  H   UNL     1      -5.685   9.605   6.839  0.00  0.00    +0.145 HD
ENDBRANCH  25  32
ENDBRANCH  22  24
ENDBRANCH   2  20
TORSDOF 8
