REMARK  Name = ZINC63383555
REMARK  10 active torsions:
REMARK  status: ('A' for Active; 'I' for Inactive)
REMARK    1  A    between atoms: C_1  and  C_2
REMARK    2  A    between atoms: C_2  and  C_3
REMARK    3  A    between atoms: C_2  and  C_4
REMARK    4  A    between atoms: C_4  and  C_6
REMARK    5  A    between atoms: C_4  and  N_13
REMARK    6  A    between atoms: N_8  and  C_9
REMARK    7  A    between atoms: C_9  and  C_10
REMARK    8  A    between atoms: C_10  and  O_11
REMARK    9  A    between atoms: O_11  and  C_12
REMARK   10  A    between atoms: C_14  and  C_16
REMARK                            x       y       z     vdW  Elec       q    Type
REMARK                         _______ _______ _______ _____ _____    ______ ____
ROOT
ATOM      1  C   UNL     1       3.801   1.741   1.718  0.00  0.00    +0.167 C 
ATOM      2  C   UNL     1       4.704   0.806   2.545  0.00  0.00    +0.065 C 
ATOM      3  C   UNL     1       4.440   1.104   4.000  0.00  0.00    -0.034 C 
ATOM      4  C   UNL     1       4.114   0.299   5.007  0.00  0.00    -0.001 A 
ATOM      5  C   UNL     1       3.989  -1.165   5.087  0.00  0.00    +0.010 A 
ATOM      6  C   UNL     1       3.611  -1.669   6.292  0.00  0.00    +0.001 A 
ATOM      7  C   UNL     1       3.350  -0.873   7.411  0.00  0.00    +0.002 A 
ATOM      8  C   UNL     1       3.449   0.480   7.430  0.00  0.00    +0.026 A 
ATOM      9  C   UNL     1       3.845   1.126   6.222  0.00  0.00    +0.043 A 
ATOM     10  N   UNL     1       4.036   2.385   5.966  0.00  0.00    -0.375 N 
ATOM     11  C   UNL     1       4.498   2.512   4.582  0.00  0.00    +0.131 C 
ATOM     12  C   UNL     1       3.542   3.368   3.743  0.00  0.00    +0.134 C 
ATOM     13  N   UNL     1       3.837   3.081   2.318  0.00  0.00    -0.276 N 
ATOM     14  C   UNL     1       4.150   4.232   1.696  0.00  0.00    +0.248 C 
ATOM     15  O   UNL     1       4.369   4.343   0.506  0.00  0.00    -0.270 OA
ATOM     16  C   UNL     1       4.188   5.333   2.661  0.00  0.00    +0.042 A 
ATOM     17  C   UNL     1       3.815   4.823   3.945  0.00  0.00    -0.013 A 
ATOM     18  C   UNL     1       3.756   5.620   5.066  0.00  0.00    +0.006 A 
ATOM     19  C   UNL     1       4.074   6.965   4.902  0.00  0.00    +0.000 A 
ATOM     20  C   UNL     1       4.431   7.484   3.673  0.00  0.00    +0.001 A 
ATOM     21  C   UNL     1       4.507   6.683   2.494  0.00  0.00    +0.013 A 
ATOM     22  H   UNL     1       3.896   3.118   6.586  0.00  0.00    +0.160 HD
ENDROOT
BRANCH   1  24
ATOM     23  N   UNL     1       2.116  -0.004   1.231  0.00  0.00    -0.302 N 
ATOM     24  C   UNL     1       2.387   1.219   1.728  0.00  0.00    +0.235 C 
ATOM     25  O   UNL     1       1.493   1.900   2.184  0.00  0.00    -0.274 OA
ATOM     26  H   UNL     1       2.832  -0.548   0.866  0.00  0.00    +0.150 HD
BRANCH  23  27
ATOM     27  C   UNL     1       0.742  -0.511   1.242  0.00  0.00    +0.161 C 
BRANCH  27  28
ATOM     28  C   UNL     1       0.762  -2.018   1.233  0.00  0.00    +0.234 C 
ATOM     29  O   UNL     1       1.821  -2.610   1.220  0.00  0.00    -0.274 OA
ATOM     30  N   UNL     1      -0.395  -2.707   1.241  0.00  0.00    -0.312 N 
ATOM     31  H   UNL     1      -1.242  -2.234   1.251  0.00  0.00    +0.149 HD
BRANCH  30  32
ATOM     32  C   UNL     1      -0.376  -4.172   1.233  0.00  0.00    +0.132 C 
BRANCH  32  33
ATOM     33  C   UNL     1      -1.811  -4.702   1.243  0.00  0.00    +0.178 C 
BRANCH  33  34
ATOM     34  O   UNL     1      -2.466  -4.326   0.031  0.00  0.00    -0.381 OA
ATOM     35  C   UNL     1      -3.820  -4.774  -0.061  0.00  0.00    +0.194 C 
ENDBRANCH  33  34
ENDBRANCH  32  33
ENDBRANCH  30  32
ENDBRANCH  27  28
BRANCH  27  37
ATOM     36  C   UNL     1      -0.019   1.526   0.010  0.00  0.00    +0.009 C 
ATOM     37  C   UNL     1       0.002  -0.004   0.002  0.00  0.00    +0.012 C 
ATOM     38  C   UNL     1       0.718  -0.497  -1.257  0.00  0.00    +0.009 C 
ENDBRANCH  27  37
ENDBRANCH  23  27
ENDBRANCH   1  24
TORSDOF 7
