REMARK  Name = ZINC67162932
REMARK  9 active torsions:
REMARK  status: ('A' for Active; 'I' for Inactive)
REMARK    1  A    between atoms: C_1  and  N_2
REMARK    2  A    between atoms: N_2  and  C_3
REMARK    3  A    between atoms: C_6  and  C_10
REMARK    4  A    between atoms: C_10  and  N_11
REMARK    5  A    between atoms: C_12  and  C_14
REMARK    6  A    between atoms: C_14  and  C_15
REMARK    7  A    between atoms: C_15  and  C_16
REMARK    8  A    between atoms: C_16  and  C_17
REMARK    9  A    between atoms: C_17  and  C_18
REMARK                            x       y       z     vdW  Elec       q    Type
REMARK                         _______ _______ _______ _____ _____    ______ ____
ROOT
ATOM      1  N   UNL     1      -1.351  -4.764  -2.463  0.00  0.00    -0.311 N 
ATOM      2  C   UNL     1      -1.585  -6.091  -2.499  0.00  0.00    +0.213 C 
ATOM      3  O   UNL     1      -0.655  -6.870  -2.529  0.00  0.00    -0.276 OA
ATOM      4  H   UNL     1      -2.094  -4.141  -2.439  0.00  0.00    +0.149 HD
ENDROOT
BRANCH   1   5
ATOM      5  C   UNL     1       0.025  -4.262  -2.458  0.00  0.00    +0.139 C 
BRANCH   5  11
ATOM      6  C   UNL     1      -0.018   1.461   0.010  0.00  0.00    +0.130 C 
ATOM      7  N   UNL     1       0.002  -0.004   0.002  0.00  0.00    -0.323 N 
ATOM      8  C   UNL     1       0.024  -0.743   1.267  0.00  0.00    +0.130 C 
ATOM      9  C   UNL     1       0.000  -0.693  -1.206  0.00  0.00    +0.098 A 
ATOM     10  C   UNL     1       0.013  -2.084  -1.206  0.00  0.00    +0.047 A 
ATOM     11  C   UNL     1       0.011  -2.756  -2.415  0.00  0.00    -0.026 A 
ATOM     12  C   UNL     1      -0.004  -2.012  -3.587  0.00  0.00    +0.023 A 
ATOM     13  C   UNL     1      -0.017  -0.633  -3.513  0.00  0.00    +0.084 A 
ATOM     14  N   UNL     1      -0.020  -0.019  -2.345  0.00  0.00    -0.350 N 
ATOM     15  H   UNL     1      -0.033   0.951  -2.321  0.00  0.00    +0.166 HD
ENDBRANCH   5  11
ENDBRANCH   1   5
BRANCH   2  16
ATOM     16  C   UNL     1      -3.000  -6.607  -2.504  0.00  0.00    +0.096 C 
BRANCH  16  17
ATOM     17  C   UNL     1      -2.986  -8.136  -2.548  0.00  0.00    +0.009 C 
BRANCH  17  18
ATOM     18  C   UNL     1      -4.423  -8.660  -2.553  0.00  0.00    +0.002 C 
BRANCH  18  19
ATOM     19  C   UNL     1      -4.408 -10.189  -2.597  0.00  0.00    +0.016 C 
BRANCH  19  20
ATOM     20  C   UNL     1      -5.846 -10.713  -2.601  0.00  0.00    +0.069 C 
ATOM     21  C   UNL     1      -5.876 -12.220  -2.612  0.00  0.00    +0.108 C 
ATOM     22  C   UNL     1      -7.210 -12.686  -3.274  0.00  0.00    +0.105 C 
ATOM     23  C   UNL     1      -7.199 -12.083  -4.676  0.00  0.00    +0.093 C 
ATOM     24  S   UNL     1      -6.689 -10.342  -4.209  0.00  0.00    -0.154 S 
ATOM     25  N   UNL     1      -7.090 -14.111  -3.064  0.00  0.00    -0.294 N 
ATOM     26  C   UNL     1      -6.417 -14.249  -1.882  0.00  0.00    +0.300 C 
ATOM     27  O   UNL     1      -6.350 -15.294  -1.264  0.00  0.00    -0.253 OA
ATOM     28  N   UNL     1      -5.846 -13.085  -1.470  0.00  0.00    -0.294 N 
ATOM     29  H   UNL     1      -7.418 -14.819  -3.639  0.00  0.00    +0.151 HD
ATOM     30  H   UNL     1      -5.489 -12.888  -0.589  0.00  0.00    +0.151 HD
ENDBRANCH  19  20
ENDBRANCH  18  19
ENDBRANCH  17  18
ENDBRANCH  16  17
ENDBRANCH   2  16
TORSDOF 7
