REMARK  Name = ZINC14529596
REMARK  10 active torsions:
REMARK  status: ('A' for Active; 'I' for Inactive)
REMARK    1  A    between atoms: C_1  and  C_2
REMARK    2  A    between atoms: C_3  and  C_16
REMARK    3  A    between atoms: C_4  and  C_15
REMARK    4  A    between atoms: C_9  and  C_11
REMARK    5  A    between atoms: C_16  and  C_17
REMARK    6  A    between atoms: C_17  and  C_18
REMARK    7  A    between atoms: C_23  and  C_26
REMARK    8  A    between atoms: C_26  and  N_62
REMARK    9  A    between atoms: C_28  and  C_35
REMARK   10  A    between atoms: C_31  and  C_34
REMARK                            x       y       z     vdW  Elec       q    Type
REMARK                         _______ _______ _______ _____ _____    ______ ____
ROOT
ATOM      1  C   UNL     1       1.259  -4.211  -1.472  0.00  0.00    +0.219 C 
ATOM      2  O   UNL     1       1.278  -4.822  -0.425  0.00  0.00    -0.275 OA
ATOM      3  N   UNL     1       1.258  -4.879  -2.643  0.00  0.00    -0.265 N 
ATOM      4  C   UNL     1       1.278  -6.269  -2.650  0.00  0.00    +0.164 A 
ATOM      5  N   UNL     1       1.280  -7.093  -3.679  0.00  0.00    -0.231 NA
ATOM      6  C   UNL     1       1.302  -8.400  -3.509  0.00  0.00    +0.034 A 
ATOM      7  C   UNL     1       1.321  -8.886  -2.244  0.00  0.00    +0.070 A 
ATOM      8  S   UNL     1       1.315  -7.366  -1.304  0.00  0.00    -0.060 S 
ATOM      9  H   UNL     1       1.242  -4.391  -3.480  0.00  0.00    +0.157 HD
ENDROOT
BRANCH   1  10
ATOM     10  C   UNL     1       1.236  -2.704  -1.465  0.00  0.00    +0.101 C 
BRANCH  10  11
ATOM     11  C   UNL     1       1.243  -2.201  -0.020  0.00  0.00    +0.048 C 
BRANCH  11  14
ATOM     12  C   UNL     1      -1.295  -0.772   0.010  0.00  0.00    +0.066 C 
ATOM     13  C   UNL     1       0.002  -0.004   0.002  0.00  0.00    +0.047 A 
ATOM     14  C   UNL     1       1.220  -0.694  -0.013  0.00  0.00    -0.005 A 
ATOM     15  C   UNL     1       2.382   0.010  -0.020  0.00  0.00    +0.048 A 
ATOM     16  N   UNL     1       2.329   1.368  -0.013  0.00  0.00    -0.200 N 
ATOM     17  C   UNL     1       1.123   2.011   0.002  0.00  0.00    +0.254 A 
ATOM     18  N   UNL     1      -0.016   1.309   0.009  0.00  0.00    -0.216 NA
ATOM     19  N   UNL     1       1.374   3.316   0.006  0.00  0.00    -0.186 NA
ATOM     20  C   UNL     1       2.684   3.521  -0.005  0.00  0.00    +0.257 A 
ATOM     21  N   UNL     1       3.310   2.369  -0.017  0.00  0.00    -0.139 NA
ATOM     22  C   UNL     1       3.708  -0.704  -0.037  0.00  0.00    +0.066 C 
BRANCH  20  23
ATOM     23  C   UNL     1       3.351   4.872  -0.005  0.00  0.00    +0.454 C 
ATOM     24  F   UNL     1       3.239   5.448  -1.276  0.00  0.00    -0.163 F 
ATOM     25  F   UNL     1       2.731   5.699   0.937  0.00  0.00    -0.163 F 
ATOM     26  F   UNL     1       4.703   4.724   0.322  0.00  0.00    -0.163 F 
ENDBRANCH  20  23
ENDBRANCH  11  14
ENDBRANCH  10  11
ENDBRANCH   1  10
BRANCH   6  27
ATOM     27  C   UNL     1       1.304  -9.332  -4.693  0.00  0.00    -0.022 C 
BRANCH  27  35
ATOM     28  C   UNL     1      -0.822  -8.297  -5.211  0.00  0.00    -0.075 C 
ATOM     29  C   UNL     1      -2.289  -8.586  -5.537  0.00  0.00    -0.031 C 
ATOM     30  C   UNL     1      -2.374  -9.327  -6.874  0.00  0.00    +0.003 C 
ATOM     31  C   UNL     1      -1.550 -10.615  -6.788  0.00  0.00    -0.031 C 
ATOM     32  C   UNL     1      -0.105 -10.267  -6.426  0.00  0.00    -0.075 C 
ATOM     33  C   UNL     1      -1.580 -11.332  -8.139  0.00  0.00    +0.005 C 
ATOM     34  C   UNL     1      -3.062  -7.269  -5.633  0.00  0.00    +0.005 C 
ATOM     35  N   UNL     1      -0.090  -9.578  -5.118  0.00  0.00    +0.384 N 
ATOM     36  H   UNL     1      -0.551 -10.175  -4.422  0.00  0.00    -0.081 HD
ENDBRANCH  27  35
ENDBRANCH   6  27
TORSDOF 6
