REMARK  Name = ZINC63374340
REMARK  6 active torsions:
REMARK  status: ('A' for Active; 'I' for Inactive)
REMARK    1  A    between atoms: C_1  and  C_2
REMARK    2  A    between atoms: C_13  and  C_32
REMARK    3  A    between atoms: N_20  and  C_23
REMARK    4  A    between atoms: C_23  and  C_24
REMARK    5  A    between atoms: C_35  and  O_38
REMARK    6  A    between atoms: O_38  and  C_39
REMARK                            x       y       z     vdW  Elec       q    Type
REMARK                         _______ _______ _______ _____ _____    ______ ____
ROOT
ATOM      1  C   UNL     1       0.127   1.565   0.553  0.00  0.00    +0.044 C 
ATOM      2  C   UNL     1       0.095   0.040   0.428  0.00  0.00    +0.135 C 
ATOM      3  C   UNL     1       0.409  -0.246  -1.006  0.00  0.00    +0.139 C 
ATOM      4  C   UNL     1       1.467  -1.333  -1.089  0.00  0.00    -0.027 C 
ATOM      5  C   UNL     1       1.012  -2.241  -1.939  0.00  0.00    -0.000 A 
ATOM      6  C   UNL     1       1.614  -3.468  -2.485  0.00  0.00    +0.010 A 
ATOM      7  C   UNL     1       0.843  -4.184  -3.345  0.00  0.00    +0.001 A 
ATOM      8  C   UNL     1      -0.453  -3.807  -3.713  0.00  0.00    +0.002 A 
ATOM      9  C   UNL     1      -1.083  -2.692  -3.265  0.00  0.00    +0.026 A 
ATOM     10  C   UNL     1      -0.371  -1.855  -2.358  0.00  0.00    +0.043 A 
ATOM     11  N   UNL     1      -0.717  -0.753  -1.789  0.00  0.00    -0.375 N 
ATOM     12  C   UNL     1       2.705  -1.279  -0.227  0.00  0.00    +0.065 C 
ATOM     13  C   UNL     1       2.214  -1.260   1.223  0.00  0.00    +0.121 C 
ATOM     14  N   UNL     1       1.033  -0.442   1.425  0.00  0.00    -0.283 N 
ATOM     15  C   UNL     1       0.719  -0.111   2.722  0.00  0.00    +0.234 C 
ATOM     16  O   UNL     1       1.471  -0.358   3.641  0.00  0.00    -0.274 OA
ATOM     17  C   UNL     1      -0.610   0.578   2.948  0.00  0.00    +0.204 C 
ATOM     18  N   UNL     1      -1.635  -0.093   2.128  0.00  0.00    -0.286 N 
ATOM     19  C   UNL     1      -1.305  -0.352   0.826  0.00  0.00    +0.242 C 
ATOM     20  O   UNL     1      -2.083  -0.861   0.048  0.00  0.00    -0.273 OA
ATOM     21  H   UNL     1      -1.586  -0.331  -1.875  0.00  0.00    +0.160 HD
ENDROOT
BRANCH  12  22
ATOM     22  C   UNL     1       3.490  -0.028  -0.527  0.00  0.00    -0.038 A 
ATOM     23  C   UNL     1       3.192   1.149   0.133  0.00  0.00    +0.008 A 
ATOM     24  C   UNL     1       3.910   2.297  -0.140  0.00  0.00    +0.046 A 
ATOM     25  C   UNL     1       4.932   2.268  -1.078  0.00  0.00    +0.120 A 
ATOM     26  C   UNL     1       5.230   1.085  -1.739  0.00  0.00    +0.046 A 
ATOM     27  C   UNL     1       4.512  -0.062  -1.458  0.00  0.00    +0.008 A 
BRANCH  25  28
ATOM     28  O   UNL     1       5.640   3.396  -1.349  0.00  0.00    -0.495 OA
ATOM     29  C   UNL     1       6.678   3.291  -2.326  0.00  0.00    +0.277 C 
ENDBRANCH  25  28
ENDBRANCH  12  22
BRANCH  18  30
ATOM     30  C   UNL     1      -2.941  -0.464   2.679  0.00  0.00    +0.147 C 
BRANCH  30  31
ATOM     31  C   UNL     1      -3.910   0.673   2.484  0.00  0.00    +0.023 A 
ATOM     32  C   UNL     1      -4.032   1.653   3.454  0.00  0.00    +0.129 A 
ATOM     33  C   UNL     1      -4.923   2.698   3.273  0.00  0.00    +0.039 A 
ATOM     34  C   UNL     1      -5.689   2.762   2.125  0.00  0.00    +0.004 A 
ATOM     35  C   UNL     1      -5.568   1.783   1.157  0.00  0.00    +0.020 A 
ATOM     36  C   UNL     1      -4.674   0.742   1.333  0.00  0.00    +0.048 A 
ATOM     37 CL   UNL     1      -4.517  -0.483   0.113  0.00  0.00    -0.083 Cl
ATOM     38  F   UNL     1      -3.283   1.591   4.576  0.00  0.00    -0.205 F 
ENDBRANCH  30  31
ENDBRANCH  18  30
TORSDOF 4
