REMARK  Name = ZINC13098041
REMARK  16 active torsions:
REMARK  status: ('A' for Active; 'I' for Inactive)
REMARK    1  A    between atoms: C_1  and  C_2
REMARK    2  A    between atoms: C_5  and  C_8
REMARK    3  A    between atoms: C_8  and  C_10
REMARK    4  A    between atoms: C_8  and  O_16
REMARK    5  A    between atoms: O_16  and  C_17
REMARK    6  A    between atoms: C_17  and  C_18
REMARK    7  A    between atoms: C_18  and  C_20
REMARK    8  A    between atoms: C_18  and  O_37
REMARK    9  A    between atoms: C_20  and  N_63
REMARK   10  A    between atoms: C_21  and  C_23
REMARK   11  A    between atoms: C_21  and  C_25
REMARK   12  A    between atoms: C_21  and  N_63
REMARK   13  A    between atoms: C_23  and  O_24
REMARK   14  A    between atoms: C_25  and  C_27
REMARK   15  A    between atoms: C_25  and  O_36
REMARK   16  A    between atoms: C_30  and  N_33
REMARK                            x       y       z     vdW  Elec       q    Type
REMARK                         _______ _______ _______ _____ _____    ______ ____
ROOT
ATOM      1  C   UNK A   0       1.540   3.662   2.326  0.00  0.00    -0.048 C 
ENDROOT
BRANCH   1   2
ATOM      2  N   UNK A   1       0.518   3.514   1.272  0.00  0.00    +0.386 N 
ATOM      3  H   UNK A   1       0.047   4.414   1.129  0.00  0.00    -0.085 HD
ATOM      4  H   UNK A   1      -0.170   2.810   1.565  0.00  0.00    -0.085 HD
BRANCH   2   5
ATOM      5  C   UNK A   1       1.145   3.085   0.008  0.00  0.00    -0.012 C 
BRANCH   5   6
ATOM      6  C   UNK A   1       1.286   1.562  -0.002  0.00  0.00    +0.143 C 
BRANCH   6   7
ATOM      7  O   UNK A   1      -0.011   0.963   0.007  0.00  0.00    -0.397 OA
ATOM      8  H   UNK A   1       0.002  -0.004   0.002  0.00  0.00    +0.209 HD
ENDBRANCH   6   7
ENDBRANCH   5   6
BRANCH   5   9
ATOM      9  C   UNK A   1       0.263   3.523  -1.163  0.00  0.00    +0.133 C 
BRANCH   9  10
ATOM     10  C   UNK A   1       0.123   5.023  -1.154  0.00  0.00    -0.020 A 
ATOM     11  C   UNK A   1      -0.779   5.628  -0.299  0.00  0.00    +0.008 A 
ATOM     12  C   UNK A   1      -0.904   7.005  -0.287  0.00  0.00    +0.033 A 
ATOM     13  C   UNK A   1      -0.133   7.776  -1.137  0.00  0.00    +0.126 A 
ATOM     14  C   UNK A   1       0.766   7.171  -1.995  0.00  0.00    +0.033 A 
ATOM     15  C   UNK A   1       0.894   5.794  -2.004  0.00  0.00    +0.008 A 
BRANCH  13  16
ATOM     16  N   UNK A   1      -0.269   9.250  -1.128  0.00  0.00    +0.056 N 
ATOM     17  O   UNK A   1       0.410   9.929  -1.876  0.00  0.00    -0.126 OA
ATOM     18  O   UNK A   1      -1.061   9.783  -0.371  0.00  0.00    -0.126 OA
ENDBRANCH  13  16
ENDBRANCH   9  10
BRANCH   9  19
ATOM     19  O   UNK A   1      -1.028   2.924  -1.037  0.00  0.00    -0.389 OA
ATOM     20  H   UNK A   1      -1.495   3.162  -0.224  0.00  0.00    +0.210 HD
ENDBRANCH   9  19
ENDBRANCH   5   9
ENDBRANCH   2   5
ENDBRANCH   1   2
BRANCH   1  21
ATOM     21  C   UNK A   0       0.862   4.106   3.623  0.00  0.00    +0.123 C 
BRANCH  21  22
ATOM     22  O   UNK A   0       0.204   5.357   3.413  0.00  0.00    -0.391 OA
ATOM     23  H   UNK A   0       0.796   6.072   3.141  0.00  0.00    +0.210 HD
ENDBRANCH  21  22
BRANCH  21  24
ATOM     24  C   UNK A   0       1.916   4.263   4.722  0.00  0.00    +0.190 C 
BRANCH  24  25
ATOM     25  O   UNK A   0       1.271   4.564   5.961  0.00  0.00    -0.365 OA
BRANCH  25  26
ATOM     26  C   UNK A   0       2.171   4.731   7.059  0.00  0.00    +0.178 C 
BRANCH  26  31
ATOM     27  C   UNK A   0      -0.451   3.139  11.956  0.00  0.00    +0.044 C 
ATOM     28  C   UNK A   0       0.233   3.554  10.679  0.00  0.00    -0.050 A 
ATOM     29  C   UNK A   0       1.585   3.320  10.511  0.00  0.00    +0.004 A 
ATOM     30  C   UNK A   0       2.212   3.700   9.339  0.00  0.00    +0.007 A 
ATOM     31  C   UNK A   0       1.487   4.316   8.336  0.00  0.00    -0.014 A 
ATOM     32  C   UNK A   0       0.136   4.556   8.506  0.00  0.00    +0.007 A 
ATOM     33  C   UNK A   0      -0.492   4.170   9.676  0.00  0.00    +0.004 A 
ENDBRANCH  26  31
BRANCH  26  34
ATOM     34  C   UNK A   0       2.581   6.178   7.156  0.00  0.00    -0.015 A 
ATOM     35  C   UNK A   0       1.651   7.177   6.936  0.00  0.00    +0.006 A 
ATOM     36  C   UNK A   0       2.026   8.504   7.030  0.00  0.00    +0.000 A 
ATOM     37  C   UNK A   0       3.334   8.832   7.334  0.00  0.00    +0.000 A 
ATOM     38  C   UNK A   0       4.265   7.834   7.549  0.00  0.00    +0.000 A 
ATOM     39  C   UNK A   0       3.889   6.507   7.460  0.00  0.00    +0.006 A 
ENDBRANCH  26  34
ENDBRANCH  25  26
ENDBRANCH  24  25
ENDBRANCH  21  24
ENDBRANCH   1  21
TORSDOF 15
