REMARK  Name = ZINC39631594
REMARK  12 active torsions:
REMARK  status: ('A' for Active; 'I' for Inactive)
REMARK    1  A    between atoms: C_1  and  C_2
REMARK    2  A    between atoms: C_5  and  C_9
REMARK    3  A    between atoms: C_13  and  C_22
REMARK    4  A    between atoms: N_24  and  C_25
REMARK    5  A    between atoms: C_25  and  C_27
REMARK    6  A    between atoms: C_25  and  C_28
REMARK    7  A    between atoms: C_28  and  C_29
REMARK    8  A    between atoms: C_29  and  C_30
REMARK    9  A    between atoms: C_30  and  C_31
REMARK   10  A    between atoms: C_31  and  C_32
REMARK   11  A    between atoms: C_31  and  C_33
REMARK   12  A    between atoms: C_31  and  O_34
REMARK                            x       y       z     vdW  Elec       q    Type
REMARK                         _______ _______ _______ _____ _____    ______ ____
ROOT
ATOM      1  C   UNL     1      -0.509  -3.733  -0.400  0.00  0.00    +0.247 C 
ATOM      2  O   UNL     1      -0.522  -4.354  -1.444  0.00  0.00    -0.270 OA
ATOM      3  N   UNL     1      -0.339  -4.382   0.769  0.00  0.00    -0.296 N 
ATOM      4  C   UNL     1      -0.421  -3.823   2.139  0.00  0.00    +0.121 C 
ATOM      5  C   UNL     1      -1.135  -4.917   2.965  0.00  0.00    +0.100 C 
ATOM      6  C   UNL     1      -0.872  -6.223   2.196  0.00  0.00    -0.004 C 
ATOM      7  C   UNL     1      -0.034  -5.818   0.974  0.00  0.00    +0.115 C 
ATOM      8  C   UNL     1      -2.189  -6.844   1.743  0.00  0.00    -0.010 C 
ATOM      9  C   UNL     1      -1.905  -8.170   1.031  0.00  0.00    -0.082 C 
ATOM     10  N   UNL     1      -1.202  -9.078   1.946  0.00  0.00    +0.379 N 
ATOM     11  C   UNL     1       0.105  -8.514   2.304  0.00  0.00    -0.082 C 
ATOM     12  C   UNL     1      -0.094  -7.203   3.070  0.00  0.00    -0.010 C 
ATOM     13  H   UNL     1      -1.753  -9.203   2.782  0.00  0.00    -0.086 HD
ATOM     14  H   UNL     1      -1.070  -9.971   1.496  0.00  0.00    -0.086 HD
ENDROOT
BRANCH   1  19
ATOM     15  C   UNL     1      -1.175   1.985  -0.449  0.00  0.00    +0.047 C 
ATOM     16  C   UNL     1      -1.000   0.488  -0.435  0.00  0.00    -0.015 A 
ATOM     17  C   UNL     1      -1.309  -0.252  -1.563  0.00  0.00    +0.007 A 
ATOM     18  C   UNL     1      -1.152  -1.622  -1.557  0.00  0.00    +0.013 A 
ATOM     19  C   UNL     1      -0.679  -2.264  -0.411  0.00  0.00    +0.040 A 
ATOM     20  C   UNL     1      -0.367  -1.514   0.723  0.00  0.00    +0.051 A 
ATOM     21  C   UNL     1      -0.524  -0.141   0.704  0.00  0.00    +0.127 A 
ATOM     22  F   UNL     1      -0.219   0.589   1.799  0.00  0.00    -0.205 F 
ENDBRANCH   1  19
BRANCH   5  23
ATOM     23  C   UNL     1      -2.614  -4.638   3.038  0.00  0.00    +0.218 C 
ATOM     24  O   UNL     1      -3.153  -3.989   2.167  0.00  0.00    -0.275 OA
ATOM     25  N   UNL     1      -3.338  -5.109   4.073  0.00  0.00    -0.312 N 
ATOM     26  H   UNL     1      -2.896  -5.566   4.806  0.00  0.00    +0.149 HD
BRANCH  25  27
ATOM     27  C   UNL     1      -4.792  -4.932   4.090  0.00  0.00    +0.070 C 
ATOM     28  C   UNL     1      -5.458  -6.114   3.384  0.00  0.00    +0.028 C 
BRANCH  27  29
ATOM     29  C   UNL     1      -5.280  -4.862   5.538  0.00  0.00    +0.022 C 
BRANCH  29  30
ATOM     30  C   UNL     1      -4.714  -3.608   6.207  0.00  0.00    +0.005 C 
BRANCH  30  31
ATOM     31  C   UNL     1      -5.101  -3.601   7.687  0.00  0.00    +0.034 C 
BRANCH  31  32
ATOM     32  C   UNL     1      -4.633  -2.294   8.331  0.00  0.00    +0.061 C 
ATOM     33  C   UNL     1      -5.319  -1.112   7.641  0.00  0.00    +0.041 C 
ATOM     34  C   UNL     1      -4.996  -2.298   9.817  0.00  0.00    +0.041 C 
BRANCH  32  35
ATOM     35  O   UNL     1      -3.216  -2.173   8.187  0.00  0.00    -0.389 OA
ATOM     36  H   UNL     1      -2.720  -2.926   8.534  0.00  0.00    +0.210 HD
ENDBRANCH  32  35
ENDBRANCH  31  32
ENDBRANCH  30  31
ENDBRANCH  29  30
ENDBRANCH  27  29
ENDBRANCH  25  27
ENDBRANCH   5  23
TORSDOF 8
