REMARK  Name = ZINC38065048
REMARK  7 active torsions:
REMARK  status: ('A' for Active; 'I' for Inactive)
REMARK    1  A    between atoms: C_1  and  C_2
REMARK    2  A    between atoms: C_2  and  C_3
REMARK    3  A    between atoms: C_3  and  C_5
REMARK    4  A    between atoms: C_3  and  N_6
REMARK    5  A    between atoms: N_6  and  C_7
REMARK    6  A    between atoms: C_7  and  C_9
REMARK    7  A    between atoms: C_7  and  C_21
REMARK                            x       y       z     vdW  Elec       q    Type
REMARK                         _______ _______ _______ _____ _____    ______ ____
ROOT
ATOM      1  C   UNL     1       0.688  -0.480  -3.655  0.00  0.00    +0.047 C 
ENDROOT
BRANCH   1   2
ATOM      2  C   UNL     1      -0.158  -0.199  -4.870  0.00  0.00    -0.048 A 
ATOM      3  C   UNL     1      -0.164  -1.090  -5.928  0.00  0.00    +0.052 A 
ATOM      4  C   UNL     1      -0.943  -0.829  -7.042  0.00  0.00    +0.163 A 
ATOM      5  C   UNL     1      -1.715   0.324  -7.096  0.00  0.00    +0.176 A 
ATOM      6  C   UNL     1      -1.706   1.214  -6.036  0.00  0.00    +0.063 A 
ATOM      7  C   UNL     1      -0.930   0.947  -4.921  0.00  0.00    +0.021 A 
ATOM      8 BR   UNL     1      -2.756   2.786  -6.108  0.00  0.00    -0.046 Br
ATOM      9  O   UNL     1      -2.480   0.572  -8.199  0.00  0.00    -0.487 OA
ATOM     10  C   UNL     1      -1.765   0.867  -9.401  0.00  0.00    +0.232 C 
ATOM     11  C   UNL     1      -1.354  -0.412 -10.112  0.00  0.00    +0.082 C 
ATOM     12  C   UNL     1      -0.361  -1.231  -9.303  0.00  0.00    +0.232 C 
ATOM     13  O   UNL     1      -0.959  -1.700  -8.092  0.00  0.00    -0.488 OA
ENDBRANCH   1   2
BRANCH   1  14
ATOM     14  C   UNL     1       1.957   0.328  -3.729  0.00  0.00    +0.201 C 
ATOM     15  O   UNL     1       2.216   1.132  -2.858  0.00  0.00    -0.277 OA
ATOM     16  N   UNL     1       2.805   0.159  -4.763  0.00  0.00    -0.330 N 
ATOM     17  H   UNL     1       2.598  -0.484  -5.460  0.00  0.00    +0.145 HD
ATOM     18  H   UNL     1       3.622   0.679  -4.810  0.00  0.00    +0.145 HD
ENDBRANCH   1  14
BRANCH   1  19
ATOM     19  N   UNL     1      -0.057  -0.113  -2.444  0.00  0.00    +0.391 N 
ATOM     20  H   UNL     1      -0.945  -0.593  -2.436  0.00  0.00    -0.084 HD
ATOM     21  H   UNL     1      -0.214   0.884  -2.435  0.00  0.00    -0.084 HD
BRANCH  19  22
ATOM     22  C   UNL     1       0.718  -0.497  -1.257  0.00  0.00    -0.074 C 
ATOM     23  C   UNL     1       0.849  -2.021  -1.205  0.00  0.00    -0.014 C 
BRANCH  22  25
ATOM     24  C   UNL     1      -0.019   1.526   0.010  0.00  0.00    +0.002 C 
ATOM     25  C   UNL     1       0.002  -0.004   0.002  0.00  0.00    -0.019 C 
ENDBRANCH  22  25
ENDBRANCH  19  22
ENDBRANCH   1  19
TORSDOF 5
