REMARK  Name = ZINC38564418
REMARK  15 active torsions:
REMARK  status: ('A' for Active; 'I' for Inactive)
REMARK    1  A    between atoms: C_1  and  C_2
REMARK    2  A    between atoms: C_2  and  C_4
REMARK    3  A    between atoms: C_2  and  N_10
REMARK    4  A    between atoms: C_11  and  C_13
REMARK    5  A    between atoms: C_13  and  C_15
REMARK    6  A    between atoms: C_13  and  N_18
REMARK    7  A    between atoms: C_15  and  C_16
REMARK    8  A    between atoms: C_15  and  C_17
REMARK    9  A    between atoms: C_19  and  C_21
REMARK   10  A    between atoms: C_27  and  C_29
REMARK   11  A    between atoms: C_29  and  C_31
REMARK   12  A    between atoms: C_29  and  N_35
REMARK   13  A    between atoms: C_31  and  C_32
REMARK   14  A    between atoms: C_32  and  S_33
REMARK   15  A    between atoms: S_33  and  C_34
REMARK                            x       y       z     vdW  Elec       q    Type
REMARK                         _______ _______ _______ _____ _____    ______ ____
ROOT
ATOM      1  N   UNL     1      -3.997  -1.031   2.516  0.00  0.00    -0.304 N 
ATOM      2  C   UNL     1      -5.073  -1.760   2.874  0.00  0.00    +0.217 C 
ATOM      3  O   UNL     1      -5.624  -2.468   2.058  0.00  0.00    -0.275 OA
ATOM      4  H   UNL     1      -3.556  -0.465   3.168  0.00  0.00    +0.149 HD
ENDROOT
BRANCH   2   5
ATOM      5  C   UNL     1      -5.592  -1.693   4.287  0.00  0.00    +0.078 C 
ATOM      6  C   UNL     1      -4.497  -2.150   5.254  0.00  0.00    +0.032 C 
ATOM      7  C   UNL     1      -5.016  -2.048   6.692  0.00  0.00    +0.108 C 
ATOM      8  N   UNL     1      -6.269  -2.808   6.797  0.00  0.00    -0.303 N 
ATOM      9  C   UNL     1      -7.356  -2.511   5.854  0.00  0.00    +0.108 C 
ATOM     10  C   UNL     1      -6.811  -2.608   4.426  0.00  0.00    +0.032 C 
ATOM     11  C   UNL     1      -6.417  -3.760   7.740  0.00  0.00    +0.201 C 
ATOM     12  O   UNL     1      -5.512  -3.995   8.511  0.00  0.00    -0.277 OA
BRANCH  11  13
ATOM     13  C   UNL     1      -7.709  -4.531   7.835  0.00  0.00    +0.014 C 
BRANCH  13  14
ATOM     14  N   UNL     1      -7.479  -5.782   8.569  0.00  0.00    +0.386 N 
ATOM     15  H   UNL     1      -8.344  -6.298   8.633  0.00  0.00    -0.089 HD
ATOM     16  H   UNL     1      -6.791  -6.336   8.082  0.00  0.00    -0.089 HD
ATOM     17  H   UNL     1      -7.144  -5.570   9.498  0.00  0.00    -0.089 HD
ENDBRANCH  13  14
BRANCH  13  18
ATOM     18  C   UNL     1      -8.752  -3.689   8.574  0.00  0.00    +0.003 C 
BRANCH  18  19
ATOM     19  C   UNL     1     -10.097  -4.419   8.562  0.00  0.00    +0.068 C 
BRANCH  19  20
ATOM     20  S   UNL     1     -11.333  -3.421   9.437  0.00  0.00    -0.164 S 
ATOM     21  C   UNL     1     -12.849  -4.412   9.334  0.00  0.00    +0.084 C 
ENDBRANCH  19  20
ENDBRANCH  18  19
ENDBRANCH  13  18
ENDBRANCH  11  13
ENDBRANCH   2   5
BRANCH   1  22
ATOM     22  C   UNL     1      -3.493  -1.096   1.142  0.00  0.00    +0.161 C 
BRANCH  22  24
ATOM     23  N   UNL     1      -1.223  -1.235   0.168  0.00  0.00    -0.307 N 
ATOM     24  C   UNL     1      -2.029  -0.738   1.127  0.00  0.00    +0.234 C 
ATOM     25  O   UNL     1      -1.576  -0.002   1.977  0.00  0.00    -0.274 OA
ATOM     26  H   UNL     1      -1.570  -1.877  -0.472  0.00  0.00    +0.149 HD
BRANCH  23  28
ATOM     27  C   UNL     1       0.269   0.492  -0.710  0.00  0.00    +0.033 C 
ATOM     28  C   UNL     1       0.176  -0.808   0.091  0.00  0.00    +0.100 C 
BRANCH  28  29
ATOM     29  C   UNL     1       0.992  -1.877  -0.589  0.00  0.00    -0.027 A 
ATOM     30  C   UNL     1       0.477  -2.549  -1.682  0.00  0.00    +0.005 A 
ATOM     31  C   UNL     1       1.225  -3.529  -2.306  0.00  0.00    +0.000 A 
ATOM     32  C   UNL     1       2.488  -3.838  -1.837  0.00  0.00    +0.000 A 
ATOM     33  C   UNL     1       3.003  -3.166  -0.744  0.00  0.00    +0.000 A 
ATOM     34  C   UNL     1       2.257  -2.183  -0.123  0.00  0.00    +0.005 A 
ENDBRANCH  28  29
ENDBRANCH  23  28
ENDBRANCH  22  24
BRANCH  22  35
ATOM     35  C   UNL     1      -4.268  -0.109   0.267  0.00  0.00    +0.012 C 
ATOM     36  C   UNL     1      -3.781  -0.217  -1.179  0.00  0.00    +0.009 C 
ATOM     37  C   UNL     1      -5.761  -0.438   0.328  0.00  0.00    +0.009 C 
ENDBRANCH  22  35
ENDBRANCH   1  22
TORSDOF 11
