REMARK  Name = ZINC37989400
REMARK  5 active torsions:
REMARK  status: ('A' for Active; 'I' for Inactive)
REMARK    1  A    between atoms: C_1  and  C_2
REMARK    2  A    between atoms: C_2  and  C_3
REMARK    3  A    between atoms: C_7  and  C_23
REMARK    4  A    between atoms: C_11  and  C_13
REMARK    5  A    between atoms: C_15  and  N_20
REMARK                            x       y       z     vdW  Elec       q    Type
REMARK                         _______ _______ _______ _____ _____    ______ ____
ROOT
ATOM      1  C   UNL     1      -0.861  -1.113  -0.458  0.00  0.00    +0.102 C 
ATOM      2  C   UNL     1       0.068  -2.313  -0.681  0.00  0.00    +0.182 C 
ATOM      3  O   UNL     1      -0.661  -3.358  -1.330  0.00  0.00    -0.373 OA
ATOM      4  C   UNL     1      -1.147  -3.013  -2.630  0.00  0.00    +0.133 C 
ATOM      5  C   UNL     1      -2.137  -1.849  -2.506  0.00  0.00    +0.139 C 
ATOM      6  N   UNL     1      -1.492  -0.770  -1.742  0.00  0.00    -0.290 N 
ATOM      7  C   UNL     1      -1.480   0.496  -2.204  0.00  0.00    +0.248 C 
ATOM      8  O   UNL     1      -0.883   1.361  -1.593  0.00  0.00    -0.270 OA
ATOM      9  C   UNL     1      -1.851  -4.222  -3.249  0.00  0.00    +0.039 C 
ENDROOT
BRANCH   7  10
ATOM     10  C   UNL     1      -2.194   0.834  -3.454  0.00  0.00    +0.052 A 
ATOM     11  C   UNL     1      -3.384   0.180  -3.780  0.00  0.00    +0.046 A 
ATOM     12  C   UNL     1      -4.045   0.499  -4.948  0.00  0.00    +0.127 A 
ATOM     13  C   UNL     1      -3.531   1.465  -5.796  0.00  0.00    +0.034 A 
ATOM     14  C   UNL     1      -2.353   2.117  -5.479  0.00  0.00    +0.017 A 
ATOM     15  C   UNL     1      -1.684   1.811  -4.311  0.00  0.00    +0.026 A 
ATOM     16  I   UNL     1       0.096   2.805  -3.828  0.00  0.00    -0.043 I 
BRANCH  12  17
ATOM     17  N   UNL     1      -5.306  -0.193  -5.295  0.00  0.00    +0.056 N 
ATOM     18  O   UNL     1      -5.756  -1.036  -4.556  0.00  0.00    -0.126 OA
ATOM     19  O   UNL     1      -5.887   0.086  -6.318  0.00  0.00    -0.126 OA
ENDBRANCH  12  17
ENDBRANCH   7  10
BRANCH   1  21
ATOM     20  C   UNL     1       0.631  -0.294   1.371  0.00  0.00    +0.006 C 
ATOM     21  C   UNL     1      -0.048   0.079   0.052  0.00  0.00    +0.021 C 
ENDBRANCH   1  21
TORSDOF 3
