REMARK  Name = ZINC12412499
REMARK  12 active torsions:
REMARK  status: ('A' for Active; 'I' for Inactive)
REMARK    1  A    between atoms: C_1  and  C_2
REMARK    2  A    between atoms: C_2  and  O_3
REMARK    3  A    between atoms: O_3  and  C_4
REMARK    4  A    between atoms: C_4  and  C_6
REMARK    5  A    between atoms: C_7  and  C_22
REMARK    6  A    between atoms: C_12  and  C_14
REMARK    7  A    between atoms: C_16  and  C_21
REMARK    8  A    between atoms: C_19  and  C_20
REMARK    9  A    between atoms: C_22  and  N_72
REMARK   10  A    between atoms: C_23  and  C_25
REMARK   11  A    between atoms: C_23  and  C_26
REMARK   12  A    between atoms: C_23  and  N_72
REMARK                            x       y       z     vdW  Elec       q    Type
REMARK                         _______ _______ _______ _____ _____    ______ ____
ROOT
ATOM      1  C   UNL     1      -0.072   0.114   0.062  0.00  0.00    +0.076 C 
ATOM      2  C   UNL     1       1.117  -0.475  -0.189  0.00  0.00    +0.007 C 
ATOM      3  N   UNL     1       1.228  -1.834  -0.270  0.00  0.00    -0.274 N 
ATOM      4  C   UNL     1       0.196  -2.673  -0.112  0.00  0.00    +0.304 C 
ATOM      5  O   UNL     1       0.393  -3.869  -0.201  0.00  0.00    -0.252 OA
ATOM      6  N   UNL     1      -1.052  -2.235   0.143  0.00  0.00    -0.288 N 
ATOM      7  C   UNL     1      -1.277  -0.784   0.256  0.00  0.00    +0.144 C 
ATOM      8  H   UNL     1       2.102  -2.212  -0.451  0.00  0.00    +0.156 HD
ATOM      9  H   UNL     1      -1.785  -2.861   0.254  0.00  0.00    +0.151 HD
ENDROOT
BRANCH   7  10
ATOM     10  C   UNL     1      -2.314  -0.398  -0.767  0.00  0.00    -0.019 A 
ATOM     11  C   UNL     1      -2.365  -1.056  -1.982  0.00  0.00    +0.009 A 
ATOM     12  C   UNL     1      -3.318  -0.705  -2.919  0.00  0.00    -0.050 A 
ATOM     13  C   UNL     1      -4.215   0.311  -2.644  0.00  0.00    +0.003 A 
ATOM     14  C   UNL     1      -4.162   0.972  -1.432  0.00  0.00    +0.004 A 
ATOM     15  C   UNL     1      -3.210   0.618  -0.493  0.00  0.00    -0.045 A 
ATOM     16  C   UNL     1      -3.151   1.339   0.829  0.00  0.00    +0.044 C 
ATOM     17  C   UNL     1      -3.378  -1.426  -4.241  0.00  0.00    +0.044 C 
ENDBRANCH   7  10
BRANCH   1  18
ATOM     18  C   UNL     1      -0.187   1.521   0.146  0.00  0.00    +0.339 C 
ATOM     19  O   UNL     1      -0.257   2.062   1.234  0.00  0.00    -0.245 OA
BRANCH  18  20
ATOM     20  O   UNL     1      -0.215   2.265  -0.980  0.00  0.00    -0.462 OA
BRANCH  20  22
ATOM     21  C   UNL     1      -0.370   4.352  -2.189  0.00  0.00    +0.048 C 
ATOM     22  C   UNL     1      -0.217   3.685  -0.820  0.00  0.00    +0.229 C 
ENDBRANCH  20  22
ENDBRANCH  18  20
ENDBRANCH   1  18
BRANCH   2  23
ATOM     23  C   UNL     1       2.342   0.381  -0.383  0.00  0.00    -0.030 C 
BRANCH  23  24
ATOM     24  N   UNL     1       3.288   0.127   0.721  0.00  0.00    +0.385 N 
ATOM     25  H   UNL     1       3.552  -0.865   0.719  0.00  0.00    -0.085 HD
ATOM     26  H   UNL     1       2.838   0.360   1.613  0.00  0.00    -0.085 HD
BRANCH  24  27
ATOM     27  C   UNL     1       4.499   0.954   0.557  0.00  0.00    -0.068 C 
ATOM     28  C   UNL     1       5.485   0.237  -0.369  0.00  0.00    -0.013 C 
BRANCH  27  29
ATOM     29  C   UNL     1       5.149   1.168   1.925  0.00  0.00    -0.041 C 
ATOM     30  C   UNL     1       5.525  -0.186   2.530  0.00  0.00    +0.009 C 
ATOM     31  C   UNL     1       6.175   0.029   3.898  0.00  0.00    -0.010 C 
ATOM     32  C   UNL     1       7.435   0.882   3.736  0.00  0.00    +0.007 C 
ATOM     33  C   UNL     1       7.059   2.237   3.131  0.00  0.00    -0.010 C 
ATOM     34  C   UNL     1       6.409   2.022   1.763  0.00  0.00    +0.009 C 
ATOM     35  C   UNL     1       6.074   2.953   4.057  0.00  0.00    +0.007 C 
ATOM     36  C   UNL     1       4.814   2.099   4.219  0.00  0.00    -0.010 C 
ATOM     37  C   UNL     1       5.190   0.745   4.824  0.00  0.00    +0.007 C 
ATOM     38  C   UNL     1       4.164   1.885   2.851  0.00  0.00    +0.009 C 
ENDBRANCH  27  29
ENDBRANCH  24  27
ENDBRANCH  23  24
ENDBRANCH   2  23
TORSDOF 8
