REMARK  Name = ZINC48546224
REMARK  6 active torsions:
REMARK  status: ('A' for Active; 'I' for Inactive)
REMARK    1  A    between atoms: C_1  and  N_2
REMARK    2  A    between atoms: N_7  and  C_10
REMARK    3  A    between atoms: C_13  and  S_15
REMARK    4  A    between atoms: S_15  and  C_16
REMARK    5  A    between atoms: C_16  and  C_17
REMARK    6  A    between atoms: C_17  and  N_18
REMARK                            x       y       z     vdW  Elec       q    Type
REMARK                         _______ _______ _______ _____ _____    ______ ____
ROOT
ATOM      1  C   UNL     1      -0.018   1.461   0.010  0.00  0.00    +0.155 C 
ATOM      2  N   UNL     1       0.002  -0.004   0.002  0.00  0.00    -0.280 N 
ATOM      3  C   UNL     1      -1.189  -0.713   0.004  0.00  0.00    +0.169 A 
ATOM      4  C   UNL     1      -1.141  -2.103  -0.004  0.00  0.00    +0.150 A 
ATOM      5  C   UNL     1       0.108  -2.747  -0.013  0.00  0.00    +0.282 A 
ATOM      6  O   UNL     1       0.174  -3.964  -0.021  0.00  0.00    -0.265 OA
ATOM      7  N   UNL     1       1.234  -2.004  -0.015  0.00  0.00    -0.262 N 
ATOM      8  C   UNL     1       1.177  -0.661  -0.013  0.00  0.00    +0.333 A 
ATOM      9  O   UNL     1       2.213  -0.023  -0.020  0.00  0.00    -0.246 OA
ATOM     10  C   UNL     1       2.538  -2.671  -0.024  0.00  0.00    +0.157 C 
ATOM     11  N   UNL     1      -2.460  -2.539   0.000  0.00  0.00    -0.327 N 
ATOM     12  H   UNL     1      -2.764  -3.460  -0.004  0.00  0.00    +0.168 HD
ATOM     13  C   UNL     1      -3.241  -1.426   0.010  0.00  0.00    +0.169 A 
ATOM     14  N   UNL     1      -2.473  -0.354   0.012  0.00  0.00    -0.204 NA
ENDROOT
BRANCH  13  15
ATOM     15  S   UNL     1      -5.003  -1.417   0.018  0.00  0.00    -0.086 S 
BRANCH  15  16
ATOM     16  C   UNL     1      -5.433   0.345   0.030  0.00  0.00    +0.096 C 
BRANCH  16  17
ATOM     17  C   UNL     1      -6.955   0.499   0.038  0.00  0.00    +0.115 C 
BRANCH  17  18
ATOM     18  N   UNL     1      -7.302   1.922   0.047  0.00  0.00    -0.318 N 
ATOM     19  C   UNL     1      -8.615   2.305   0.056  0.00  0.00    +0.154 C 
ATOM     20  N   UNL     1      -9.613   1.437   0.061  0.00  0.00    -0.360 N 
ATOM     21  C   UNL     1     -10.891   2.167   0.070  0.00  0.00    +0.134 C 
ATOM     22  C   UNL     1     -10.459   3.647   0.068  0.00  0.00    +0.125 C 
ATOM     23  N   UNL     1      -8.989   3.574   0.065  0.00  0.00    -0.317 N 
ATOM     24  H   UNL     1      -6.601   2.592   0.048  0.00  0.00    +0.149 HD
ATOM     25  H   UNL     1      -8.389   4.337   0.066  0.00  0.00    +0.149 HD
ATOM     26  H   UNL     1      -9.518   0.472   0.060  0.00  0.00    +0.162 HD
ENDBRANCH  17  18
ENDBRANCH  16  17
ENDBRANCH  15  16
ENDBRANCH  13  15
TORSDOF 4
