REMARK  Name = ZINC44259539
REMARK  2 active torsions:
REMARK  status: ('A' for Active; 'I' for Inactive)
REMARK    1  A    between atoms: C_6  and  N_7
REMARK    2  A    between atoms: C_10  and  C_12
REMARK                            x       y       z     vdW  Elec       q    Type
REMARK                         _______ _______ _______ _____ _____    ______ ____
ROOT
ATOM      1  N   UNL     1      -1.217  -0.695  -0.029  0.00  0.00    -0.236 N 
ATOM      2  C   UNL     1      -1.413  -1.892  -0.645  0.00  0.00    +0.049 A 
ATOM      3  C   UNL     1      -2.682  -2.269  -0.379  0.00  0.00    +0.006 A 
ATOM      4  C   UNL     1      -3.230  -1.242   0.424  0.00  0.00    +0.151 A 
ATOM      5  N   UNL     1      -2.284  -0.338   0.591  0.00  0.00    -0.161 NA
ATOM      6  C   UNL     1      -2.987  -3.597  -1.030  0.00  0.00    +0.040 C 
ATOM      7  C   UNL     1      -1.876  -3.787  -2.087  0.00  0.00    +0.011 C 
ATOM      8  C   UNL     1      -0.730  -2.931  -1.505  0.00  0.00    +0.056 C 
ENDROOT
BRANCH   1  14
ATOM      9  C   UNL     1      -0.060   1.426  -0.078  0.00  0.00    +0.031 A 
ATOM     10  C   UNL     1       1.117   2.148  -0.109  0.00  0.00    +0.043 A 
ATOM     11  C   UNL     1       2.335   1.490  -0.123  0.00  0.00    +0.159 A 
ATOM     12  C   UNL     1       2.375   0.103  -0.106  0.00  0.00    +0.160 A 
ATOM     13  C   UNL     1       1.198  -0.623  -0.075  0.00  0.00    +0.069 A 
ATOM     14  C   UNL     1      -0.023   0.038  -0.061  0.00  0.00    +0.069 A 
ATOM     15  F   UNL     1       3.564  -0.538  -0.121  0.00  0.00    -0.202 F 
ATOM     16  F   UNL     1       3.485   2.198  -0.154  0.00  0.00    -0.202 F 
ENDBRANCH   1  14
BRANCH   4  17
ATOM     17  C   UNL     1      -4.599  -1.193   0.974  0.00  0.00    +0.267 C 
ATOM     18  O   UNL     1      -5.411  -2.041   0.660  0.00  0.00    -0.268 OA
ATOM     19  N   UNL     1      -4.949  -0.207   1.824  0.00  0.00    -0.292 N 
ATOM     20  C   UNL     1      -6.274  -0.193   2.463  0.00  0.00    +0.136 C 
ATOM     21  C   UNL     1      -6.080  -0.001   3.972  0.00  0.00    +0.179 C 
ATOM     22  O   UNL     1      -5.253   1.143   4.199  0.00  0.00    -0.377 OA
ATOM     23  C   UNL     1      -3.933   1.026   3.664  0.00  0.00    +0.179 C 
ATOM     24  C   UNL     1      -4.014   0.884   2.144  0.00  0.00    +0.136 C 
ENDBRANCH   4  17
TORSDOF 2
