REMARK  Name = ZINC08725230
REMARK  12 active torsions:
REMARK  status: ('A' for Active; 'I' for Inactive)
REMARK    1  A    between atoms: C_1  and  C_2
REMARK    2  A    between atoms: C_2  and  C_3
REMARK    3  A    between atoms: C_3  and  C_4
REMARK    4  A    between atoms: C_4  and  N_5
REMARK    5  A    between atoms: C_9  and  S_28
REMARK    6  A    between atoms: C_13  and  C_14
REMARK    7  A    between atoms: C_14  and  N_65
REMARK    8  A    between atoms: C_15  and  N_65
REMARK    9  A    between atoms: C_16  and  C_17
REMARK   10  A    between atoms: C_16  and  N_65
REMARK   11  A    between atoms: C_22  and  N_23
REMARK   12  A    between atoms: S_28  and  N_31
REMARK                            x       y       z     vdW  Elec       q    Type
REMARK                         _______ _______ _______ _____ _____    ______ ____
ROOT
ATOM      1  N   UNL     1      -0.389   5.736  -5.288  0.00  0.00    -0.329 N 
ATOM      2  C   UNL     1      -0.560   4.574  -4.563  0.00  0.00    +0.069 A 
ATOM      3  C   UNL     1      -0.823   3.253  -4.901  0.00  0.00    +0.030 A 
ATOM      4  C   UNL     1      -0.940   2.304  -3.907  0.00  0.00    +0.030 A 
ATOM      5  C   UNL     1      -0.798   2.661  -2.574  0.00  0.00    +0.107 A 
ATOM      6  C   UNL     1      -0.545   3.957  -2.222  0.00  0.00    +0.058 A 
ATOM      7  C   UNL     1      -0.416   4.934  -3.212  0.00  0.00    +0.091 A 
ATOM      8  N   UNL     1      -0.169   6.269  -3.184  0.00  0.00    -0.234 NA
ATOM      9  C   UNL     1      -0.153   6.737  -4.398  0.00  0.00    +0.094 A 
ENDROOT
BRANCH   5  10
ATOM     10  S   UNL     1      -0.951   1.431  -1.321  0.00  0.00    +0.056 S 
ATOM     11  O   UNL     1      -1.737   0.384  -1.874  0.00  0.00    -0.153 OA
ATOM     12  O   UNL     1      -1.319   2.111  -0.128  0.00  0.00    -0.153 OA
BRANCH  10  13
ATOM     13  N   UNL     1       0.559   0.804  -1.062  0.00  0.00    -0.204 NA
ATOM     14  H   UNL     1       0.722  -0.141  -1.204  0.00  0.00    +0.144 HD
ATOM     15  H   UNL     1       1.282   1.383  -0.773  0.00  0.00    +0.144 HD
ENDBRANCH  10  13
ENDBRANCH   5  10
BRANCH   1  16
ATOM     16  C   UNL     1      -0.448   5.866  -6.746  0.00  0.00    +0.123 C 
BRANCH  16  17
ATOM     17  C   UNL     1      -1.906   6.021  -7.185  0.00  0.00    +0.021 C 
BRANCH  17  19
ATOM     18  C   UNL     1      -3.438   6.179  -9.152  0.00  0.00    +0.004 C 
ATOM     19  C   UNL     1      -1.980   6.024  -8.713  0.00  0.00    -0.002 C 
ENDBRANCH  17  19
ENDBRANCH  16  17
ENDBRANCH   1  16
BRANCH   9  20
ATOM     20  C   UNL     1       0.092   8.178  -4.764  0.00  0.00    -0.003 C 
BRANCH  20  22
ATOM     21  C   UNL     1      -2.239   8.623  -5.247  0.00  0.00    -0.095 C 
ATOM     22  N   UNL     1      -1.093   8.975  -4.382  0.00  0.00    +0.385 N 
ATOM     23  H   UNL     1      -1.335   8.765  -3.406  0.00  0.00    -0.081 HD
BRANCH  22  24
ATOM     24  C   UNL     1      -0.793  10.417  -4.503  0.00  0.00    -0.041 C 
BRANCH  24  25
ATOM     25  C   UNL     1      -1.931  11.202  -3.903  0.00  0.00    -0.043 A 
ATOM     26  C   UNL     1      -2.910  11.734  -4.719  0.00  0.00    +0.003 A 
ATOM     27  C   UNL     1      -3.956  12.451  -4.168  0.00  0.00    +0.000 A 
ATOM     28  C   UNL     1      -4.021  12.647  -2.801  0.00  0.00    +0.002 A 
ATOM     29  C   UNL     1      -3.042  12.122  -1.980  0.00  0.00    +0.023 A 
ATOM     30  C   UNL     1      -1.992  11.397  -2.529  0.00  0.00    +0.031 A 
BRANCH  30  31
ATOM     31  N   UNL     1      -1.000  10.865  -1.702  0.00  0.00    -0.330 N 
ATOM     32  C   UNL     1      -1.218  11.262  -0.287  0.00  0.00    +0.105 C 
ATOM     33  C   UNL     1      -0.406  10.207   0.506  0.00  0.00    +0.020 C 
ATOM     34  C   UNL     1      -0.636   8.912  -0.306  0.00  0.00    +0.020 C 
ATOM     35  C   UNL     1      -1.035   9.387  -1.715  0.00  0.00    +0.105 C 
ENDBRANCH  30  31
ENDBRANCH  24  25
ENDBRANCH  22  24
ENDBRANCH  20  22
ENDBRANCH   9  20
TORSDOF 10
