REMARK  Name = ZINC22589482
REMARK  10 active torsions:
REMARK  status: ('A' for Active; 'I' for Inactive)
REMARK    1  A    between atoms: C_4  and  C_7
REMARK    2  A    between atoms: C_7  and  O_8
REMARK    3  A    between atoms: O_8  and  C_9
REMARK    4  A    between atoms: C_12  and  C_18
REMARK    5  A    between atoms: C_14  and  C_15
REMARK    6  A    between atoms: C_18  and  C_20
REMARK    7  A    between atoms: C_18  and  O_34
REMARK    8  A    between atoms: C_20  and  N_21
REMARK    9  A    between atoms: N_21  and  C_22
REMARK   10  A    between atoms: C_22  and  C_23
REMARK                            x       y       z     vdW  Elec       q    Type
REMARK                         _______ _______ _______ _____ _____    ______ ____
ROOT
ATOM      1  C   UNL     1     -11.188   0.169  -1.616  0.00  0.00    +0.133 A 
ATOM      2  C   UNL     1     -10.210  -0.806  -1.748  0.00  0.00    +0.047 A 
ATOM      3  C   UNL     1      -8.894  -0.444  -1.949  0.00  0.00    +0.010 A 
ATOM      4  C   UNL     1      -8.538   0.894  -2.021  0.00  0.00    -0.020 A 
ATOM      5  C   UNL     1      -9.495   1.876  -1.887  0.00  0.00    +0.022 A 
ATOM      6  C   UNL     1     -10.832   1.523  -1.688  0.00  0.00    +0.078 A 
ENDROOT
BRANCH   6   7
ATOM      7  C   UNL     1     -11.863   2.569  -1.549  0.00  0.00    +0.245 C 
ATOM      8  O   UNL     1     -13.025   2.258  -1.371  0.00  0.00    -0.270 OA
ATOM      9  N   UNL     1     -11.517   3.870  -1.619  0.00  0.00    -0.325 N 
ATOM     10  H   UNL     1     -12.285   4.650  -1.515  0.00  0.00    +0.145 HD
ATOM     11  H   UNL     1     -10.465   4.151  -1.780  0.00  0.00    +0.145 HD
ENDBRANCH   6   7
BRANCH   1  12
ATOM     12  O   UNL     1     -12.482  -0.186  -1.418  0.00  0.00    -0.487 OA
BRANCH  12  13
ATOM     13  C   UNL     1     -12.769  -1.584  -1.356  0.00  0.00    +0.264 C 
BRANCH  13  17
ATOM     14  C   UNL     1     -16.956  -2.152  -0.725  0.00  0.00    +0.000 A 
ATOM     15  C   UNL     1     -16.454  -2.076  -2.011  0.00  0.00    +0.000 A 
ATOM     16  C   UNL     1     -15.100  -1.893  -2.215  0.00  0.00    +0.007 A 
ATOM     17  C   UNL     1     -14.246  -1.784  -1.133  0.00  0.00    -0.010 A 
ATOM     18  C   UNL     1     -14.746  -1.865   0.153  0.00  0.00    +0.007 A 
ATOM     19  C   UNL     1     -16.102  -2.044   0.357  0.00  0.00    +0.000 A 
ENDBRANCH  13  17
ENDBRANCH  12  13
ENDBRANCH   1  12
BRANCH   4  20
ATOM     20  C   UNL     1      -7.097   1.276  -2.242  0.00  0.00    +0.128 C 
BRANCH  20  21
ATOM     21  O   UNL     1      -6.508   0.386  -3.192  0.00  0.00    -0.389 OA
ATOM     22  H   UNL     1      -5.454   0.510  -3.482  0.00  0.00    +0.210 HD
ENDBRANCH  20  21
BRANCH  20  23
ATOM     23  C   UNL     1      -6.336   1.183  -0.917  0.00  0.00    -0.046 C 
BRANCH  23  24
ATOM     24  N   UNL     1      -4.963   1.669  -1.106  0.00  0.00    +0.383 N 
ATOM     25  H   UNL     1      -4.457   1.052  -1.864  0.00  0.00    -0.086 HD
ATOM     26  H   UNL     1      -4.988   2.716  -1.442  0.00  0.00    -0.086 HD
BRANCH  24  27
ATOM     27  C   UNL     1      -4.201   1.594   0.148  0.00  0.00    -0.046 C 
BRANCH  27  28
ATOM     28  C   UNL     1      -2.779   2.107  -0.088  0.00  0.00    +0.132 C 
ATOM     29  C   UNL     1      -2.009   2.045   1.205  0.00  0.00    -0.017 A 
ATOM     30  C   UNL     1      -2.625   2.478   2.369  0.00  0.00    +0.006 A 
ATOM     31  C   UNL     1      -1.952   2.439   3.570  0.00  0.00    +0.000 A 
ATOM     32  C   UNL     1      -0.653   1.967   3.616  0.00  0.00    +0.000 A 
ATOM     33  C   UNL     1      -0.038   1.534   2.458  0.00  0.00    +0.004 A 
ATOM     34  C   UNL     1      -0.716   1.571   1.250  0.00  0.00    -0.040 A 
ATOM     35  C   UNL     1      -0.013   1.086   0.008  0.00  0.00    +0.063 C 
ATOM     36  C   UNL     1      -0.750   1.591  -1.233  0.00  0.00    +0.165 C 
ATOM     37  O   UNL     1      -2.145   1.302  -1.081  0.00  0.00    -0.374 OA
ENDBRANCH  27  28
ENDBRANCH  24  27
ENDBRANCH  23  24
ENDBRANCH  20  23
ENDBRANCH   4  20
TORSDOF 10
