REMARK  Name = ZINC44362475
REMARK  8 active torsions:
REMARK  status: ('A' for Active; 'I' for Inactive)
REMARK    1  A    between atoms: C_1  and  C_2
REMARK    2  A    between atoms: C_2  and  O_3
REMARK    3  A    between atoms: O_3  and  C_4
REMARK    4  A    between atoms: C_4  and  C_6
REMARK    5  A    between atoms: C_6  and  C_8
REMARK    6  A    between atoms: C_6  and  N_19
REMARK    7  A    between atoms: C_8  and  C_9
REMARK    8  A    between atoms: C_14  and  O_15
REMARK                            x       y       z     vdW  Elec       q    Type
REMARK                         _______ _______ _______ _____ _____    ______ ____
ROOT
ATOM      1  C   UNL     1       2.983  -2.297  -2.345  0.00  0.00    +0.033 C 
ENDROOT
BRANCH   1   2
ATOM      2  C   UNL     1       3.678  -2.742  -3.606  0.00  0.00    -0.005 A 
ATOM      3  C   UNL     1       4.072  -4.059  -3.750  0.00  0.00    +0.023 A 
ATOM      4  C   UNL     1       4.709  -4.468  -4.908  0.00  0.00    +0.033 A 
ATOM      5  C   UNL     1       4.953  -3.561  -5.924  0.00  0.00    +0.049 A 
ATOM      6  C   UNL     1       4.560  -2.242  -5.783  0.00  0.00    +0.074 A 
ATOM      7  C   UNL     1       3.916  -1.832  -4.625  0.00  0.00    +0.135 A 
ATOM      8 BR   UNL     1       4.895  -1.002  -7.171  0.00  0.00    -0.045 Br
ATOM      9 BR   UNL     1       5.825  -4.124  -7.505  0.00  0.00    -0.048 Br
ATOM     10 BR   UNL     1       5.248  -6.271  -5.102  0.00  0.00    -0.049 Br
BRANCH   7  11
ATOM     11  O   UNL     1       3.523  -0.538  -4.486  0.00  0.00    -0.505 OA
ATOM     12  H   UNL     1       4.192   0.035  -4.086  0.00  0.00    +0.292 HD
ENDBRANCH   7  11
ENDBRANCH   1   2
BRANCH   1  13
ATOM     13  C   UNL     1       1.468  -2.353  -2.550  0.00  0.00    +0.040 C 
BRANCH  13  14
ATOM     14  N   UNL     1       1.052  -3.748  -2.751  0.00  0.00    +0.387 N 
ATOM     15  H   UNL     1       0.053  -3.785  -2.886  0.00  0.00    -0.089 HD
ATOM     16  H   UNL     1       1.516  -4.123  -3.565  0.00  0.00    -0.089 HD
ATOM     17  H   UNL     1       1.302  -4.294  -1.940  0.00  0.00    -0.089 HD
ENDBRANCH  13  14
BRANCH  13  18
ATOM     18  C   UNL     1       0.775  -1.794  -1.334  0.00  0.00    +0.293 C 
ATOM     19  O   UNL     1       0.314  -2.540  -0.504  0.00  0.00    -0.253 OA
BRANCH  18  20
ATOM     20  O   UNL     1       0.671  -0.465  -1.174  0.00  0.00    -0.466 OA
BRANCH  20  22
ATOM     21  C   UNL     1      -0.019   1.526   0.010  0.00  0.00    +0.048 C 
ATOM     22  C   UNL     1       0.002  -0.004   0.002  0.00  0.00    +0.228 C 
ENDBRANCH  20  22
ENDBRANCH  18  20
ENDBRANCH  13  18
ENDBRANCH   1  13
TORSDOF 7
