REMARK  Name = ZINC63720421
REMARK  6 active torsions:
REMARK  status: ('A' for Active; 'I' for Inactive)
REMARK    1  A    between atoms: C_5  and  C_7
REMARK    2  A    between atoms: C_7  and  N_8
REMARK    3  A    between atoms: C_9  and  C_11
REMARK    4  A    between atoms: C_11  and  N_12
REMARK    5  A    between atoms: N_12  and  C_13
REMARK    6  A    between atoms: C_18  and  C_19
REMARK                            x       y       z     vdW  Elec       q    Type
REMARK                         _______ _______ _______ _____ _____    ______ ____
ROOT
ATOM      1  C   UNL     1       2.070  -6.678   4.138  0.00  0.00    +0.033 A 
ATOM      2  C   UNL     1       2.276  -5.989   5.327  0.00  0.00    +0.023 A 
ATOM      3  C   UNL     1       2.505  -6.687   6.496  0.00  0.00    +0.002 A 
ATOM      4  C   UNL     1       2.528  -8.069   6.486  0.00  0.00    +0.000 A 
ATOM      5  C   UNL     1       2.324  -8.758   5.304  0.00  0.00    +0.008 A 
ATOM      6  C   UNL     1       2.089  -8.067   4.131  0.00  0.00    +0.004 A 
ENDROOT
BRANCH   6   7
ATOM      7  C   UNL     1       1.860  -8.819   2.846  0.00  0.00    +0.198 C 
ATOM      8  C   UNL     1       3.164  -8.832   2.080  0.00  0.00    +0.244 C 
ATOM      9  O   UNL     1       3.709  -7.789   1.776  0.00  0.00    -0.273 OA
ATOM     10  N   UNL     1       3.708 -10.003   1.744  0.00  0.00    -0.282 N 
ATOM     11  C   UNL     1       3.135 -11.151   2.063  0.00  0.00    +0.057 A 
ATOM     12  C   UNL     1       3.739 -12.373   1.691  0.00  0.00    +0.025 A 
ATOM     13  C   UNL     1       3.156 -13.551   2.015  0.00  0.00    +0.002 A 
ATOM     14  C   UNL     1       1.946 -13.632   2.723  0.00  0.00    +0.002 A 
ATOM     15  C   UNL     1       1.286 -12.524   3.127  0.00  0.00    +0.027 A 
ATOM     16  C   UNL     1       1.855 -11.203   2.813  0.00  0.00    +0.058 A 
ATOM     17  N   UNL     1       1.250 -10.114   3.186  0.00  0.00    -0.369 N 
ATOM     18  H   UNL     1       0.414 -10.154   3.676  0.00  0.00    +0.161 HD
ATOM     19  H   UNL     1       4.545 -10.012   1.253  0.00  0.00    +0.155 HD
ENDBRANCH   6   7
BRANCH   1  20
ATOM     20  N   UNL     1       1.839  -5.976   2.953  0.00  0.00    -0.335 N 
ATOM     21  H   UNL     1       1.691  -6.458   2.124  0.00  0.00    +0.147 HD
BRANCH  20  22
ATOM     22  C   UNL     1       1.819  -4.511   2.961  0.00  0.00    +0.197 C 
BRANCH  22  24
ATOM     23  N   UNL     1       1.489  -2.679   1.333  0.00  0.00    -0.310 N 
ATOM     24  C   UNL     1       1.552  -4.005   1.567  0.00  0.00    +0.230 C 
ATOM     25  O   UNL     1       1.393  -4.790   0.657  0.00  0.00    -0.274 OA
ATOM     26  H   UNL     1       1.615  -2.051   2.062  0.00  0.00    +0.149 HD
BRANCH  23  27
ATOM     27  C   UNL     1       1.229  -2.186  -0.022  0.00  0.00    +0.141 C 
BRANCH  27  32
ATOM     28  C   UNL     1      -0.017   1.378   0.010  0.00  0.00    +0.000 A 
ATOM     29  C   UNL     1       1.171   2.086   0.002  0.00  0.00    +0.001 A 
ATOM     30  C   UNL     1       2.377   1.412  -0.013  0.00  0.00    +0.020 A 
ATOM     31  C   UNL     1       2.397   0.029  -0.021  0.00  0.00    +0.046 A 
ATOM     32  C   UNL     1       1.208  -0.679  -0.013  0.00  0.00    -0.012 A 
ATOM     33  C   UNL     1       0.002  -0.004   0.002  0.00  0.00    +0.006 A 
ATOM     34 CL   UNL     1       3.912  -0.818  -0.041  0.00  0.00    -0.083 Cl
ENDBRANCH  27  32
ENDBRANCH  23  27
ENDBRANCH  22  24
ENDBRANCH  20  22
ENDBRANCH   1  20
TORSDOF 6
