REMARK  Name = ZINC51150020
REMARK  9 active torsions:
REMARK  status: ('A' for Active; 'I' for Inactive)
REMARK    1  A    between atoms: C_1  and  C_2
REMARK    2  A    between atoms: N_7  and  C_9
REMARK    3  A    between atoms: C_9  and  C_10
REMARK    4  A    between atoms: N_12  and  C_13
REMARK    5  A    between atoms: C_13  and  C_14
REMARK    6  A    between atoms: C_17  and  N_20
REMARK    7  A    between atoms: N_23  and  C_24
REMARK    8  A    between atoms: C_24  and  C_25
REMARK    9  A    between atoms: C_24  and  C_26
REMARK                            x       y       z     vdW  Elec       q    Type
REMARK                         _______ _______ _______ _____ _____    ______ ____
ROOT
ATOM      1  C   UNL     1       2.424  -6.609   4.870  0.00  0.00    -0.030 A 
ATOM      2  C   UNL     1       3.724  -7.080   4.831  0.00  0.00    +0.007 A 
ATOM      3  C   UNL     1       4.332  -7.530   5.987  0.00  0.00    +0.023 A 
ATOM      4  C   UNL     1       3.637  -7.508   7.189  0.00  0.00    +0.035 A 
ATOM      5  C   UNL     1       2.332  -7.035   7.225  0.00  0.00    +0.023 A 
ATOM      6  C   UNL     1       1.732  -6.582   6.067  0.00  0.00    +0.007 A 
ENDROOT
BRANCH   4   7
ATOM      7  N   UNL     1       4.251  -7.964   8.361  0.00  0.00    -0.269 N 
ATOM      8  C   UNL     1       5.576  -7.793   8.539  0.00  0.00    +0.304 C 
ATOM      9  O   UNL     1       6.221  -7.159   7.726  0.00  0.00    -0.253 OA
ATOM     10  N   UNL     1       6.185  -8.325   9.617  0.00  0.00    -0.297 N 
ATOM     11  H   UNL     1       3.722  -8.402   9.046  0.00  0.00    +0.156 HD
ATOM     12  H   UNL     1       5.670  -8.831  10.265  0.00  0.00    +0.151 HD
BRANCH  10  13
ATOM     13  C   UNL     1       7.626  -8.139   9.809  0.00  0.00    +0.068 C 
ATOM     14  C   UNL     1       7.878  -6.802  10.509  0.00  0.00    +0.027 C 
ATOM     15  C   UNL     1       8.176  -9.278  10.671  0.00  0.00    +0.027 C 
ENDBRANCH  10  13
ENDBRANCH   4   7
BRANCH   1  16
ATOM     16  C   UNL     1       1.764  -6.119   3.607  0.00  0.00    +0.139 C 
BRANCH  16  19
ATOM     17  C   UNL     1       1.528  -4.029   2.377  0.00  0.00    +0.197 C 
ATOM     18  O   UNL     1       0.866  -4.623   1.553  0.00  0.00    -0.278 OA
ATOM     19  N   UNL     1       2.024  -4.687   3.444  0.00  0.00    -0.313 N 
ATOM     20  H   UNL     1       2.554  -4.212   4.103  0.00  0.00    +0.149 HD
BRANCH  17  21
ATOM     21  C   UNL     1       1.796  -2.556   2.209  0.00  0.00    +0.019 C 
BRANCH  21  27
ATOM     22  C   UNL     1       0.729   1.409  -0.457  0.00  0.00    +0.005 C 
ATOM     23  C   UNL     1       0.566  -0.109  -0.357  0.00  0.00    -0.031 C 
ATOM     24  C   UNL     1       1.156  -0.770  -1.607  0.00  0.00    -0.001 C 
ATOM     25  C   UNL     1       1.059  -2.291  -1.462  0.00  0.00    -0.018 C 
ATOM     26  C   UNL     1       1.779  -2.723  -0.182  0.00  0.00    -0.078 C 
ATOM     27  N   UNL     1       1.152  -2.079   0.978  0.00  0.00    +0.386 N 
ATOM     28  C   UNL     1       1.304  -0.622   0.881  0.00  0.00    -0.075 C 
ATOM     29  H   UNL     1       0.171  -2.312   1.002  0.00  0.00    -0.081 HD
ENDBRANCH  21  27
ENDBRANCH  17  21
ENDBRANCH  16  19
ENDBRANCH   1  16
TORSDOF 6
