REMARK  Name = ZINC65909876
REMARK  10 active torsions:
REMARK  status: ('A' for Active; 'I' for Inactive)
REMARK    1  A    between atoms: C_1  and  C_2
REMARK    2  A    between atoms: C_3  and  C_29
REMARK    3  A    between atoms: C_9  and  C_12
REMARK    4  A    between atoms: N_14  and  C_15
REMARK    5  A    between atoms: C_18  and  N_21
REMARK    6  A    between atoms: C_22  and  C_24
REMARK    7  A    between atoms: C_24  and  C_25
REMARK    8  A    between atoms: C_25  and  N_26
REMARK    9  A    between atoms: N_26  and  C_27
REMARK   10  A    between atoms: N_26  and  C_28
REMARK                            x       y       z     vdW  Elec       q    Type
REMARK                         _______ _______ _______ _____ _____    ______ ____
ROOT
ATOM      1  C   UNL     1      -0.518  -3.707   5.215  0.00  0.00    +0.248 C 
ATOM      2  O   UNL     1      -1.036  -4.515   5.962  0.00  0.00    -0.270 OA
ATOM      3  N   UNL     1       0.066  -2.601   5.720  0.00  0.00    -0.282 N 
ATOM      4  H   UNL     1       0.537  -1.990   5.132  0.00  0.00    +0.155 HD
ENDROOT
BRANCH   1  13
ATOM      5  C   UNL     1      -2.393  -7.578   1.424  0.00  0.00    +0.046 C 
ATOM      6  C   UNL     1      -1.656  -6.338   0.988  0.00  0.00    -0.022 A 
ATOM      7  C   UNL     1      -1.360  -5.986  -0.273  0.00  0.00    +0.017 A 
ATOM      8  N   UNL     1      -0.685  -4.796  -0.280  0.00  0.00    -0.358 N 
ATOM      9  H   UNL     1      -0.366  -4.341  -1.075  0.00  0.00    +0.166 HD
ATOM     10  C   UNL     1      -0.525  -4.339   1.006  0.00  0.00    +0.047 A 
ATOM     11  C   UNL     1      -1.132  -5.282   1.859  0.00  0.00    +0.004 A 
ATOM     12  C   UNL     1      -1.130  -5.078   3.237  0.00  0.00    +0.023 A 
ATOM     13  C   UNL     1      -0.527  -3.936   3.757  0.00  0.00    +0.038 A 
ATOM     14  C   UNL     1       0.070  -3.004   2.897  0.00  0.00    +0.015 A 
ATOM     15  C   UNL     1       0.077  -3.206   1.549  0.00  0.00    +0.027 A 
ATOM     16  C   UNL     1      -1.718  -6.785  -1.500  0.00  0.00    +0.063 C 
ENDBRANCH   1  13
BRANCH   3  17
ATOM     17  C   UNL     1      -0.009  -2.334   7.092  0.00  0.00    +0.034 A 
ATOM     18  C   UNL     1      -0.116  -1.024   7.540  0.00  0.00    +0.025 A 
ATOM     19  C   UNL     1      -0.190  -0.761   8.893  0.00  0.00    +0.025 A 
ATOM     20  C   UNL     1      -0.158  -1.807   9.807  0.00  0.00    +0.033 A 
ATOM     21  C   UNL     1      -0.052  -3.117   9.359  0.00  0.00    +0.025 A 
ATOM     22  C   UNL     1       0.016  -3.380   8.005  0.00  0.00    +0.025 A 
BRANCH  20  23
ATOM     23  N   UNL     1      -0.233  -1.540  11.180  0.00  0.00    -0.286 N 
ATOM     24  C   UNL     1       0.454  -2.302  12.053  0.00  0.00    +0.215 C 
ATOM     25  O   UNL     1       1.071  -3.269  11.659  0.00  0.00    -0.276 OA
ATOM     26  H   UNL     1      -0.780  -0.806  11.502  0.00  0.00    +0.155 HD
BRANCH  24  27
ATOM     27  C   UNL     1       0.457  -1.952  13.519  0.00  0.00    +0.077 C 
BRANCH  27  28
ATOM     28  C   UNL     1       1.306  -2.969  14.284  0.00  0.00    -0.070 C 
BRANCH  28  29
ATOM     29  N   UNL     1       1.309  -2.628  15.713  0.00  0.00    +0.376 N 
ATOM     30  C   UNL     1      -0.049  -2.771  16.253  0.00  0.00    -0.097 C 
ATOM     31  C   UNL     1       2.219  -3.532  16.430  0.00  0.00    -0.097 C 
ATOM     32  H   UNL     1       1.619  -1.675  15.831  0.00  0.00    -0.083 HD
ENDBRANCH  28  29
ENDBRANCH  27  28
ENDBRANCH  24  27
ENDBRANCH  20  23
ENDBRANCH   3  17
TORSDOF 6
