REMARK  Name = ZINC67492241
REMARK  9 active torsions:
REMARK  status: ('A' for Active; 'I' for Inactive)
REMARK    1  A    between atoms: C_1  and  C_2
REMARK    2  A    between atoms: C_2  and  C_3
REMARK    3  A    between atoms: C_3  and  C_4
REMARK    4  A    between atoms: C_4  and  N_5
REMARK    5  A    between atoms: C_11  and  N_14
REMARK    6  A    between atoms: C_15  and  C_17
REMARK    7  A    between atoms: N_19  and  C_20
REMARK    8  A    between atoms: C_20  and  C_21
REMARK    9  A    between atoms: C_26  and  C_27
REMARK                            x       y       z     vdW  Elec       q    Type
REMARK                         _______ _______ _______ _____ _____    ______ ____
ROOT
ATOM      1  N   UNL     1       2.387  -6.644  -3.788  0.00  0.00    -0.278 N 
ATOM      2  C   UNL     1       3.174  -7.547  -4.405  0.00  0.00    +0.303 C 
ATOM      3  O   UNL     1       3.454  -7.407  -5.578  0.00  0.00    -0.265 OA
ATOM      4  H   UNL     1       2.229  -6.710  -2.833  0.00  0.00    +0.155 HD
ENDROOT
BRANCH   1  11
ATOM      5  N   UNL     1       1.408  -2.501  -2.487  0.00  0.00    +0.385 N 
ATOM      6  C   UNL     1       0.576  -2.254  -3.687  0.00  0.00    -0.042 C 
ATOM      7  C   UNL     1       0.858  -3.406  -4.624  0.00  0.00    -0.061 A 
ATOM      8  C   UNL     1       0.636  -3.566  -5.979  0.00  0.00    +0.002 A 
ATOM      9  C   UNL     1       0.993  -4.744  -6.609  0.00  0.00    +0.002 A 
ATOM     10  C   UNL     1       1.574  -5.767  -5.885  0.00  0.00    +0.023 A 
ATOM     11  C   UNL     1       1.799  -5.611  -4.523  0.00  0.00    +0.035 A 
ATOM     12  C   UNL     1       1.439  -4.427  -3.893  0.00  0.00    -0.041 A 
ATOM     13  C   UNL     1       1.556  -3.974  -2.456  0.00  0.00    -0.040 C 
ATOM     14  H   UNL     1       2.309  -2.057  -2.581  0.00  0.00    -0.081 HD
BRANCH   5  15
ATOM     15  C   UNL     1       0.722  -2.026  -1.278  0.00  0.00    -0.078 C 
BRANCH  15  16
ATOM     16  C   UNL     1       0.693  -0.497  -1.276  0.00  0.00    -0.019 C 
BRANCH  16  18
ATOM     17  C   UNL     1      -0.051   1.528  -0.014  0.00  0.00    +0.004 C 
ATOM     18  C   UNL     1      -0.021  -0.002  -0.016  0.00  0.00    -0.005 C 
ENDBRANCH  16  18
ENDBRANCH  15  16
ENDBRANCH   5  15
ENDBRANCH   1  11
BRANCH   2  19
ATOM     19  C   UNL     1       3.701  -8.720  -3.646  0.00  0.00    +0.300 C 
ATOM     20  O   UNL     1       3.422  -8.860  -2.473  0.00  0.00    -0.265 OA
ATOM     21  N   UNL     1       4.488  -9.624  -4.263  0.00  0.00    -0.303 N 
ATOM     22  H   UNL     1       4.712  -9.512  -5.201  0.00  0.00    +0.149 HD
BRANCH  21  23
ATOM     23  C   UNL     1       5.006 -10.774  -3.519  0.00  0.00    +0.140 C 
BRANCH  23  24
ATOM     24  C   UNL     1       5.851 -11.624  -4.432  0.00  0.00    -0.027 A 
ATOM     25  C   UNL     1       5.320 -12.767  -5.000  0.00  0.00    +0.005 A 
ATOM     26  C   UNL     1       6.096 -13.547  -5.838  0.00  0.00    +0.000 A 
ATOM     27  C   UNL     1       7.402 -13.184  -6.107  0.00  0.00    +0.000 A 
ATOM     28  C   UNL     1       7.933 -12.041  -5.540  0.00  0.00    +0.003 A 
ATOM     29  C   UNL     1       7.156 -11.258  -4.705  0.00  0.00    -0.046 A 
ATOM     30  C   UNL     1       7.732 -10.009  -4.091  0.00  0.00    +0.044 C 
ENDBRANCH  23  24
ENDBRANCH  21  23
ENDBRANCH   2  19
TORSDOF 7
