REMARK  Name = ZINC38551107
REMARK  8 active torsions:
REMARK  status: ('A' for Active; 'I' for Inactive)
REMARK    1  A    between atoms: C_1  and  C_2
REMARK    2  A    between atoms: N_8  and  C_9
REMARK    3  A    between atoms: C_9  and  C_11
REMARK    4  A    between atoms: C_9  and  C_19
REMARK    5  A    between atoms: C_14  and  S_17
REMARK    6  A    between atoms: S_17  and  C_18
REMARK    7  A    between atoms: C_23  and  N_24
REMARK    8  A    between atoms: C_25  and  C_27
REMARK                            x       y       z     vdW  Elec       q    Type
REMARK                         _______ _______ _______ _____ _____    ______ ____
ROOT
ATOM      1  C   UNL     1      -0.335  -2.086   3.892  0.00  0.00    +0.135 C 
ENDROOT
BRANCH   1   9
ATOM      2  C   UNL     1       2.931  -5.908   2.894  0.00  0.00    +0.044 C 
ATOM      3  C   UNL     1       1.910  -5.141   2.094  0.00  0.00    -0.046 A 
ATOM      4  C   UNL     1       1.716  -5.411   0.745  0.00  0.00    +0.021 A 
ATOM      5  C   UNL     1       0.773  -4.691   0.041  0.00  0.00    +0.084 A 
ATOM      6  N   UNL     1       0.057  -3.753   0.631  0.00  0.00    -0.350 N 
ATOM      7  C   UNL     1       0.213  -3.466   1.915  0.00  0.00    +0.097 A 
ATOM      8  C   UNL     1       1.142  -4.156   2.687  0.00  0.00    +0.045 A 
ATOM      9  N   UNL     1      -0.563  -2.470   2.497  0.00  0.00    -0.320 N 
ATOM     10  H   UNL     1      -1.254  -2.029   1.979  0.00  0.00    +0.148 HD
ATOM     11  H   UNL     1      -0.599  -3.262   0.113  0.00  0.00    +0.166 HD
ENDBRANCH   1   9
BRANCH   1  12
ATOM     12  C   UNL     1       0.875  -1.192   3.976  0.00  0.00    +0.009 A 
ATOM     13  C   UNL     1       1.814  -1.381   4.991  0.00  0.00    -0.030 A 
ATOM     14  C   UNL     1       2.879  -0.535   5.001  0.00  0.00    -0.005 A 
ATOM     15  S   UNL     1       2.593   0.526   3.610  0.00  0.00    -0.078 S 
ATOM     16  C   UNL     1       1.058  -0.204   3.061  0.00  0.00    +0.078 A 
ATOM     17  C   UNL     1       4.018  -0.515   5.968  0.00  0.00    +0.043 C 
ATOM     18  C   UNL     1       3.632  -1.368   7.186  0.00  0.00    +0.005 C 
ATOM     19  C   UNL     1       3.057  -2.698   6.692  0.00  0.00    +0.005 C 
ATOM     20  C   UNL     1       1.687  -2.470   6.052  0.00  0.00    +0.036 C 
BRANCH  16  21
ATOM     21  N   UNL     1       0.254   0.149   1.975  0.00  0.00    -0.273 N 
ATOM     22  C   UNL     1       0.588   1.203   1.204  0.00  0.00    +0.284 C 
ATOM     23  O   UNL     1       1.637   1.790   1.396  0.00  0.00    -0.266 OA
ATOM     24  H   UNL     1      -0.545  -0.363   1.776  0.00  0.00    +0.156 HD
BRANCH  22  25
ATOM     25  C   UNL     1      -0.312   1.643   0.133  0.00  0.00    +0.189 A 
ATOM     26  C   UNL     1      -0.057   2.630  -0.775  0.00  0.00    +0.054 A 
ATOM     27  C   UNL     1      -1.184   2.713  -1.608  0.00  0.00    +0.042 A 
ATOM     28  C   UNL     1      -2.067   1.786  -1.177  0.00  0.00    +0.196 A 
ATOM     29  O   UNL     1      -1.536   1.139  -0.130  0.00  0.00    -0.458 OA
ENDBRANCH  22  25
ENDBRANCH  16  21
ENDBRANCH   1  12
BRANCH   1  30
ATOM     30  C   UNL     1      -1.542  -1.348   4.413  0.00  0.00    -0.023 A 
ATOM     31  C   UNL     1      -2.257  -0.515   3.572  0.00  0.00    +0.007 A 
ATOM     32  C   UNL     1      -3.363   0.163   4.046  0.00  0.00    +0.015 A 
ATOM     33  C   UNL     1      -3.756   0.007   5.370  0.00  0.00    +0.008 A 
ATOM     34  C   UNL     1      -3.035  -0.831   6.212  0.00  0.00    +0.015 A 
ATOM     35  C   UNL     1      -1.934  -1.510   5.729  0.00  0.00    +0.007 A 
BRANCH  33  36
ATOM     36  S   UNL     1      -5.166   0.871   5.979  0.00  0.00    -0.129 S 
ATOM     37  C   UNL     1      -5.278   0.359   7.715  0.00  0.00    +0.090 C 
ENDBRANCH  33  36
ENDBRANCH   1  30
TORSDOF 6
