REMARK  Name = ZINC39710213
REMARK  11 active torsions:
REMARK  status: ('A' for Active; 'I' for Inactive)
REMARK    1  A    between atoms: C_1  and  C_2
REMARK    2  A    between atoms: C_9  and  C_14
REMARK    3  A    between atoms: C_14  and  C_16
REMARK    4  A    between atoms: C_14  and  N_26
REMARK    5  A    between atoms: N_21  and  C_22
REMARK    6  A    between atoms: C_22  and  C_23
REMARK    7  A    between atoms: C_22  and  C_24
REMARK    8  A    between atoms: C_22  and  C_25
REMARK    9  A    between atoms: N_29  and  C_32
REMARK   10  A    between atoms: C_36  and  C_39
REMARK   11  A    between atoms: C_37  and  C_38
REMARK                            x       y       z     vdW  Elec       q    Type
REMARK                         _______ _______ _______ _____ _____    ______ ____
ROOT
ATOM      1  C   UNL     1       1.300  -4.858   2.854  0.00  0.00    -0.009 C 
ENDROOT
BRANCH   1  10
ATOM      2  C   UNL     1       0.669   1.898   0.624  0.00  0.00    +0.044 C 
ATOM      3  C   UNL     1       0.445   0.413   0.499  0.00  0.00    -0.050 A 
ATOM      4  C   UNL     1       0.195  -0.137  -0.759  0.00  0.00    +0.005 A 
ATOM      5  C   UNL     1      -0.016  -1.465  -0.950  0.00  0.00    +0.024 A 
ATOM      6  C   UNL     1       0.012  -2.356   0.139  0.00  0.00    +0.040 A 
ATOM      7  N   UNL     1      -0.195  -3.658  -0.060  0.00  0.00    -0.285 N 
ATOM      8  C   UNL     1      -0.184  -4.549   0.917  0.00  0.00    +0.223 C 
ATOM      9  O   UNL     1      -0.380  -5.724   0.674  0.00  0.00    -0.275 OA
ATOM     10  C   UNL     1       0.075  -4.100   2.338  0.00  0.00    +0.088 C 
ATOM     11  C   UNL     1       0.312  -2.621   2.570  0.00  0.00    -0.006 C 
ATOM     12  C   UNL     1       0.274  -1.804   1.479  0.00  0.00    -0.007 A 
ATOM     13  C   UNL     1       0.497  -0.363   1.612  0.00  0.00    +0.012 A 
ATOM     14  H   UNL     1      -0.363  -3.966  -0.964  0.00  0.00    +0.155 HD
ENDBRANCH   1  10
BRANCH   1  15
ATOM     15  N   UNL     1       1.043  -6.303   2.797  0.00  0.00    +0.387 N 
ATOM     16  C   UNL     1      -0.246  -6.594   3.437  0.00  0.00    -0.059 C 
ATOM     17  C   UNL     1      -0.570  -8.083   3.277  0.00  0.00    +0.086 C 
ATOM     18  N   UNL     1       0.559  -8.865   3.804  0.00  0.00    -0.333 N 
ATOM     19  C   UNL     1       1.913  -8.528   3.336  0.00  0.00    +0.086 C 
ATOM     20  C   UNL     1       2.119  -7.018   3.493  0.00  0.00    -0.059 C 
ATOM     21  H   UNL     1       1.012  -6.600   1.833  0.00  0.00    -0.081 HD
BRANCH  18  22
ATOM     22  C   UNL     1       0.352  -9.898   4.721  0.00  0.00    +0.033 A 
ATOM     23  C   UNL     1       0.137 -11.195   4.272  0.00  0.00    +0.023 A 
ATOM     24  C   UNL     1      -0.067 -12.213   5.181  0.00  0.00    +0.002 A 
ATOM     25  C   UNL     1      -0.057 -11.944   6.538  0.00  0.00    +0.004 A 
ATOM     26  C   UNL     1       0.157 -10.654   6.988  0.00  0.00    -0.046 A 
ATOM     27  C   UNL     1       0.367  -9.631   6.084  0.00  0.00    -0.027 A 
ATOM     28  C   UNL     1       0.607  -8.227   6.576  0.00  0.00    +0.046 C 
ATOM     29  C   UNL     1       0.166 -10.365   8.467  0.00  0.00    +0.044 C 
ENDBRANCH  18  22
ENDBRANCH   1  15
BRANCH   1  30
ATOM     30  C   UNL     1       2.512  -4.521   1.982  0.00  0.00    +0.205 C 
ATOM     31  N   UNL     1       2.392  -5.164   0.667  0.00  0.00    -0.152 NA
ATOM     32  N   UNL     1       3.338  -5.940   0.514  0.00  0.00    -0.070 NA
ATOM     33  N   UNL     1       4.202  -5.963   1.608  0.00  0.00    -0.179 N 
ATOM     34  N   UNL     1       3.743  -5.093   2.567  0.00  0.00    -0.183 NA
ATOM     35  H   UNL     1       5.002  -6.508   1.681  0.00  0.00    +0.191 HD
BRANCH  34  36
ATOM     36  C   UNL     1       4.731  -4.043   2.845  0.00  0.00    +0.035 C 
ATOM     37  C   UNL     1       4.131  -3.021   3.811  0.00  0.00    +0.029 C 
ATOM     38  C   UNL     1       5.978  -4.669   3.474  0.00  0.00    +0.029 C 
ATOM     39  C   UNL     1       5.116  -3.346   1.538  0.00  0.00    +0.029 C 
ENDBRANCH  34  36
ENDBRANCH   1  30
TORSDOF 5
