REMARK  Name = ZINC08997006
REMARK  12 active torsions:
REMARK  status: ('A' for Active; 'I' for Inactive)
REMARK    1  A    between atoms: C_1  and  C_2
REMARK    2  A    between atoms: C_5  and  C_38
REMARK    3  A    between atoms: C_6  and  N_8
REMARK    4  A    between atoms: C_9  and  C_11
REMARK    5  A    between atoms: C_11  and  S_12
REMARK    6  A    between atoms: S_12  and  C_13
REMARK    7  A    between atoms: C_14  and  C_36
REMARK    8  A    between atoms: C_15  and  C_31
REMARK    9  A    between atoms: C_17  and  C_21
REMARK   10  A    between atoms: C_18  and  C_20
REMARK   11  A    between atoms: N_23  and  C_24
REMARK   12  A    between atoms: C_29  and  C_30
REMARK                            x       y       z     vdW  Elec       q    Type
REMARK                         _______ _______ _______ _____ _____    ______ ____
ROOT
ATOM      1  C   UNL     1       1.829  -0.779   0.731  0.00  0.00    +0.093 C 
ATOM      2  C   UNL     1       0.566  -0.277   0.757  0.00  0.00    +0.161 C 
ATOM      3  C   UNL     1      -0.110   0.200  -0.497  0.00  0.00    +0.115 C 
ATOM      4  C   UNL     1       0.604  -0.312  -1.715  0.00  0.00    +0.048 C 
ATOM      5  C   UNL     1       1.850  -0.807  -1.649  0.00  0.00    +0.048 C 
ATOM      6  N   UNL     1       2.519  -0.871  -0.457  0.00  0.00    -0.248 NA
ATOM      7  C   UNL     1       2.521  -1.299  -2.905  0.00  0.00    +0.066 C 
ENDROOT
BRANCH   3   8
ATOM      8  C   UNL     1      -0.111   1.706  -0.520  0.00  0.00    +0.114 A 
ATOM      9  C   UNL     1      -1.202   2.492  -0.554  0.00  0.00    +0.045 A 
ATOM     10  C   UNL     1      -0.744   3.830  -0.562  0.00  0.00    +0.041 A 
ATOM     11  C   UNL     1       0.601   3.781  -0.541  0.00  0.00    +0.195 A 
ATOM     12  O   UNL     1       0.978   2.493  -0.515  0.00  0.00    -0.467 OA
ENDBRANCH   3   8
BRANCH   4  13
ATOM     13  C   UNL     1      -0.054  -0.273  -2.967  0.00  0.00    +0.247 C 
ATOM     14  O   UNL     1       0.510  -0.683  -3.965  0.00  0.00    -0.270 OA
ATOM     15  N   UNL     1      -1.306   0.220  -3.055  0.00  0.00    -0.281 N 
ATOM     16  H   UNL     1      -1.786   0.471  -2.251  0.00  0.00    +0.155 HD
BRANCH  15  17
ATOM     17  C   UNL     1      -1.913   0.367  -4.307  0.00  0.00    +0.037 A 
ATOM     18  C   UNL     1      -1.132   0.515  -5.446  0.00  0.00    +0.023 A 
ATOM     19  C   UNL     1      -1.734   0.661  -6.680  0.00  0.00    +0.002 A 
ATOM     20  C   UNL     1      -3.113   0.659  -6.783  0.00  0.00    +0.000 A 
ATOM     21  C   UNL     1      -3.893   0.513  -5.651  0.00  0.00    +0.005 A 
ATOM     22  C   UNL     1      -3.297   0.361  -4.414  0.00  0.00    -0.029 A 
ATOM     23  C   UNL     1      -4.149   0.194  -3.182  0.00  0.00    +0.045 C 
ENDBRANCH  15  17
ENDBRANCH   4  13
BRANCH   2  24
ATOM     24  C   UNL     1      -0.134  -0.201   2.005  0.00  0.00    +0.074 C 
ATOM     25  N   UNL     1      -0.688  -0.140   2.994  0.00  0.00    -0.196 NA
ENDBRANCH   2  24
BRANCH   1  26
ATOM     26  S   UNL     1       2.589  -1.316   2.227  0.00  0.00    -0.100 S 
BRANCH  26  27
ATOM     27  C   UNL     1       4.192  -1.860   1.588  0.00  0.00    +0.171 C 
BRANCH  27  29
ATOM     28  N   UNL     1       6.281  -2.837   2.485  0.00  0.00    -0.285 N 
ATOM     29  C   UNL     1       5.038  -2.376   2.725  0.00  0.00    +0.227 C 
ATOM     30  O   UNL     1       4.599  -2.375   3.855  0.00  0.00    -0.275 OA
ATOM     31  H   UNL     1       6.658  -2.774   1.593  0.00  0.00    +0.155 HD
BRANCH  28  37
ATOM     32  C   UNL     1       7.514  -2.956   7.242  0.00  0.00    +0.044 C 
ATOM     33  C   UNL     1       7.645  -3.484   5.837  0.00  0.00    -0.049 A 
ATOM     34  C   UNL     1       8.505  -4.535   5.571  0.00  0.00    +0.004 A 
ATOM     35  C   UNL     1       8.627  -5.023   4.284  0.00  0.00    +0.005 A 
ATOM     36  C   UNL     1       7.891  -4.463   3.258  0.00  0.00    -0.029 A 
ATOM     37  C   UNL     1       7.028  -3.407   3.521  0.00  0.00    +0.037 A 
ATOM     38  C   UNL     1       6.912  -2.915   4.815  0.00  0.00    +0.027 A 
ATOM     39  C   UNL     1       8.024  -4.996   1.855  0.00  0.00    +0.045 C 
ENDBRANCH  28  37
ENDBRANCH  27  29
ENDBRANCH  26  27
ENDBRANCH   1  26
TORSDOF 8
