REMARK  Name = ZINC36206471
REMARK  17 active torsions:
REMARK  status: ('A' for Active; 'I' for Inactive)
REMARK    1  A    between atoms: C_1  and  C_2
REMARK    2  A    between atoms: C_2  and  C_3
REMARK    3  A    between atoms: C_3  and  N_4
REMARK    4  A    between atoms: N_4  and  C_5
REMARK    5  A    between atoms: N_4  and  C_25
REMARK    6  A    between atoms: C_5  and  C_6
REMARK    7  A    between atoms: C_12  and  C_17
REMARK    8  A    between atoms: C_20  and  C_24
REMARK    9  A    between atoms: C_22  and  C_23
REMARK   10  A    between atoms: C_25  and  C_26
REMARK   11  A    between atoms: C_26  and  C_28
REMARK   12  A    between atoms: C_26  and  O_34
REMARK   13  A    between atoms: C_28  and  O_29
REMARK   14  A    between atoms: O_29  and  C_30
REMARK   15  A    between atoms: C_30  and  C_31
REMARK   16  A    between atoms: C_30  and  C_32
REMARK   17  A    between atoms: C_30  and  C_33
REMARK                            x       y       z     vdW  Elec       q    Type
REMARK                         _______ _______ _______ _____ _____    ______ ____
ROOT
ATOM      1  C   UNL     1       1.203  -4.032   0.120  0.00  0.00    +0.094 A 
ATOM      2  N   UNL     1       1.782  -4.752  -0.875  0.00  0.00    -0.312 N 
ATOM      3  H   UNL     1       2.365  -4.304  -1.508  0.00  0.00    +0.170 HD
ATOM      4  C   UNL     1       1.563  -6.074  -1.000  0.00  0.00    +0.260 A 
ATOM      5  O   UNL     1       2.091  -6.706  -1.899  0.00  0.00    -0.267 OA
ATOM      6  C   UNL     1       0.701  -6.726  -0.062  0.00  0.00    +0.080 A 
ATOM      7  C   UNL     1       0.313  -8.130   0.012  0.00  0.00    +0.004 A 
ATOM      8  C   UNL     1      -0.526  -8.522   1.002  0.00  0.00    +0.056 A 
ATOM      9  S   UNL     1      -0.843  -7.013   1.896  0.00  0.00    -0.076 S 
ATOM     10  C   UNL     1       0.147  -5.902   0.931  0.00  0.00    +0.116 A 
ATOM     11  N   UNL     1       0.416  -4.600   0.994  0.00  0.00    -0.229 NA
ENDROOT
BRANCH   7  12
ATOM     12  C   UNL     1       0.825  -9.109  -0.976  0.00  0.00    -0.014 A 
ATOM     13  C   UNL     1      -0.052  -9.734  -1.861  0.00  0.00    +0.009 A 
ATOM     14  C   UNL     1       0.431 -10.644  -2.779  0.00  0.00    +0.004 A 
ATOM     15  C   UNL     1       1.782 -10.937  -2.822  0.00  0.00    -0.050 A 
ATOM     16  C   UNL     1       2.657 -10.319  -1.946  0.00  0.00    +0.007 A 
ATOM     17  C   UNL     1       2.187  -9.403  -1.028  0.00  0.00    -0.042 A 
ATOM     18  C   UNL     1       3.142  -8.727  -0.079  0.00  0.00    +0.044 C 
ATOM     19  C   UNL     1       2.303 -11.932  -3.826  0.00  0.00    +0.044 C 
ENDBRANCH   7  12
BRANCH   1  20
ATOM     20  C   UNL     1       1.477  -2.554   0.222  0.00  0.00    -0.003 C 
BRANCH  20  21
ATOM     21  N   UNL     1       0.877  -2.028   1.455  0.00  0.00    +0.386 N 
ATOM     22  H   UNL     1      -0.098  -2.286   1.491  0.00  0.00    -0.081 HD
BRANCH  21  23
ATOM     23  C   UNL     1       0.997  -0.564   1.472  0.00  0.00    -0.078 C 
BRANCH  23  25
ATOM     24  C   UNL     1       0.168   1.556   0.443  0.00  0.00    +0.002 C 
ATOM     25  C   UNL     1       0.161   0.030   0.337  0.00  0.00    -0.022 C 
ENDBRANCH  23  25
ENDBRANCH  21  23
BRANCH  21  26
ATOM     26  C   UNL     1       1.576  -2.591   2.618  0.00  0.00    -0.044 C 
BRANCH  26  27
ATOM     27  C   UNL     1       0.873  -2.142   3.901  0.00  0.00    +0.124 C 
BRANCH  27  28
ATOM     28  O   UNL     1      -0.442  -2.700   3.944  0.00  0.00    -0.391 OA
ATOM     29  H   UNL     1      -0.460  -3.666   3.932  0.00  0.00    +0.210 HD
ENDBRANCH  27  28
BRANCH  27  30
ATOM     30  C   UNL     1       1.671  -2.623   5.115  0.00  0.00    +0.189 C 
BRANCH  30  31
ATOM     31  O   UNL     1       1.080  -2.107   6.309  0.00  0.00    -0.372 OA
BRANCH  31  32
ATOM     32  C   UNL     1       1.753  -2.499   7.507  0.00  0.00    +0.061 C 
ATOM     33  C   UNL     1       3.199  -2.001   7.467  0.00  0.00    +0.041 C 
ATOM     34  C   UNL     1       1.038  -1.892   8.716  0.00  0.00    +0.041 C 
ATOM     35  C   UNL     1       1.742  -4.025   7.622  0.00  0.00    +0.041 C 
ENDBRANCH  31  32
ENDBRANCH  30  31
ENDBRANCH  27  30
ENDBRANCH  26  27
ENDBRANCH  21  26
ENDBRANCH  20  21
ENDBRANCH   1  20
TORSDOF 11
