REMARK  Name = ZINC61882176
REMARK  6 active torsions:
REMARK  status: ('A' for Active; 'I' for Inactive)
REMARK    1  A    between atoms: C_3  and  C_6
REMARK    2  A    between atoms: C_6  and  C_7
REMARK    3  A    between atoms: C_7  and  N_8
REMARK    4  A    between atoms: N_8  and  S_9
REMARK    5  A    between atoms: S_9  and  C_12
REMARK    6  A    between atoms: C_16  and  N_19
REMARK                            x       y       z     vdW  Elec       q    Type
REMARK                         _______ _______ _______ _____ _____    ______ ____
ROOT
ATOM      1  S   UNL     1       6.440   1.036   2.735  0.00  0.00    +0.060 S 
ATOM      2  O   UNL     1       7.838   1.075   2.482  0.00  0.00    -0.153 OA
ATOM      3  O   UNL     1       5.709   2.181   3.151  0.00  0.00    -0.153 OA
ENDROOT
BRANCH   1   4
ATOM      4  C   UNL     1       6.185  -0.198   3.967  0.00  0.00    +0.122 A 
ATOM      5  C   UNL     1       5.425   0.089   5.085  0.00  0.00    +0.049 A 
ATOM      6  C   UNL     1       5.222  -0.877   6.055  0.00  0.00    +0.045 A 
ATOM      7  C   UNL     1       5.780  -2.134   5.907  0.00  0.00    +0.044 A 
ATOM      8  C   UNL     1       6.544  -2.425   4.785  0.00  0.00    +0.042 A 
ATOM      9  C   UNL     1       6.741  -1.453   3.811  0.00  0.00    +0.065 A 
ATOM     10 BR   UNL     1       7.774  -1.847   2.277  0.00  0.00    -0.046 Br
ATOM     11 CL   UNL     1       4.268  -0.511   7.458  0.00  0.00    -0.083 Cl
BRANCH   8  12
ATOM     12  N   UNL     1       7.109  -3.694   4.633  0.00  0.00    -0.357 N 
ATOM     13  H   UNL     1       6.968  -4.372   5.312  0.00  0.00    +0.142 HD
ATOM     14  H   UNL     1       7.643  -3.896   3.849  0.00  0.00    +0.142 HD
ENDBRANCH   8  12
ENDBRANCH   1   4
BRANCH   1  15
ATOM     15  N   UNL     1       5.722   0.495   1.344  0.00  0.00    -0.190 NA
ATOM     16  H   UNL     1       6.263   0.300   0.563  0.00  0.00    +0.148 HD
BRANCH  15  17
ATOM     17  C   UNL     1       4.269   0.311   1.294  0.00  0.00    +0.113 C 
BRANCH  17  18
ATOM     18  C   UNL     1       3.821   0.189  -0.164  0.00  0.00    +0.091 C 
BRANCH  18  21
ATOM     19  C   UNL     1       0.143   0.360  -0.319  0.00  0.00    +0.041 A 
ATOM     20  C   UNL     1       1.412   0.983  -0.293  0.00  0.00    +0.044 A 
ATOM     21  C   UNL     1       2.327  -0.000  -0.216  0.00  0.00    +0.106 A 
ATOM     22  O   UNL     1       1.683  -1.179  -0.194  0.00  0.00    -0.468 OA
ATOM     23  C   UNL     1       0.358  -0.967  -0.256  0.00  0.00    +0.195 A 
ENDBRANCH  18  21
ENDBRANCH  17  18
ENDBRANCH  15  17
ENDBRANCH   1  15
TORSDOF 6
