REMARK  Name = ZINC06818040
REMARK  11 active torsions:
REMARK  status: ('A' for Active; 'I' for Inactive)
REMARK    1  A    between atoms: C_1  and  C_2
REMARK    2  A    between atoms: C_2  and  C_3
REMARK    3  A    between atoms: C_3  and  C_5
REMARK    4  A    between atoms: C_3  and  N_6
REMARK    5  A    between atoms: C_7  and  C_9
REMARK    6  A    between atoms: C_9  and  C_10
REMARK    7  A    between atoms: C_10  and  C_11
REMARK    8  A    between atoms: N_13  and  C_14
REMARK    9  A    between atoms: C_20  and  C_30
REMARK   10  A    between atoms: C_28  and  C_29
REMARK   11  A    between atoms: C_28  and  N_67
REMARK                            x       y       z     vdW  Elec       q    Type
REMARK                         _______ _______ _______ _____ _____    ______ ____
ROOT
ATOM      1  C   UNL     1      -2.364   1.109  -0.073  0.00  0.00    +0.034 A 
ATOM      2  C   UNL     1      -2.290  -0.288  -0.079  0.00  0.00    +0.025 A 
ATOM      3  C   UNL     1      -3.414  -1.048  -0.162  0.00  0.00    +0.028 A 
ATOM      4  C   UNL     1      -4.674  -0.432  -0.254  0.00  0.00    +0.048 A 
ATOM      5  C   UNL     1      -4.756   0.982  -0.255  0.00  0.00    +0.003 A 
ATOM      6  C   UNL     1      -3.583   1.746  -0.163  0.00  0.00    +0.033 A 
ATOM      7  C   UNL     1      -6.022   1.596  -0.347  0.00  0.00    -0.038 A 
ATOM      8  C   UNL     1      -7.122   0.798  -0.433  0.00  0.00    +0.045 A 
ATOM      9  C   UNL     1      -6.976  -0.596  -0.427  0.00  0.00    +0.099 A 
ATOM     10  N   UNL     1      -8.106  -1.397  -0.515  0.00  0.00    -0.320 N 
ATOM     11  C   UNL     1      -9.059  -1.081   0.558  0.00  0.00    +0.088 C 
ATOM     12  C   UNL     1     -10.322  -1.927   0.380  0.00  0.00    -0.060 C 
ATOM     13  C   UNL     1      -9.008  -3.667  -0.672  0.00  0.00    -0.060 C 
ATOM     14  C   UNL     1      -7.745  -2.821  -0.494  0.00  0.00    +0.088 C 
ATOM     15  C   UNL     1      -6.154   3.097  -0.352  0.00  0.00    +0.044 C 
ATOM     16  N   UNL     1      -5.786  -1.241  -0.341  0.00  0.00    -0.343 N 
ATOM     17  H   UNL     1      -5.718  -2.266  -0.340  0.00  0.00    +0.167 HD
ATOM     18  N   UNL     1      -9.949  -3.357   0.426  0.00  0.00    +0.382 N 
ATOM     19  H   UNL     1      -9.491  -3.553   1.323  0.00  0.00    -0.082 HD
ENDROOT
BRANCH   1  22
ATOM     20  C   UNL     1      -0.148   1.410   0.741  0.00  0.00    +0.218 C 
ATOM     21  O   UNL     1      -0.260   0.392   1.389  0.00  0.00    -0.275 OA
ATOM     22  N   UNL     1      -1.191   1.867   0.018  0.00  0.00    -0.285 N 
ATOM     23  H   UNL     1      -1.127   2.720  -0.439  0.00  0.00    +0.155 HD
BRANCH  20  24
ATOM     24  C   UNL     1       1.157   2.163   0.738  0.00  0.00    +0.105 C 
BRANCH  24  25
ATOM     25  C   UNL     1       2.168   1.434   1.626  0.00  0.00    +0.105 C 
BRANCH  25  27
ATOM     26  N   UNL     1       4.517   1.727   2.342  0.00  0.00    -0.313 N 
ATOM     27  C   UNL     1       3.473   2.186   1.623  0.00  0.00    +0.214 C 
ATOM     28  O   UNL     1       3.585   3.205   0.975  0.00  0.00    -0.276 OA
ATOM     29  H   UNL     1       4.428   0.912   2.861  0.00  0.00    +0.149 HD
BRANCH  26  30
ATOM     30  C   UNL     1       5.787   2.458   2.339  0.00  0.00    +0.070 C 
ATOM     31  C   UNL     1       5.739   3.567   3.392  0.00  0.00    +0.028 C 
BRANCH  30  33
ATOM     32  C   UNL     1       7.058   0.459   1.546  0.00  0.00    +0.005 C 
ATOM     33  C   UNL     1       6.931   1.495   2.664  0.00  0.00    +0.018 C 
ENDBRANCH  30  33
ENDBRANCH  26  30
ENDBRANCH  25  27
ENDBRANCH  24  25
ENDBRANCH  20  24
ENDBRANCH   1  22
BRANCH  18  34
ATOM     34  C   UNL     1     -11.158  -4.199   0.309  0.00  0.00    -0.082 C 
ATOM     35  C   UNL     1     -12.007  -4.023   1.569  0.00  0.00    -0.017 C 
ENDBRANCH  18  34
TORSDOF 7
