REMARK  Name = ZINC08890814
REMARK  7 active torsions:
REMARK  status: ('A' for Active; 'I' for Inactive)
REMARK    1  A    between atoms: C_1  and  C_2
REMARK    2  A    between atoms: C_2  and  C_14
REMARK    3  A    between atoms: N_5  and  C_9
REMARK    4  A    between atoms: C_9  and  C_10
REMARK    5  A    between atoms: N_12  and  C_13
REMARK    6  A    between atoms: C_19  and  O_24
REMARK    7  A    between atoms: O_24  and  C_25
REMARK                            x       y       z     vdW  Elec       q    Type
REMARK                         _______ _______ _______ _____ _____    ______ ____
ROOT
ATOM      1  C   UNL     1      -0.019   1.526   0.010  0.00  0.00    +0.047 C 
ATOM      2  C   UNL     1       0.002  -0.004   0.002  0.00  0.00    +0.135 C 
ATOM      3  C   UNL     1      -1.403  -0.557   0.139  0.00  0.00    +0.251 C 
ATOM      4  O   UNL     1      -2.332  -0.392  -0.621  0.00  0.00    -0.272 OA
ATOM      5  N   UNL     1      -1.403  -1.272   1.282  0.00  0.00    -0.215 N 
ATOM      6  C   UNL     1      -0.206  -1.247   1.879  0.00  0.00    +0.310 C 
ATOM      7  O   UNL     1       0.040  -1.819   2.924  0.00  0.00    -0.252 OA
ATOM      8  N   UNL     1       0.695  -0.520   1.195  0.00  0.00    -0.281 N 
ATOM      9  H   UNL     1       1.621  -0.365   1.440  0.00  0.00    +0.152 HD
ENDROOT
BRANCH   2  10
ATOM     10  C   UNL     1       0.657  -0.517  -1.255  0.00  0.00    -0.015 A 
ATOM     11  C   UNL     1      -0.124  -0.771  -2.381  0.00  0.00    +0.007 A 
ATOM     12  C   UNL     1       0.436  -1.234  -3.531  0.00  0.00    +0.009 A 
ATOM     13  C   UNL     1       1.823  -1.461  -3.588  0.00  0.00    -0.014 A 
ATOM     14  C   UNL     1       2.435  -1.939  -4.758  0.00  0.00    +0.054 A 
ATOM     15  C   UNL     1       3.785  -2.147  -4.777  0.00  0.00    +0.121 A 
ATOM     16  C   UNL     1       4.566  -1.892  -3.645  0.00  0.00    +0.046 A 
ATOM     17  C   UNL     1       4.003  -1.430  -2.497  0.00  0.00    +0.012 A 
ATOM     18  C   UNL     1       2.616  -1.203  -2.443  0.00  0.00    -0.017 A 
ATOM     19  C   UNL     1       2.003  -0.720  -1.274  0.00  0.00    +0.014 A 
BRANCH  15  20
ATOM     20  O   UNL     1       4.376  -2.609  -5.910  0.00  0.00    -0.495 OA
ATOM     21  C   UNL     1       5.791  -2.808  -5.868  0.00  0.00    +0.277 C 
ENDBRANCH  15  20
ENDBRANCH   2  10
BRANCH   5  22
ATOM     22  C   UNL     1      -2.569  -1.986   1.805  0.00  0.00    +0.213 C 
BRANCH  22  23
ATOM     23  C   UNL     1      -2.585  -3.391   1.260  0.00  0.00    +0.231 C 
ATOM     24  O   UNL     1      -1.707  -3.759   0.508  0.00  0.00    -0.274 OA
ATOM     25  N   UNL     1      -3.573  -4.239   1.608  0.00  0.00    -0.317 N 
ATOM     26  C   UNL     1      -3.588  -5.604   1.077  0.00  0.00    +0.128 C 
ATOM     27  H   UNL     1      -4.275  -3.944   2.209  0.00  0.00    +0.148 HD
ENDBRANCH  22  23
ENDBRANCH   5  22
TORSDOF 4
