REMARK  Name = ZINC06281859
REMARK  10 active torsions:
REMARK  status: ('A' for Active; 'I' for Inactive)
REMARK    1  A    between atoms: C_1  and  C_2
REMARK    2  A    between atoms: C_9  and  C_14
REMARK    3  A    between atoms: C_14  and  C_16
REMARK    4  A    between atoms: C_14  and  N_66
REMARK    5  A    between atoms: N_20  and  C_21
REMARK    6  A    between atoms: C_21  and  C_22
REMARK    7  A    between atoms: C_22  and  O_23
REMARK    8  A    between atoms: O_23  and  C_24
REMARK    9  A    between atoms: N_27  and  C_30
REMARK   10  A    between atoms: C_35  and  C_36
REMARK                            x       y       z     vdW  Elec       q    Type
REMARK                         _______ _______ _______ _____ _____    ______ ____
ROOT
ATOM      1  C   UNL     1       2.466   1.063  -0.015  0.00  0.00    +0.039 C 
ENDROOT
BRANCH   1  10
ATOM      2  C   UNL     1      -4.991   1.114   0.032  0.00  0.00    +0.044 C 
ATOM      3  C   UNL     1      -3.672   1.842   0.030  0.00  0.00    -0.050 A 
ATOM      4  C   UNL     1      -3.652   3.230   0.037  0.00  0.00    +0.005 A 
ATOM      5  C   UNL     1      -2.458   3.917   0.043  0.00  0.00    +0.026 A 
ATOM      6  C   UNL     1      -1.257   3.214   0.029  0.00  0.00    +0.049 A 
ATOM      7  C   UNL     1      -1.281   1.807   0.018  0.00  0.00    -0.001 A 
ATOM      8  C   UNL     1      -2.506   1.131   0.020  0.00  0.00    +0.013 A 
ATOM      9  C   UNL     1      -0.013   1.076   0.008  0.00  0.00    +0.017 A 
ATOM     10  C   UNL     1       1.143   1.785   0.001  0.00  0.00    +0.011 A 
ATOM     11  C   UNL     1       1.112   3.196   0.008  0.00  0.00    +0.251 A 
ATOM     12  O   UNL     1       2.163   3.813   0.001  0.00  0.00    -0.268 OA
ATOM     13  N   UNL     1      -0.048   3.876   0.022  0.00  0.00    -0.322 N 
ATOM     14  H   UNL     1      -0.033   4.845   0.026  0.00  0.00    +0.169 HD
ENDBRANCH   1  10
BRANCH   1  20
ATOM     15  C   UNL     1       2.536   1.356  -2.418  0.00  0.00    -0.058 C 
ATOM     16  C   UNL     1       3.368   1.927  -3.568  0.00  0.00    +0.086 C 
ATOM     17  N   UNL     1       4.668   1.244  -3.615  0.00  0.00    -0.333 N 
ATOM     18  C   UNL     1       5.398   1.419  -2.352  0.00  0.00    +0.086 C 
ATOM     19  C   UNL     1       4.566   0.848  -1.202  0.00  0.00    -0.058 C 
ATOM     20  N   UNL     1       3.271   1.559  -1.152  0.00  0.00    +0.391 N 
ATOM     21  H   UNL     1       3.446   2.562  -1.024  0.00  0.00    -0.080 HD
BRANCH  17  22
ATOM     22  C   UNL     1       5.429   1.689  -4.699  0.00  0.00    +0.034 A 
ATOM     23  C   UNL     1       5.840   3.014  -4.763  0.00  0.00    +0.043 A 
ATOM     24  C   UNL     1       6.595   3.451  -5.835  0.00  0.00    +0.043 A 
ATOM     25  C   UNL     1       6.935   2.570  -6.848  0.00  0.00    +0.020 A 
ATOM     26  C   UNL     1       6.523   1.252  -6.788  0.00  0.00    +0.006 A 
ATOM     27  C   UNL     1       5.771   0.809  -5.718  0.00  0.00    -0.029 A 
ATOM     28  C   UNL     1       5.323  -0.629  -5.654  0.00  0.00    +0.045 C 
ATOM     29 CL   UNL     1       7.114   5.105  -5.914  0.00  0.00    -0.083 Cl
ENDBRANCH  17  22
ENDBRANCH   1  20
BRANCH   1  30
ATOM     30  C   UNL     1       3.207   1.344   1.268  0.00  0.00    +0.143 A 
ATOM     31  N   UNL     1       3.827   2.454   1.587  0.00  0.00    -0.115 NA
ATOM     32  N   UNL     1       4.332   2.303   2.762  0.00  0.00    -0.023 NA
ATOM     33  N   UNL     1       4.057   1.124   3.198  0.00  0.00    -0.044 NA
ATOM     34  N   UNL     1       3.365   0.501   2.305  0.00  0.00    -0.228 N 
BRANCH  34  35
ATOM     35  C   UNL     1       2.848  -0.866   2.402  0.00  0.00    +0.175 C 
BRANCH  35  36
ATOM     36  C   UNL     1       3.883  -1.844   1.844  0.00  0.00    +0.183 C 
BRANCH  36  37
ATOM     37  O   UNL     1       3.379  -3.178   1.938  0.00  0.00    -0.381 OA
ATOM     38  C   UNL     1       4.274  -4.174   1.441  0.00  0.00    +0.194 C 
ENDBRANCH  36  37
ENDBRANCH  35  36
ENDBRANCH  34  35
ENDBRANCH   1  30
TORSDOF 7
