REMARK  Name = ZINC59115690
REMARK  16 active torsions:
REMARK  status: ('A' for Active; 'I' for Inactive)
REMARK    1  A    between atoms: C_1  and  C_2
REMARK    2  A    between atoms: C_2  and  C_3
REMARK    3  A    between atoms: C_6  and  N_9
REMARK    4  A    between atoms: N_9  and  C_10
REMARK    5  A    between atoms: C_10  and  N_12
REMARK    6  A    between atoms: N_12  and  C_13
REMARK    7  A    between atoms: C_13  and  C_14
REMARK    8  A    between atoms: C_14  and  C_35
REMARK    9  A    between atoms: C_16  and  N_23
REMARK   10  A    between atoms: C_19  and  C_21
REMARK   11  A    between atoms: C_19  and  C_22
REMARK   12  A    between atoms: N_23  and  C_24
REMARK   13  A    between atoms: C_24  and  N_26
REMARK   14  A    between atoms: N_26  and  C_27
REMARK   15  A    between atoms: C_30  and  C_33
REMARK   16  A    between atoms: C_33  and  C_34
REMARK                            x       y       z     vdW  Elec       q    Type
REMARK                         _______ _______ _______ _____ _____    ______ ____
ROOT
ATOM      1  C   UNL     1      -9.659  -3.530  -2.791  0.00  0.00    -0.014 C 
ATOM      2  C   UNL     1      -9.553  -4.646  -1.757  0.00  0.00    +0.030 C 
ATOM      3  C   UNL     1     -10.892  -5.361  -1.593  0.00  0.00    +0.073 C 
ATOM      4  C   UNL     1     -11.280  -5.994  -2.927  0.00  0.00    +0.028 C 
ATOM      5  C   UNL     1     -11.448  -4.928  -4.004  0.00  0.00    -0.033 C 
ATOM      6  C   UNL     1     -10.247  -4.007  -4.106  0.00  0.00    +0.014 C 
ATOM      7  C   UNL     1     -12.733  -4.133  -3.758  0.00  0.00    +0.011 C 
ATOM      8  C   UNL     1     -11.608  -5.653  -5.359  0.00  0.00    +0.011 C 
ATOM      9  C   UNL     1     -10.466  -2.361  -2.218  0.00  0.00    +0.013 C 
ENDROOT
BRANCH   3  10
ATOM     10  N   UNL     1     -10.751  -6.418  -0.582  0.00  0.00    -0.323 N 
ATOM     11  H   UNL     1      -9.880  -6.809  -0.408  0.00  0.00    +0.148 HD
BRANCH  10  12
ATOM     12  C   UNL     1     -11.831  -6.844   0.102  0.00  0.00    +0.135 C 
ATOM     13  S   UNL     1     -13.367  -6.153  -0.205  0.00  0.00    -0.019 S 
BRANCH  12  14
ATOM     14  N   UNL     1     -11.701  -7.814   1.030  0.00  0.00    -0.297 N 
ATOM     15  H   UNL     1     -10.821  -8.147   1.263  0.00  0.00    +0.154 HD
BRANCH  14  16
ATOM     16  C   UNL     1     -12.837  -8.339   1.655  0.00  0.00    +0.033 A 
ATOM     17  C   UNL     1     -13.983  -8.595   0.914  0.00  0.00    +0.023 A 
ATOM     18  C   UNL     1     -15.103  -9.115   1.534  0.00  0.00    +0.005 A 
ATOM     19  C   UNL     1     -15.083  -9.380   2.891  0.00  0.00    -0.048 A 
ATOM     20  C   UNL     1     -13.943  -9.126   3.632  0.00  0.00    +0.005 A 
ATOM     21  C   UNL     1     -12.818  -8.612   3.017  0.00  0.00    +0.023 A 
BRANCH  19  22
ATOM     22  C   UNL     1     -16.306  -9.946   3.565  0.00  0.00    +0.032 C 
ATOM     23  C   UNL     1     -16.249 -11.474   3.525  0.00  0.00    +0.009 C 
ENDBRANCH  19  22
ENDBRANCH  14  16
ENDBRANCH  12  14
ENDBRANCH  10  12
ENDBRANCH   3  10
BRANCH   1  24
ATOM     24  C   UNL     1      -8.231  -3.011  -3.067  0.00  0.00    +0.110 C 
BRANCH  24  25
ATOM     25  N   UNL     1      -7.631  -2.541  -1.816  0.00  0.00    -0.326 N 
ATOM     26  H   UNL     1      -8.135  -2.589  -0.989  0.00  0.00    +0.148 HD
BRANCH  25  27
ATOM     27  C   UNL     1      -6.379  -2.041  -1.815  0.00  0.00    +0.135 C 
ATOM     28  S   UNL     1      -5.490  -1.956  -3.275  0.00  0.00    -0.019 S 
BRANCH  27  29
ATOM     29  N   UNL     1      -5.828  -1.609  -0.664  0.00  0.00    -0.297 N 
ATOM     30  H   UNL     1      -6.297  -1.733   0.176  0.00  0.00    +0.154 HD
BRANCH  29  34
ATOM     31  C   UNL     1      -2.106   0.263  -0.711  0.00  0.00    -0.048 A 
ATOM     32  C   UNL     1      -3.035   0.549  -1.694  0.00  0.00    +0.005 A 
ATOM     33  C   UNL     1      -4.270  -0.069  -1.682  0.00  0.00    +0.023 A 
ATOM     34  C   UNL     1      -4.578  -0.980  -0.680  0.00  0.00    +0.033 A 
ATOM     35  C   UNL     1      -3.643  -1.266   0.307  0.00  0.00    +0.023 A 
ATOM     36  C   UNL     1      -2.408  -0.648   0.285  0.00  0.00    +0.005 A 
BRANCH  31  38
ATOM     37  C   UNL     1       0.222   0.102  -1.550  0.00  0.00    +0.009 C 
ATOM     38  C   UNL     1      -0.760   0.940  -0.728  0.00  0.00    +0.032 C 
ENDBRANCH  31  38
ENDBRANCH  29  34
ENDBRANCH  27  29
ENDBRANCH  25  27
ENDBRANCH  24  25
ENDBRANCH   1  24
TORSDOF 11
