REMARK  Name = ZINC02107401
REMARK  3 active torsions:
REMARK  status: ('A' for Active; 'I' for Inactive)
REMARK    1  A    between atoms: C_11  and  C_15
REMARK    2  A    between atoms: C_16  and  O_31
REMARK    3  A    between atoms: N_21  and  C_24
REMARK                            x       y       z     vdW  Elec       q    Type
REMARK                         _______ _______ _______ _____ _____    ______ ____
ROOT
ATOM      1  C   UNL     1       1.053   2.838   0.675  0.00  0.00    +0.068 A 
ATOM      2  C   UNL     1       1.173   1.668  -0.017  0.00  0.00    +0.199 A 
ATOM      3  N   UNL     1       0.083   1.161  -0.678  0.00  0.00    -0.306 N 
ATOM      4  H   UNL     1       0.164   0.329  -1.171  0.00  0.00    +0.171 HD
ATOM      5  C   UNL     1      -1.094   1.811  -0.651  0.00  0.00    +0.168 A 
ATOM      6  S   UNL     1      -2.437   1.160  -1.491  0.00  0.00    -0.012 S 
ATOM      7  N   UNL     1      -1.234   2.963   0.030  0.00  0.00    -0.256 N 
ATOM      8  C   UNL     1      -0.189   3.496   0.693  0.00  0.00    +0.265 A 
ATOM      9  O   UNL     1      -0.320   4.543   1.305  0.00  0.00    -0.267 OA
ENDROOT
BRANCH   1  20
ATOM     10  C   UNL     1       3.854   8.958  -0.382  0.00  0.00    +0.001 A 
ATOM     11  C   UNL     1       3.709   8.415  -1.648  0.00  0.00    +0.002 A 
ATOM     12  C   UNL     1       3.329   7.098  -1.847  0.00  0.00    +0.026 A 
ATOM     13  C   UNL     1       3.096   6.330  -0.708  0.00  0.00    +0.047 A 
ATOM     14  C   UNL     1       3.248   6.891   0.586  0.00  0.00    +0.003 A 
ATOM     15  C   UNL     1       3.631   8.225   0.757  0.00  0.00    +0.010 A 
ATOM     16  C   UNL     1       2.934   5.831   1.518  0.00  0.00    -0.022 A 
ATOM     17  C   UNL     1       2.623   4.736   0.788  0.00  0.00    +0.011 A 
ATOM     18  N   UNL     1       2.718   5.027  -0.546  0.00  0.00    -0.359 N 
ATOM     19  H   UNL     1       2.544   4.403  -1.267  0.00  0.00    +0.166 HD
ATOM     20  C   UNL     1       2.235   3.415   1.409  0.00  0.00    +0.018 C 
ATOM     21  C   UNL     1       2.925   4.400   3.521  0.00  0.00    -0.076 C 
ATOM     22  C   UNL     1       2.934   5.853   3.026  0.00  0.00    +0.018 C 
ATOM     23  N   UNL     1       1.866   3.641   2.824  0.00  0.00    +0.388 N 
ATOM     24  H   UNL     1       1.739   2.734   3.289  0.00  0.00    -0.084 HD
ATOM     25  H   UNL     1       0.988   4.171   2.864  0.00  0.00    -0.084 HD
ENDBRANCH   1  20
BRANCH   7  26
ATOM     26  C   UNL     1      -2.474   3.616   0.045  0.00  0.00    +0.052 A 
ATOM     27  C   UNL     1      -2.775   4.559  -0.929  0.00  0.00    +0.027 A 
ATOM     28  C   UNL     1      -3.999   5.198  -0.914  0.00  0.00    +0.017 A 
ATOM     29  C   UNL     1      -4.922   4.906   0.075  0.00  0.00    +0.018 A 
ATOM     30  C   UNL     1      -4.622   3.970   1.049  0.00  0.00    +0.017 A 
ATOM     31  C   UNL     1      -3.401   3.325   1.036  0.00  0.00    +0.027 A 
ATOM     32 BR   UNL     1      -6.594   5.788   0.095  0.00  0.00    -0.050 Br
ENDBRANCH   7  26
BRANCH   2  33
ATOM     33  O   UNL     1       2.354   1.016  -0.050  0.00  0.00    -0.493 OA
ATOM     34  H   UNL     1       2.337   0.198  -0.566  0.00  0.00    +0.294 HD
ENDBRANCH   2  33
TORSDOF 3
