REMARK  Name = ZINC41740187
REMARK  10 active torsions:
REMARK  status: ('A' for Active; 'I' for Inactive)
REMARK    1  A    between atoms: C_1  and  C_2
REMARK    2  A    between atoms: C_2  and  C_3
REMARK    3  A    between atoms: C_2  and  C_4
REMARK    4  A    between atoms: C_2  and  C_5
REMARK    5  A    between atoms: C_8  and  N_11
REMARK    6  A    between atoms: C_12  and  C_14
REMARK    7  A    between atoms: N_16  and  C_17
REMARK    8  A    between atoms: C_17  and  C_18
REMARK    9  A    between atoms: C_18  and  C_20
REMARK   10  A    between atoms: C_18  and  O_28
REMARK                            x       y       z     vdW  Elec       q    Type
REMARK                         _______ _______ _______ _____ _____    ______ ____
ROOT
ATOM      1  C   UNL     1       4.565  -1.804  -6.219  0.00  0.00    +0.299 C 
ATOM      2  O   UNL     1       3.972  -2.502  -7.016  0.00  0.00    -0.265 OA
ATOM      3  N   UNL     1       5.816  -1.383  -6.491  0.00  0.00    -0.305 N 
ATOM      4  H   UNL     1       6.289  -0.825  -5.855  0.00  0.00    +0.149 HD
ENDROOT
BRANCH   1   6
ATOM      5  N   UNL     1       2.657  -1.833  -4.664  0.00  0.00    -0.278 N 
ATOM      6  C   UNL     1       3.908  -1.412  -4.936  0.00  0.00    +0.303 C 
ATOM      7  O   UNL     1       4.500  -0.714  -4.140  0.00  0.00    -0.265 OA
ATOM      8  H   UNL     1       2.212  -2.452  -5.264  0.00  0.00    +0.155 HD
BRANCH   5  12
ATOM      9  C   UNL     1       0.702  -0.476  -1.247  0.00  0.00    -0.042 A 
ATOM     10  C   UNL     1       0.468  -1.757  -1.712  0.00  0.00    +0.006 A 
ATOM     11  C   UNL     1       1.115  -2.211  -2.845  0.00  0.00    +0.023 A 
ATOM     12  C   UNL     1       2.000  -1.378  -3.518  0.00  0.00    +0.034 A 
ATOM     13  C   UNL     1       2.232  -0.091  -3.048  0.00  0.00    +0.023 A 
ATOM     14  C   UNL     1       1.578   0.358  -1.917  0.00  0.00    +0.006 A 
BRANCH   9  16
ATOM     15  C   UNL     1      -0.853   1.240  -0.360  0.00  0.00    +0.015 C 
ATOM     16  C   UNL     1      -0.006   0.015  -0.010  0.00  0.00    -0.013 C 
ATOM     17  C   UNL     1       1.028   0.396   1.051  0.00  0.00    +0.015 C 
ATOM     18  C   UNL     1      -0.910  -1.093   0.534  0.00  0.00    +0.015 C 
ENDBRANCH   9  16
ENDBRANCH   5  12
ENDBRANCH   1   6
BRANCH   3  19
ATOM     19  C   UNL     1       6.460  -1.768  -7.749  0.00  0.00    +0.140 C 
BRANCH  19  20
ATOM     20  C   UNL     1       7.864  -1.163  -7.809  0.00  0.00    +0.162 C 
BRANCH  20  21
ATOM     21  C   UNL     1       8.481  -1.455  -9.153  0.00  0.00    -0.015 A 
ATOM     22  C   UNL     1       9.037  -2.696  -9.402  0.00  0.00    +0.009 A 
ATOM     23  C   UNL     1       9.603  -2.967 -10.634  0.00  0.00    +0.041 A 
ATOM     24  C   UNL     1       9.613  -1.995 -11.619  0.00  0.00    +0.158 A 
ATOM     25  C   UNL     1       9.055  -0.750 -11.369  0.00  0.00    +0.159 A 
ATOM     26  C   UNL     1       8.485  -0.484 -10.136  0.00  0.00    +0.047 A 
ATOM     27  F   UNL     1       9.065   0.200 -12.329  0.00  0.00    -0.202 F 
ATOM     28  F   UNL     1      10.166  -2.258 -12.823  0.00  0.00    -0.202 F 
ENDBRANCH  20  21
BRANCH  20  29
ATOM     29  O   UNL     1       8.674  -1.735  -6.779  0.00  0.00    -0.386 OA
ATOM     30  H   UNL     1       8.774  -2.694  -6.845  0.00  0.00    +0.210 HD
ENDBRANCH  20  29
ENDBRANCH  19  20
ENDBRANCH   3  19
TORSDOF 7
