REMARK  Name = ZINC02228294
REMARK  9 active torsions:
REMARK  status: ('A' for Active; 'I' for Inactive)
REMARK    1  A    between atoms: C_1  and  O_2
REMARK    2  A    between atoms: O_2  and  C_3
REMARK    3  A    between atoms: C_6  and  C_11
REMARK    4  A    between atoms: C_7  and  O_9
REMARK    5  A    between atoms: O_9  and  C_10
REMARK    6  A    between atoms: C_19  and  O_36
REMARK    7  A    between atoms: C_22  and  C_23
REMARK    8  A    between atoms: C_22  and  N_69
REMARK    9  A    between atoms: N_25  and  C_26
REMARK                            x       y       z     vdW  Elec       q    Type
REMARK                         _______ _______ _______ _____ _____    ______ ____
ROOT
ATOM      1  C   UNL     1       0.209   1.640   2.099  0.00  0.00    -0.028 C 
ATOM      2  C   UNL     1      -0.261   2.153   3.461  0.00  0.00    +0.011 C 
ATOM      3  C   UNL     1       0.800   1.867   4.524  0.00  0.00    +0.005 C 
ATOM      4  C   UNL     1       0.315   2.394   5.877  0.00  0.00    +0.000 C 
ATOM      5  C   UNL     1      -0.995   1.702   6.259  0.00  0.00    +0.003 C 
ATOM      6  C   UNL     1      -2.054   1.980   5.189  0.00  0.00    +0.035 C 
ATOM      7  C   UNL     1      -1.564   1.445   3.843  0.00  0.00    +0.066 C 
ATOM      8  C   UNL     1      -2.613   1.711   2.762  0.00  0.00    +0.016 C 
ATOM      9  C   UNL     1      -2.080   1.217   1.414  0.00  0.00    -0.075 C 
ATOM     10  N   UNL     1      -0.832   1.942   1.092  0.00  0.00    +0.390 N 
ATOM     11  H   UNL     1      -1.022   2.951   1.102  0.00  0.00    -0.080 HD
ENDROOT
BRANCH   1  15
ATOM     12  C   UNL     1       0.908  -2.574   2.325  0.00  0.00    +0.124 A 
ATOM     13  C   UNL     1      -0.378  -2.071   2.463  0.00  0.00    +0.046 A 
ATOM     14  C   UNL     1      -0.601  -0.710   2.395  0.00  0.00    +0.009 A 
ATOM     15  C   UNL     1       0.456   0.155   2.179  0.00  0.00    -0.019 A 
ATOM     16  C   UNL     1       1.744  -0.342   2.040  0.00  0.00    +0.125 A 
ATOM     17  C   UNL     1       1.970  -1.708   2.114  0.00  0.00    +0.091 A 
BRANCH  12  19
ATOM     18  C   UNL     1      -0.013  -4.745   2.618  0.00  0.00    +0.277 C 
ATOM     19  O   UNL     1       1.127  -3.913   2.398  0.00  0.00    -0.495 OA
ENDBRANCH  12  19
BRANCH  16  20
ATOM     20  O   UNL     1       2.782   0.509   1.832  0.00  0.00    -0.495 OA
ATOM     21  C   UNL     1       4.081  -0.072   1.699  0.00  0.00    +0.277 C 
ENDBRANCH  16  20
ENDBRANCH   1  15
BRANCH   7  22
ATOM     22  O   UNL     1      -1.331   0.039   3.945  0.00  0.00    -0.388 OA
ATOM     23  H   UNL     1      -2.127  -0.480   4.122  0.00  0.00    +0.210 HD
ENDBRANCH   7  22
BRANCH  10  24
ATOM     24  C   UNL     1      -0.359   1.557  -0.254  0.00  0.00    +0.020 C 
BRANCH  24  25
ATOM     25  C   UNL     1      -1.332   2.081  -1.278  0.00  0.00    +0.201 C 
ATOM     26  O   UNL     1      -2.319   2.690  -0.921  0.00  0.00    -0.278 OA
ATOM     27  N   UNL     1      -1.107   1.874  -2.590  0.00  0.00    -0.287 N 
ATOM     28  H   UNL     1      -0.289   1.438  -2.879  0.00  0.00    +0.155 HD
BRANCH  27  29
ATOM     29  C   UNL     1      -2.049   2.286  -3.534  0.00  0.00    +0.041 A 
ATOM     30  C   UNL     1      -2.785   3.433  -3.327  0.00  0.00    +0.024 A 
ATOM     31  C   UNL     1      -3.724   3.854  -4.264  0.00  0.00    +0.002 A 
ATOM     32  C   UNL     1      -3.948   3.144  -5.404  0.00  0.00    +0.008 A 
ATOM     33  C   UNL     1      -3.222   1.966  -5.651  0.00  0.00    -0.016 A 
ATOM     34  C   UNL     1      -2.260   1.529  -4.706  0.00  0.00    +0.003 A 
ATOM     35  C   UNL     1      -1.536   0.352  -4.954  0.00  0.00    +0.010 A 
ATOM     36  C   UNL     1      -1.767  -0.353  -6.095  0.00  0.00    +0.001 A 
ATOM     37  C   UNL     1      -2.712   0.076  -7.025  0.00  0.00    +0.001 A 
ATOM     38  C   UNL     1      -3.433   1.212  -6.818  0.00  0.00    +0.008 A 
ENDBRANCH  27  29
ENDBRANCH  24  25
ENDBRANCH  10  24
TORSDOF 7
