REMARK  Name = ZINC20728407
REMARK  5 active torsions:
REMARK  status: ('A' for Active; 'I' for Inactive)
REMARK    1  A    between atoms: C_1  and  O_2
REMARK    2  A    between atoms: O_2  and  C_3
REMARK    3  A    between atoms: C_3  and  C_5
REMARK    4  A    between atoms: C_9  and  N_11
REMARK    5  A    between atoms: C_23  and  C_25
REMARK                            x       y       z     vdW  Elec       q    Type
REMARK                         _______ _______ _______ _____ _____    ______ ____
ROOT
ATOM      1  N   UNL     1       2.397  -4.456  -4.350  0.00  0.00    -0.269 N 
ATOM      2  C   UNL     1       2.405  -5.751  -3.977  0.00  0.00    +0.307 C 
ATOM      3  O   UNL     1       1.948  -6.075  -2.898  0.00  0.00    -0.252 OA
ATOM      4  N   UNL     1       2.919  -6.686  -4.800  0.00  0.00    -0.272 N 
ATOM      5  C   UNL     1       3.562  -6.304  -6.066  0.00  0.00    +0.116 C 
ATOM      6  C   UNL     1       2.747  -6.873  -7.234  0.00  0.00    +0.074 C 
ATOM      7  C   UNL     1       2.391  -8.304  -6.927  0.00  0.00    +0.040 A 
ATOM      8  C   UNL     1       2.430  -8.862  -5.697  0.00  0.00    +0.062 A 
ATOM      9  N   UNL     1       2.048 -10.136  -5.806  0.00  0.00    -0.348 N 
ATOM     10  C   UNL     1       1.774 -10.394  -7.059  0.00  0.00    +0.171 A 
ATOM     11  N   UNL     1       1.979  -9.274  -7.790  0.00  0.00    -0.349 N 
ATOM     12  H   UNL     1       1.855  -9.180  -8.747  0.00  0.00    +0.166 HD
ATOM     13  C   UNL     1       2.856  -8.117  -4.450  0.00  0.00    +0.159 C 
ATOM     14  H   UNL     1       2.762  -4.197  -5.211  0.00  0.00    +0.156 HD
ATOM     15  H   UNL     1       1.982 -10.768  -5.074  0.00  0.00    +0.167 HD
ENDROOT
BRANCH  13  16
ATOM     16  C   UNL     1       4.212  -8.595  -3.999  0.00  0.00    +0.014 A 
ATOM     17  C   UNL     1       5.102  -9.116  -4.920  0.00  0.00    +0.010 A 
ATOM     18  C   UNL     1       6.346  -9.554  -4.508  0.00  0.00    +0.016 A 
ATOM     19  C   UNL     1       6.702  -9.472  -3.173  0.00  0.00    +0.021 A 
ATOM     20  C   UNL     1       5.814  -8.951  -2.251  0.00  0.00    +0.054 A 
ATOM     21  C   UNL     1       4.569  -8.506  -2.665  0.00  0.00    +0.130 A 
ATOM     22  F   UNL     1       3.702  -7.992  -1.765  0.00  0.00    -0.205 F 
ATOM     23 BR   UNL     1       8.405 -10.072  -2.611  0.00  0.00    -0.050 Br
ENDBRANCH  13  16
BRANCH   1  28
ATOM     24  C   UNL     1       1.824  -1.227  -2.665  0.00  0.00    +0.061 A 
ATOM     25  C   UNL     1       0.788  -1.571  -1.794  0.00  0.00    +0.015 A 
ATOM     26  C   UNL     1       0.299  -2.861  -1.780  0.00  0.00    +0.003 A 
ATOM     27  C   UNL     1       0.831  -3.817  -2.626  0.00  0.00    +0.023 A 
ATOM     28  C   UNL     1       1.862  -3.484  -3.496  0.00  0.00    +0.036 A 
ATOM     29  C   UNL     1       2.357  -2.190  -3.522  0.00  0.00    +0.038 A 
BRANCH  24  30
ATOM     30  C   UNL     1       2.349   0.154  -2.683  0.00  0.00    +0.339 C 
ATOM     31  O   UNL     1       3.247   0.452  -3.445  0.00  0.00    -0.245 OA
BRANCH  30  33
ATOM     32  C   UNL     1       2.389   2.396  -1.925  0.00  0.00    +0.280 C 
ATOM     33  O   UNL     1       1.833   1.082  -1.854  0.00  0.00    -0.464 OA
ENDBRANCH  30  33
ENDBRANCH  24  30
ENDBRANCH   1  28
TORSDOF 4
