REMARK  Name = ZINC49580250
REMARK  9 active torsions:
REMARK  status: ('A' for Active; 'I' for Inactive)
REMARK    1  A    between atoms: C_1  and  N_2
REMARK    2  A    between atoms: N_2  and  C_3
REMARK    3  A    between atoms: N_2  and  C_11
REMARK    4  A    between atoms: C_3  and  C_4
REMARK    5  A    between atoms: C_4  and  C_5
REMARK    6  A    between atoms: C_5  and  C_6
REMARK    7  A    between atoms: C_6  and  C_7
REMARK    8  A    between atoms: N_8  and  O_9
REMARK    9  A    between atoms: C_11  and  C_12
REMARK                            x       y       z     vdW  Elec       q    Type
REMARK                         _______ _______ _______ _____ _____    ______ ____
ROOT
ATOM      1  C   UNL     1      -0.018   1.465   0.010  0.00  0.00    -0.096 C 
ATOM      2  N   UNL     1       0.002  -0.004   0.002  0.00  0.00    +0.381 N 
ATOM      3  H   UNL     1       0.474  -0.330  -0.828  0.00  0.00    -0.082 HD
ENDROOT
BRANCH   2   4
ATOM      4  C   UNL     1       0.713  -0.491   1.192  0.00  0.00    -0.079 C 
BRANCH   4   5
ATOM      5  C   UNL     1       2.180  -0.066   1.119  0.00  0.00    -0.018 C 
BRANCH   5   6
ATOM      6  C   UNL     1       2.921  -0.572   2.359  0.00  0.00    +0.006 C 
BRANCH   6   7
ATOM      7  C   UNL     1       4.388  -0.147   2.286  0.00  0.00    +0.074 C 
BRANCH   7   8
ATOM      8  C   UNL     1       5.117  -0.646   3.506  0.00  0.00    +0.132 C 
ATOM      9  N   UNL     1       4.482  -1.321   4.407  0.00  0.00    -0.077 NA
ATOM     10  N   UNL     1       6.460  -0.384   3.662  0.00  0.00    -0.344 N 
ATOM     11  H   UNL     1       6.937   0.123   2.986  0.00  0.00    +0.144 HD
ATOM     12  H   UNL     1       6.929  -0.705   4.448  0.00  0.00    +0.144 HD
BRANCH   9  13
ATOM     13  O   UNL     1       5.167  -1.790   5.554  0.00  0.00    -0.408 OA
ATOM     14  H   UNL     1       4.610  -2.284   6.170  0.00  0.00    +0.328 HD
ENDBRANCH   9  13
ENDBRANCH   7   8
ENDBRANCH   6   7
ENDBRANCH   5   6
ENDBRANCH   4   5
ENDBRANCH   2   4
BRANCH   2  15
ATOM     15  C   UNL     1      -1.376  -0.512   0.012  0.00  0.00    -0.043 C 
BRANCH  15  16
ATOM     16  C   UNL     1      -2.067  -0.116  -1.267  0.00  0.00    -0.063 A 
ATOM     17  C   UNL     1      -2.751   1.084  -1.340  0.00  0.00    +0.002 A 
ATOM     18  C   UNL     1      -3.385   1.448  -2.513  0.00  0.00    +0.001 A 
ATOM     19  C   UNL     1      -3.337   0.612  -3.613  0.00  0.00    +0.015 A 
ATOM     20  C   UNL     1      -2.653  -0.588  -3.540  0.00  0.00    +0.018 A 
ATOM     21  C   UNL     1      -2.014  -0.949  -2.368  0.00  0.00    +0.017 A 
ATOM     22 BR   UNL     1      -2.587  -1.732  -5.045  0.00  0.00    -0.050 Br
ENDBRANCH  15  16
ENDBRANCH   2  15
TORSDOF 8
