REMARK  Name = ZINC64002304
REMARK  5 active torsions:
REMARK  status: ('A' for Active; 'I' for Inactive)
REMARK    1  A    between atoms: C_6  and  C_11
REMARK    2  A    between atoms: C_11  and  N_12
REMARK    3  A    between atoms: C_19  and  C_24
REMARK    4  A    between atoms: C_24  and  N_25
REMARK    5  A    between atoms: C_26  and  C_28
REMARK                            x       y       z     vdW  Elec       q    Type
REMARK                         _______ _______ _______ _____ _____    ______ ____
ROOT
ATOM      1  N   UNL     1       5.124  -2.633   1.277  0.00  0.00    -0.302 NA
ATOM      2  C   UNL     1       5.784  -3.320   0.137  0.00  0.00    +0.084 C 
ATOM      3  C   UNL     1       7.274  -3.477   0.351  0.00  0.00    +0.016 C 
ATOM      4  C   UNL     1       7.858  -2.208   0.968  0.00  0.00    +0.019 C 
ATOM      5  N   UNL     1       9.243  -1.980   0.500  0.00  0.00    -0.271 NA
ATOM      6  N   UNL     1       9.887  -1.260   1.605  0.00  0.00    -0.270 NA
ATOM      7  C   UNL     1       9.127  -1.589   2.831  0.00  0.00    +0.035 C 
ATOM      8  N   UNL     1       8.040  -2.509   2.425  0.00  0.00    +0.404 N 
ATOM      9  C   UNL     1       6.785  -2.246   3.074  0.00  0.00    -0.059 C 
ATOM     10  C   UNL     1       5.631  -3.101   2.563  0.00  0.00    +0.066 C 
ATOM     11  H   UNL     1       9.254  -1.430  -0.345  0.00  0.00    +0.139 HD
ATOM     12  H   UNL     1       9.888  -0.265   1.436  0.00  0.00    +0.139 HD
ATOM     13  H   UNL     1       8.327  -3.467   2.557  0.00  0.00    -0.077 HD
ENDROOT
BRANCH   1  14
ATOM     14  C   UNL     1       3.664  -2.775   1.204  0.00  0.00    +0.113 C 
BRANCH  14  20
ATOM     15  C   UNL     1      -0.016   1.348   0.009  0.00  0.00    +0.001 A 
ATOM     16  C   UNL     1       1.166   2.101   0.002  0.00  0.00    +0.002 A 
ATOM     17  C   UNL     1       2.391   1.535  -0.013  0.00  0.00    +0.026 A 
ATOM     18  C   UNL     1       2.529   0.120  -0.022  0.00  0.00    +0.043 A 
ATOM     19  N   UNL     1       3.587  -0.654  -0.037  0.00  0.00    -0.377 N 
ATOM     20  C   UNL     1       3.143  -2.053  -0.041  0.00  0.00    +0.117 C 
ATOM     21  C   UNL     1       1.631  -2.008  -0.025  0.00  0.00    +0.008 C 
ATOM     22  C   UNL     1       1.295  -0.698  -0.014  0.00  0.00    -0.004 A 
ATOM     23  C   UNL     1       0.002  -0.004   0.002  0.00  0.00    +0.010 A 
ATOM     24  H   UNL     1       4.509  -0.353  -0.045  0.00  0.00    +0.160 HD
ENDBRANCH  14  20
ENDBRANCH   1  14
BRANCH   7  25
ATOM     25  C   UNL     1      10.045  -2.265   3.852  0.00  0.00    +0.105 C 
BRANCH  25  26
ATOM     26  N   UNL     1      10.616  -3.480   3.265  0.00  0.00    -0.315 N 
ATOM     27  C   UNL     1      11.461  -4.243   3.987  0.00  0.00    +0.218 C 
ATOM     28  O   UNL     1      11.748  -3.925   5.121  0.00  0.00    -0.275 OA
ATOM     29  H   UNL     1      10.387  -3.735   2.358  0.00  0.00    +0.149 HD
BRANCH  27  30
ATOM     30  C   UNL     1      12.049  -5.493   3.384  0.00  0.00    +0.103 C 
ATOM     31  C   UNL     1      13.018  -6.172   4.381  0.00  0.00    +0.043 C 
ATOM     32  C   UNL     1      14.177  -6.619   3.455  0.00  0.00    +0.160 C 
ATOM     33  O   UNL     1      14.278  -5.543   2.498  0.00  0.00    -0.379 OA
ATOM     34  C   UNL     1      12.934  -5.142   2.172  0.00  0.00    +0.172 C 
ENDBRANCH  27  30
ENDBRANCH  25  26
ENDBRANCH   7  25
TORSDOF 5
