REMARK  Name = ZINC08788979
REMARK  8 active torsions:
REMARK  status: ('A' for Active; 'I' for Inactive)
REMARK    1  A    between atoms: C_1  and  C_2
REMARK    2  A    between atoms: C_2  and  C_3
REMARK    3  A    between atoms: C_3  and  C_4
REMARK    4  A    between atoms: C_4  and  C_5
REMARK    5  A    between atoms: C_8  and  N_11
REMARK    6  A    between atoms: C_16  and  C_34
REMARK    7  A    between atoms: C_27  and  C_32
REMARK    8  A    between atoms: C_34  and  C_35
REMARK                            x       y       z     vdW  Elec       q    Type
REMARK                         _______ _______ _______ _____ _____    ______ ____
ROOT
ATOM      1  N   UNL     1       3.396  -3.858  -5.935  0.00  0.00    -0.210 N 
ATOM      2  C   UNL     1       4.725  -3.988  -6.007  0.00  0.00    +0.228 C 
ATOM      3  O   UNL     1       5.503  -3.735  -5.112  0.00  0.00    -0.275 OA
ATOM      4  C   UNL     1       5.107  -4.498  -7.378  0.00  0.00    +0.074 C 
ATOM      5  C   UNL     1       5.856  -3.388  -8.145  0.00  0.00    -0.049 C 
ATOM      6  C   UNL     1       3.795  -3.590  -9.227  0.00  0.00    +0.050 C 
ATOM      7  C   UNL     1       3.739  -4.632  -8.104  0.00  0.00    +0.088 C 
ATOM      8  C   UNL     1       2.743  -4.199  -7.052  0.00  0.00    +0.229 C 
ATOM      9  O   UNL     1       1.540  -4.164  -7.198  0.00  0.00    -0.275 OA
ATOM     10  C   UNL     1       4.177  -4.215 -10.540  0.00  0.00    -0.027 A 
ATOM     11  C   UNL     1       5.275  -4.927 -10.966  0.00  0.00    +0.006 A 
ATOM     12  C   UNL     1       5.340  -5.384 -12.270  0.00  0.00    +0.020 A 
ATOM     13  C   UNL     1       4.299  -5.123 -13.144  0.00  0.00    +0.046 A 
ATOM     14  C   UNL     1       3.196  -4.409 -12.720  0.00  0.00    -0.011 A 
ATOM     15  C   UNL     1       3.123  -3.946 -11.409  0.00  0.00    +0.040 A 
ATOM     16  N   UNL     1       2.130  -3.216 -10.752  0.00  0.00    -0.286 N 
ATOM     17  C   UNL     1       2.448  -2.966  -9.467  0.00  0.00    +0.211 C 
ATOM     18  O   UNL     1       1.778  -2.356  -8.661  0.00  0.00    -0.277 OA
ATOM     19  C   UNL     1       2.067  -4.131 -13.679  0.00  0.00    +0.047 C 
ATOM     20 CL   UNL     1       4.381  -5.695 -14.781  0.00  0.00    -0.083 Cl
ATOM     21  H   UNL     1       1.306  -2.923 -11.173  0.00  0.00    +0.155 HD
ATOM     22  N   UNL     1       4.788  -2.623  -8.793  0.00  0.00    +0.394 N 
ATOM     23  H   UNL     1       5.160  -2.109  -9.601  0.00  0.00    -0.083 HD
ATOM     24  H   UNL     1       4.372  -1.960  -8.129  0.00  0.00    -0.083 HD
ENDROOT
BRANCH   1  28
ATOM     25  C   UNL     1       1.443  -2.514  -2.506  0.00  0.00    -0.047 A 
ATOM     26  C   UNL     1       1.281  -3.822  -2.924  0.00  0.00    +0.005 A 
ATOM     27  C   UNL     1       1.923  -4.269  -4.063  0.00  0.00    +0.024 A 
ATOM     28  C   UNL     1       2.739  -3.406  -4.781  0.00  0.00    +0.044 A 
ATOM     29  C   UNL     1       2.904  -2.095  -4.356  0.00  0.00    +0.024 A 
ATOM     30  C   UNL     1       2.256  -1.653  -3.219  0.00  0.00    +0.005 A 
BRANCH  25  31
ATOM     31  C   UNL     1       0.737  -2.029  -1.266  0.00  0.00    +0.035 C 
BRANCH  31  32
ATOM     32  C   UNL     1      -0.632  -1.461  -1.647  0.00  0.00    +0.004 C 
BRANCH  32  34
ATOM     33  C   UNL     1      -2.717  -0.401  -0.770  0.00  0.00    +0.004 C 
ATOM     34  C   UNL     1      -1.348  -0.968  -0.389  0.00  0.00    -0.003 C 
ENDBRANCH  32  34
ENDBRANCH  31  32
ENDBRANCH  25  31
ENDBRANCH   1  28
BRANCH   5  35
ATOM     35  C   UNL     1       6.656  -2.517  -7.175  0.00  0.00    +0.080 C 
BRANCH  35  36
ATOM     36  C   UNL     1       7.474  -1.519  -7.953  0.00  0.00    +0.209 C 
ATOM     37  O   UNL     1       7.422  -1.506  -9.165  0.00  0.00    -0.276 OA
ATOM     38  N   UNL     1       8.264  -0.641  -7.303  0.00  0.00    -0.329 N 
ATOM     39  H   UNL     1       8.305  -0.652  -6.333  0.00  0.00    +0.145 HD
ATOM     40  H   UNL     1       8.790   0.001  -7.804  0.00  0.00    +0.145 HD
ENDBRANCH  35  36
ENDBRANCH   5  35
TORSDOF 6
