REMARK  Name = ZINC39354724
REMARK  7 active torsions:
REMARK  status: ('A' for Active; 'I' for Inactive)
REMARK    1  A    between atoms: C_4  and  C_34
REMARK    2  A    between atoms: C_5  and  C_7
REMARK    3  A    between atoms: C_7  and  N_8
REMARK    4  A    between atoms: C_9  and  C_11
REMARK    5  A    between atoms: N_17  and  C_20
REMARK    6  A    between atoms: C_20  and  C_21
REMARK    7  A    between atoms: C_26  and  C_27
REMARK                            x       y       z     vdW  Elec       q    Type
REMARK                         _______ _______ _______ _____ _____    ______ ____
ROOT
ATOM      1  C   UNL     1       1.574  -4.299   2.752  0.00  0.00    +0.082 C 
ATOM      2  C   UNL     1       2.896  -4.954   3.161  0.00  0.00    +0.020 C 
ATOM      3  C   UNL     1       1.605  -5.772   3.156  0.00  0.00    -0.021 C 
ATOM      4  C   UNL     1       0.995  -6.156   4.508  0.00  0.00    -0.011 C 
ATOM      5  C   UNL     1      -0.456  -6.595   4.282  0.00  0.00    -0.078 C 
ATOM      6  N   UNL     1      -0.490  -7.692   3.308  0.00  0.00    +0.380 N 
ATOM      7  C   UNL     1      -0.054  -7.214   1.991  0.00  0.00    -0.078 C 
ATOM      8  C   UNL     1       1.425  -6.820   2.053  0.00  0.00    -0.011 C 
ATOM      9  H   UNL     1       0.124  -8.431   3.615  0.00  0.00    -0.082 HD
ENDROOT
BRANCH   1  11
ATOM     10  N   UNL     1       0.133  -3.919   0.778  0.00  0.00    -0.311 N 
ATOM     11  C   UNL     1       1.377  -3.982   1.292  0.00  0.00    +0.217 C 
ATOM     12  O   UNL     1       2.338  -3.783   0.580  0.00  0.00    -0.275 OA
ATOM     13  H   UNL     1      -0.636  -4.079   1.348  0.00  0.00    +0.149 HD
BRANCH  10  14
ATOM     14  C   UNL     1      -0.059  -3.611  -0.641  0.00  0.00    +0.140 C 
BRANCH  14  19
ATOM     15  C   UNL     1      -3.467  -4.692  -1.853  0.00  0.00    +0.000 A 
ATOM     16  C   UNL     1      -4.234  -3.584  -1.543  0.00  0.00    +0.001 A 
ATOM     17  C   UNL     1      -3.650  -2.485  -0.942  0.00  0.00    +0.013 A 
ATOM     18  C   UNL     1      -2.299  -2.494  -0.650  0.00  0.00    +0.059 A 
ATOM     19  C   UNL     1      -1.532  -3.602  -0.959  0.00  0.00    -0.019 A 
ATOM     20  C   UNL     1      -2.116  -4.700  -1.561  0.00  0.00    +0.006 A 
BRANCH  18  21
ATOM     21  C   UNL     1      -1.662  -1.295   0.005  0.00  0.00    +0.418 C 
ATOM     22  F   UNL     1      -2.631  -0.309   0.217  0.00  0.00    -0.166 F 
ATOM     23  F   UNL     1      -1.107  -1.675   1.232  0.00  0.00    -0.166 F 
ATOM     24  F   UNL     1      -0.656  -0.790  -0.825  0.00  0.00    -0.166 F 
ENDBRANCH  18  21
ENDBRANCH  14  19
ENDBRANCH  10  14
ENDBRANCH   1  11
BRANCH   6  25
ATOM     25  C   UNL     1      -1.861  -8.211   3.208  0.00  0.00    -0.063 C 
BRANCH  25  26
ATOM     26  C   UNL     1      -2.258  -8.860   4.536  0.00  0.00    +0.066 C 
ATOM     27  C   UNL     1      -1.464 -10.130   4.768  0.00  0.00    +0.115 C 
ATOM     28  N   UNL     1      -2.330 -11.089   4.825  0.00  0.00    -0.161 NA
ATOM     29  N   UNL     1      -3.635 -10.639   4.660  0.00  0.00    -0.153 NA
ATOM     30  C   UNL     1      -3.694  -9.344   4.486  0.00  0.00    +0.077 C 
BRANCH  30  31
ATOM     31  C   UNL     1      -4.899  -8.525   4.282  0.00  0.00    -0.001 A 
ATOM     32  C   UNL     1      -4.788  -7.142   4.103  0.00  0.00    +0.012 A 
ATOM     33  C   UNL     1      -5.921  -6.381   3.913  0.00  0.00    +0.039 A 
ATOM     34  C   UNL     1      -7.170  -6.984   3.899  0.00  0.00    +0.123 A 
ATOM     35  C   UNL     1      -7.287  -8.354   4.076  0.00  0.00    +0.039 A 
ATOM     36  C   UNL     1      -6.162  -9.127   4.261  0.00  0.00    +0.012 A 
ATOM     37  F   UNL     1      -8.277  -6.232   3.712  0.00  0.00    -0.205 F 
ENDBRANCH  30  31
ENDBRANCH  25  26
ENDBRANCH   6  25
TORSDOF 7
