REMARK  Name = ZINC31811454
REMARK  6 active torsions:
REMARK  status: ('A' for Active; 'I' for Inactive)
REMARK    1  A    between atoms: C_1  and  N_2
REMARK    2  A    between atoms: C_7  and  N_25
REMARK    3  A    between atoms: C_11  and  N_24
REMARK    4  A    between atoms: C_12  and  C_14
REMARK    5  A    between atoms: N_16  and  C_17
REMARK    6  A    between atoms: C_17  and  C_18
REMARK                            x       y       z     vdW  Elec       q    Type
REMARK                         _______ _______ _______ _____ _____    ______ ____
ROOT
ATOM      1  C   UNL     1      -0.634   1.556  11.555  0.00  0.00    +0.105 C 
ATOM      2  N   UNL     1      -0.899   1.526  10.110  0.00  0.00    -0.301 NA
ATOM      3  C   UNL     1       0.353   1.610   9.342  0.00  0.00    +0.089 C 
ATOM      4  C   UNL     1       0.058   1.224   7.891  0.00  0.00    +0.051 C 
ATOM      5  C   UNL     1      -1.133   1.995   7.388  0.00  0.00    -0.027 A 
ATOM      6  C   UNL     1      -1.995   2.626   8.224  0.00  0.00    +0.009 A 
ATOM      7  C   UNL     1      -3.095   3.321   7.701  0.00  0.00    +0.104 A 
ATOM      8  N   UNL     1      -3.301   3.371   6.395  0.00  0.00    -0.337 N 
ATOM      9  C   UNL     1      -2.484   2.775   5.553  0.00  0.00    +0.089 A 
ATOM     10  C   UNL     1      -1.351   2.051   5.985  0.00  0.00    +0.031 A 
ATOM     11  C   UNL     1      -0.557   1.456   4.922  0.00  0.00    +0.054 A 
ATOM     12  C   UNL     1      -0.964   1.641   3.618  0.00  0.00    +0.097 A 
ATOM     13  S   UNL     1      -2.433   2.636   3.783  0.00  0.00    -0.064 S 
ATOM     14  C   UNL     1      -1.809   2.608   9.720  0.00  0.00    +0.123 C 
ATOM     15  H   UNL     1      -4.167   3.918   5.995  0.00  0.00    +0.168 HD
ENDROOT
BRANCH   7  16
ATOM     16  N   UNL     1      -3.975   3.961   8.560  0.00  0.00    -0.312 N 
ATOM     17  C   UNL     1      -5.299   3.322   8.531  0.00  0.00    +0.134 C 
ATOM     18  C   UNL     1      -6.220   4.021   9.535  0.00  0.00    +0.178 C 
ATOM     19  O   UNL     1      -6.285   5.415   9.223  0.00  0.00    -0.377 OA
ATOM     20  C   UNL     1      -5.013   6.070   9.244  0.00  0.00    +0.178 C 
ATOM     21  C   UNL     1      -4.080   5.392   8.237  0.00  0.00    +0.134 C 
ENDBRANCH   7  16
BRANCH  12  22
ATOM     22  C   UNL     1      -0.357   1.162   2.433  0.00  0.00    +0.253 C 
ATOM     23  O   UNL     1       0.658   0.492   2.496  0.00  0.00    -0.270 OA
ATOM     24  N   UNL     1      -0.903   1.446   1.234  0.00  0.00    -0.308 N 
ATOM     25  H   UNL     1      -1.821   2.051   1.177  0.00  0.00    +0.149 HD
BRANCH  24  26
ATOM     26  C   UNL     1      -0.275   0.950   0.007  0.00  0.00    +0.136 C 
BRANCH  26  27
ATOM     27  C   UNL     1      -1.088   1.411  -1.205  0.00  0.00    +0.135 C 
ATOM     28  C   UNL     1      -0.436   0.894  -2.501  0.00  0.00    +0.035 C 
ATOM     29  C   UNL     1      -1.544   0.047  -3.172  0.00  0.00    +0.031 C 
ATOM     30  C   UNL     1      -2.827   0.601  -2.502  0.00  0.00    +0.160 C 
ATOM     31  O   UNL     1      -2.413   0.857  -1.143  0.00  0.00    -0.375 OA
ENDBRANCH  26  27
ENDBRANCH  24  26
ENDBRANCH  12  22
BRANCH  11  32
ATOM     32  N   UNL     1       0.583   0.719   5.214  0.00  0.00    -0.356 N 
ATOM     33  H   UNL     1       1.173   0.274   4.399  0.00  0.00    +0.142 HD
ATOM     34  H   UNL     1       0.895   0.579   6.259  0.00  0.00    +0.142 HD
ENDBRANCH  11  32
TORSDOF 5
