REMARK  Name = ZINC12996910
REMARK  8 active torsions:
REMARK  status: ('A' for Active; 'I' for Inactive)
REMARK    1  A    between atoms: C_1  and  C_2
REMARK    2  A    between atoms: C_5  and  N_8
REMARK    3  A    between atoms: C_9  and  C_11
REMARK    4  A    between atoms: C_11  and  N_46
REMARK    5  A    between atoms: C_12  and  N_46
REMARK    6  A    between atoms: C_13  and  C_14
REMARK    7  A    between atoms: C_13  and  N_46
REMARK    8  A    between atoms: C_17  and  C_19
REMARK                            x       y       z     vdW  Elec       q    Type
REMARK                         _______ _______ _______ _____ _____    ______ ____
ROOT
ATOM      1  C   UNL     1       4.558  -4.446   0.868  0.00  0.00    -0.095 C 
ATOM      2  N   UNL     1       3.826  -4.689  -0.392  0.00  0.00    +0.387 N 
ATOM      3  H   UNL     1       4.277  -4.160  -1.148  0.00  0.00    -0.081 HD
ENDROOT
BRANCH   2   4
ATOM      4  C   UNL     1       2.425  -4.236  -0.258  0.00  0.00    +0.019 C 
BRANCH   4   6
ATOM      5  N   UNL     1       1.237  -2.079  -0.020  0.00  0.00    -0.287 N 
ATOM      6  C   UNL     1       2.410  -2.734  -0.137  0.00  0.00    +0.201 C 
ATOM      7  O   UNL     1       3.452  -2.114  -0.144  0.00  0.00    -0.278 OA
ATOM      8  H   UNL     1       0.409  -2.578   0.062  0.00  0.00    +0.155 HD
BRANCH   5  13
ATOM      9  C   UNL     1       1.143   3.593  -0.015  0.00  0.00    +0.044 C 
ATOM     10  C   UNL     1       1.168   2.086  -0.017  0.00  0.00    -0.050 A 
ATOM     11  C   UNL     1       2.111   1.412  -0.771  0.00  0.00    +0.005 A 
ATOM     12  C   UNL     1       2.137   0.031  -0.774  0.00  0.00    +0.023 A 
ATOM     13  C   UNL     1       1.214  -0.680  -0.019  0.00  0.00    +0.033 A 
ATOM     14  C   UNL     1       0.268  -0.001   0.737  0.00  0.00    +0.023 A 
ATOM     15  C   UNL     1       0.248   1.380   0.736  0.00  0.00    +0.005 A 
ENDBRANCH   5  13
ENDBRANCH   4   6
ENDBRANCH   2   4
BRANCH   2  16
ATOM     16  C   UNL     1       3.861  -6.128  -0.727  0.00  0.00    -0.022 C 
BRANCH  16  17
ATOM     17  C   UNL     1       5.277  -6.512  -1.074  0.00  0.00    +0.033 A 
ATOM     18  C   UNL     1       6.088  -7.051  -0.125  0.00  0.00    +0.068 A 
ATOM     19  S   UNL     1       7.585  -7.297  -1.072  0.00  0.00    -0.075 S 
ATOM     20  C   UNL     1       6.971  -6.650  -2.622  0.00  0.00    +0.108 A 
ATOM     21  N   UNL     1       5.730  -6.322  -2.290  0.00  0.00    -0.246 NA
BRANCH  20  22
ATOM     22  C   UNL     1       7.662  -6.516  -3.922  0.00  0.00    +0.008 A 
ATOM     23  C   UNL     1       6.988  -5.982  -5.022  0.00  0.00    +0.010 A 
ATOM     24  C   UNL     1       7.639  -5.856  -6.231  0.00  0.00    +0.002 A 
ATOM     25  C   UNL     1       8.955  -6.266  -6.359  0.00  0.00    +0.015 A 
ATOM     26  C   UNL     1       9.627  -6.802  -5.274  0.00  0.00    +0.019 A 
ATOM     27  C   UNL     1       8.988  -6.929  -4.057  0.00  0.00    +0.025 A 
ATOM     28 BR   UNL     1      11.424  -7.361  -5.460  0.00  0.00    -0.050 Br
ENDBRANCH  20  22
ENDBRANCH  16  17
ENDBRANCH   2  16
TORSDOF 6
