REMARK  Name = ZINC50441521
REMARK  9 active torsions:
REMARK  status: ('A' for Active; 'I' for Inactive)
REMARK    1  A    between atoms: C_1  and  C_2
REMARK    2  A    between atoms: C_2  and  C_3
REMARK    3  A    between atoms: C_3  and  N_4
REMARK    4  A    between atoms: N_4  and  C_5
REMARK    5  A    between atoms: C_5  and  C_7
REMARK    6  A    between atoms: C_5  and  C_20
REMARK    7  A    between atoms: C_7  and  O_8
REMARK    8  A    between atoms: O_8  and  C_9
REMARK    9  A    between atoms: C_12  and  N_16
REMARK                            x       y       z     vdW  Elec       q    Type
REMARK                         _______ _______ _______ _____ _____    ______ ____
ROOT
ATOM      1  C   UNL     1      -2.774  -4.035  -0.119  0.00  0.00    +0.222 C 
ENDROOT
BRANCH   1   2
ATOM      2  C   UNL     1      -2.792  -2.511   0.015  0.00  0.00    +0.054 C 
BRANCH   2   3
ATOM      3  C   UNL     1      -3.458  -2.128   1.311  0.00  0.00    +0.200 C 
ATOM      4  O   UNL     1      -2.846  -1.495   2.144  0.00  0.00    -0.278 OA
ATOM      5  N   UNL     1      -4.735  -2.491   1.545  0.00  0.00    -0.331 N 
ATOM      6  H   UNL     1      -5.225  -2.998   0.879  0.00  0.00    +0.145 HD
ATOM      7  H   UNL     1      -5.165  -2.244   2.379  0.00  0.00    +0.145 HD
ENDBRANCH   2   3
BRANCH   2   8
ATOM      8  N   UNL     1      -1.413  -2.002   0.005  0.00  0.00    +0.389 N 
ATOM      9  H   UNL     1      -0.941  -2.328  -0.825  0.00  0.00    -0.085 HD
ATOM     10  H   UNL     1      -0.925  -2.337   0.822  0.00  0.00    -0.085 HD
BRANCH   8  11
ATOM     11  C   UNL     1      -1.433  -0.534   0.013  0.00  0.00    -0.082 C 
BRANCH  11  13
ATOM     12  C   UNL     1      -0.019   1.526   0.010  0.00  0.00    +0.002 C 
ATOM     13  C   UNL     1       0.002  -0.004   0.002  0.00  0.00    -0.022 C 
ENDBRANCH  11  13
ENDBRANCH   8  11
ENDBRANCH   2   8
ENDBRANCH   1   2
BRANCH   1  14
ATOM     14  O   UNL     1      -2.151  -4.607   1.033  0.00  0.00    -0.491 OA
BRANCH  14  15
ATOM     15  C   UNL     1      -2.054  -5.963   1.073  0.00  0.00    +0.148 A 
ATOM     16  C   UNL     1      -3.074  -6.716   1.635  0.00  0.00    +0.063 A 
ATOM     17  C   UNL     1      -2.973  -8.095   1.673  0.00  0.00    +0.051 A 
ATOM     18  C   UNL     1      -1.856  -8.722   1.153  0.00  0.00    +0.129 A 
ATOM     19  C   UNL     1      -0.838  -7.973   0.592  0.00  0.00    +0.051 A 
ATOM     20  C   UNL     1      -0.937  -6.595   0.546  0.00  0.00    +0.063 A 
ATOM     21 BR   UNL     1       0.453  -5.573  -0.229  0.00  0.00    -0.046 Br
ATOM     22 BR   UNL     1      -4.602  -5.859   2.348  0.00  0.00    -0.046 Br
BRANCH  18  23
ATOM     23  N   UNL     1      -1.750 -10.198   1.197  0.00  0.00    +0.056 N 
ATOM     24  O   UNL     1      -2.640 -10.853   1.687  0.00  0.00    -0.126 OA
ATOM     25  O   UNL     1      -0.774 -10.747   0.742  0.00  0.00    -0.126 OA
ENDBRANCH  18  23
ENDBRANCH  14  15
ENDBRANCH   1  14
TORSDOF 8
