REMARK  Name = ZINC59544373
REMARK  6 active torsions:
REMARK  status: ('A' for Active; 'I' for Inactive)
REMARK    1  A    between atoms: C_1  and  C_2
REMARK    2  A    between atoms: C_2  and  C_3
REMARK    3  A    between atoms: C_2  and  C_4
REMARK    4  A    between atoms: C_7  and  N_10
REMARK    5  A    between atoms: C_11  and  C_13
REMARK    6  A    between atoms: C_13  and  C_14
REMARK                            x       y       z     vdW  Elec       q    Type
REMARK                         _______ _______ _______ _____ _____    ______ ____
ROOT
ATOM      1  C   UNL     1      -7.236  -3.087  -1.052  0.00  0.00    +0.089 C 
ENDROOT
BRANCH   1   2
ATOM      2  C   UNL     1      -7.507  -3.855  -2.347  0.00  0.00    +0.025 C 
ATOM      3  C   UNL     1      -8.910  -4.390  -2.323  0.00  0.00    +0.200 C 
ATOM      4  O   UNL     1      -9.329  -4.878  -1.295  0.00  0.00    -0.278 OA
ATOM      5  N   UNL     1      -9.718  -4.349  -3.391  0.00  0.00    -0.315 N 
ATOM      6  C   UNL     1      -9.304  -3.749  -4.654  0.00  0.00    +0.059 C 
ATOM      7  C   UNL     1      -9.815  -4.566  -5.836  0.00  0.00    +0.020 C 
ATOM      8  C   UNL     1      -9.172  -5.954  -5.828  0.00  0.00    +0.002 C 
ATOM      9  C   UNL     1      -7.652  -5.803  -5.924  0.00  0.00    -0.001 C 
ATOM     10  C   UNL     1      -7.146  -5.015  -4.716  0.00  0.00    -0.014 C 
ATOM     11  C   UNL     1      -7.781  -3.645  -4.712  0.00  0.00    -0.050 C 
ATOM     12  N   UNL     1      -7.325  -2.954  -3.492  0.00  0.00    +0.390 N 
ATOM     13  H   UNL     1     -10.606  -4.732  -3.322  0.00  0.00    +0.149 HD
ATOM     14  H   UNL     1      -7.868  -2.115  -3.352  0.00  0.00    -0.084 HD
ATOM     15  H   UNL     1      -6.349  -2.717  -3.585  0.00  0.00    -0.084 HD
ENDBRANCH   1   2
BRANCH   1  17
ATOM     16  N   UNL     1      -5.320  -1.968   0.042  0.00  0.00    -0.286 N 
ATOM     17  C   UNL     1      -5.790  -2.663  -1.013  0.00  0.00    +0.216 C 
ATOM     18  O   UNL     1      -5.050  -2.946  -1.931  0.00  0.00    -0.276 OA
ATOM     19  H   UNL     1      -5.894  -1.799   0.806  0.00  0.00    +0.155 HD
BRANCH  16  23
ATOM     20  C   UNL     1      -1.405  -0.544   0.021  0.00  0.00    -0.045 A 
ATOM     21  C   UNL     1      -1.701  -1.757  -0.574  0.00  0.00    +0.006 A 
ATOM     22  C   UNL     1      -2.998  -2.232  -0.568  0.00  0.00    +0.023 A 
ATOM     23  C   UNL     1      -4.005  -1.490   0.035  0.00  0.00    +0.033 A 
ATOM     24  C   UNL     1      -3.704  -0.272   0.632  0.00  0.00    +0.023 A 
ATOM     25  C   UNL     1      -2.404   0.195   0.627  0.00  0.00    +0.006 A 
BRANCH  20  27
ATOM     26  C   UNL     1       0.922  -1.030   0.727  0.00  0.00    +0.012 C 
ATOM     27  C   UNL     1       0.011  -0.029   0.013  0.00  0.00    +0.013 C 
ATOM     28  C   UNL     1       0.482   0.147  -1.432  0.00  0.00    +0.012 C 
ENDBRANCH  20  27
ENDBRANCH  16  23
ENDBRANCH   1  17
TORSDOF 4
