REMARK  Name = ZINC01580935
REMARK  9 active torsions:
REMARK  status: ('A' for Active; 'I' for Inactive)
REMARK    1  A    between atoms: C_1  and  C_2
REMARK    2  A    between atoms: N_4  and  C_5
REMARK    3  A    between atoms: C_17  and  N_19
REMARK    4  A    between atoms: N_19  and  C_20
REMARK    5  A    between atoms: N_19  and  C_23
REMARK    6  A    between atoms: C_20  and  C_21
REMARK    7  A    between atoms: C_21  and  O_22
REMARK    8  A    between atoms: C_23  and  C_24
REMARK    9  A    between atoms: C_24  and  O_25
REMARK                            x       y       z     vdW  Elec       q    Type
REMARK                         _______ _______ _______ _____ _____    ______ ____
ROOT
ATOM      1  C   UNL     1      -1.161   1.753   0.145  0.00  0.00    +0.071 A 
ATOM      2  C   UNL     1      -1.045   3.118   0.383  0.00  0.00    +0.064 A 
ATOM      3  C   UNL     1      -2.175   3.896   0.515  0.00  0.00    +0.030 A 
ATOM      4  C   UNL     1      -3.442   3.314   0.421  0.00  0.00    -0.011 A 
ATOM      5  C   UNL     1      -3.550   1.945   0.188  0.00  0.00    -0.015 A 
ATOM      6  C   UNL     1      -2.419   1.169   0.051  0.00  0.00    +0.068 A 
ATOM      7 CL   UNL     1      -2.566  -0.536  -0.239  0.00  0.00    -0.081 Cl
ATOM      8  C   UNL     1      -5.021   1.608   0.136  0.00  0.00    +0.073 C 
ATOM      9  C   UNL     1      -5.754   2.907   0.360  0.00  0.00    -0.034 A 
ATOM     10  C   UNL     1      -4.798   3.906   0.527  0.00  0.00    -0.014 A 
ATOM     11  C   UNL     1      -5.210   5.222   0.753  0.00  0.00    +0.010 A 
ATOM     12  C   UNL     1      -6.553   5.524   0.810  0.00  0.00    +0.024 A 
ATOM     13  C   UNL     1      -7.502   4.523   0.643  0.00  0.00    +0.030 A 
ATOM     14  C   UNL     1      -7.097   3.212   0.418  0.00  0.00    +0.027 A 
ATOM     15 CL   UNL     1       0.526   3.845   0.509  0.00  0.00    -0.082 Cl
ENDROOT
BRANCH   1  19
ATOM     16  C   UNL     1       1.846   0.043  -1.341  0.00  0.00    +0.109 C 
ATOM     17  C   UNL     1       0.551   0.801  -1.207  0.00  0.00    +0.214 C 
ATOM     18  O   UNL     1       0.013   1.262  -2.191  0.00  0.00    -0.276 OA
ATOM     19  N   UNL     1      -0.011   0.966   0.007  0.00  0.00    -0.283 N 
ATOM     20  H   UNL     1       0.379   0.536   0.785  0.00  0.00    +0.155 HD
ENDBRANCH   1  19
BRANCH  13  21
ATOM     21  N   UNL     1      -8.862   4.833   0.701  0.00  0.00    -0.326 N 
BRANCH  21  22
ATOM     22  C   UNL     1      -9.289   6.214   0.938  0.00  0.00    +0.133 C 
BRANCH  22  23
ATOM     23  C   UNL     1      -9.443   6.938  -0.402  0.00  0.00    +0.174 C 
BRANCH  23  24
ATOM     24  O   UNL     1     -10.503   6.337  -1.149  0.00  0.00    -0.393 OA
ATOM     25  H   UNL     1     -10.657   6.747  -2.011  0.00  0.00    +0.209 HD
ENDBRANCH  23  24
ENDBRANCH  22  23
ENDBRANCH  21  22
BRANCH  21  26
ATOM     26  C   UNL     1      -9.863   3.777   0.524  0.00  0.00    +0.133 C 
BRANCH  26  27
ATOM     27  C   UNL     1     -10.206   3.167   1.884  0.00  0.00    +0.174 C 
BRANCH  27  28
ATOM     28  O   UNL     1     -10.838   4.153   2.703  0.00  0.00    -0.393 OA
ATOM     29  H   UNL     1     -11.084   3.835   3.582  0.00  0.00    +0.209 HD
ENDBRANCH  27  28
ENDBRANCH  26  27
ENDBRANCH  21  26
ENDBRANCH  13  21
TORSDOF 8
