REMARK  Name = ZINC10039594
REMARK  13 active torsions:
REMARK  status: ('A' for Active; 'I' for Inactive)
REMARK    1  A    between atoms: C_1  and  C_2
REMARK    2  A    between atoms: C_2  and  C_3
REMARK    3  A    between atoms: C_3  and  C_4
REMARK    4  A    between atoms: C_4  and  O_5
REMARK    5  A    between atoms: O_5  and  C_6
REMARK    6  A    between atoms: C_9  and  C_13
REMARK    7  A    between atoms: N_14  and  N_15
REMARK    8  A    between atoms: C_16  and  C_18
REMARK    9  A    between atoms: C_18  and  C_20
REMARK   10  A    between atoms: C_18  and  N_23
REMARK   11  A    between atoms: C_20  and  C_21
REMARK   12  A    between atoms: C_20  and  C_22
REMARK   13  A    between atoms: C_24  and  C_26
REMARK                            x       y       z     vdW  Elec       q    Type
REMARK                         _______ _______ _______ _____ _____    ______ ____
ROOT
ATOM      1  N   UNL     1      -2.539   4.099   0.036  0.00  0.00    -0.205 N 
ATOM      2  C   UNL     1      -2.555   5.446   0.044  0.00  0.00    +0.253 C 
ATOM      3  O   UNL     1      -1.512   6.065   0.042  0.00  0.00    -0.272 OA
ATOM      4  H   UNL     1      -3.373   3.604   0.038  0.00  0.00    +0.177 HD
ENDROOT
BRANCH   1   6
ATOM      5  C   UNL     1      -1.302   2.115   0.020  0.00  0.00    +0.138 C 
ATOM      6  N   UNL     1      -1.318   3.413   0.027  0.00  0.00    -0.188 NA
BRANCH   5  10
ATOM      7  C   UNL     1       2.400   0.037  -0.021  0.00  0.00    +0.134 A 
ATOM      8  C   UNL     1       2.385   1.426  -0.013  0.00  0.00    +0.047 A 
ATOM      9  C   UNL     1       1.186   2.104   0.002  0.00  0.00    +0.013 A 
ATOM     10  C   UNL     1      -0.017   1.393   0.010  0.00  0.00    -0.004 A 
ATOM     11  C   UNL     1       0.002  -0.004   0.002  0.00  0.00    +0.028 A 
ATOM     12  C   UNL     1       1.207  -0.675  -0.013  0.00  0.00    +0.060 A 
ATOM     13 BR   UNL     1       1.235  -2.566  -0.024  0.00  0.00    -0.046 Br
BRANCH   7  14
ATOM     14  O   UNL     1       3.585  -0.628  -0.036  0.00  0.00    -0.491 OA
BRANCH  14  15
ATOM     15  C   UNL     1       4.774   0.165  -0.043  0.00  0.00    +0.229 C 
BRANCH  15  16
ATOM     16  C   UNL     1       5.998  -0.752  -0.060  0.00  0.00    +0.041 C 
BRANCH  16  18
ATOM     17  C   UNL     1       8.496  -0.819  -0.085  0.00  0.00    +0.004 C 
ATOM     18  C   UNL     1       7.271   0.098  -0.068  0.00  0.00    -0.000 C 
ENDBRANCH  16  18
ENDBRANCH  15  16
ENDBRANCH  14  15
ENDBRANCH   7  14
ENDBRANCH   5  10
ENDBRANCH   1   6
BRANCH   2  19
ATOM     19  C   UNL     1      -3.869   6.184   0.054  0.00  0.00    +0.163 C 
BRANCH  19  20
ATOM     20  N   UNL     1      -3.619   7.628   0.061  0.00  0.00    -0.300 N 
ATOM     21  C   UNL     1      -4.548   8.475  -0.424  0.00  0.00    +0.245 C 
ATOM     22  O   UNL     1      -5.594   8.042  -0.866  0.00  0.00    -0.270 OA
ATOM     23  H   UNL     1      -2.784   7.973   0.414  0.00  0.00    +0.150 HD
BRANCH  21  24
ATOM     24  C   UNL     1      -4.295   9.932  -0.417  0.00  0.00    +0.038 A 
ATOM     25  C   UNL     1      -5.256  10.812  -0.918  0.00  0.00    +0.013 A 
ATOM     26  C   UNL     1      -5.014  12.170  -0.908  0.00  0.00    +0.002 A 
ATOM     27  C   UNL     1      -3.823  12.661  -0.404  0.00  0.00    +0.020 A 
ATOM     28  C   UNL     1      -2.866  11.794   0.095  0.00  0.00    +0.042 A 
ATOM     29  C   UNL     1      -3.098  10.433   0.096  0.00  0.00    +0.033 A 
ATOM     30 CL   UNL     1      -1.375  12.420   0.727  0.00  0.00    -0.084 Cl
ENDBRANCH  21  24
ENDBRANCH  19  20
BRANCH  19  31
ATOM     31  C   UNL     1      -4.661   5.798   1.305  0.00  0.00    +0.012 C 
ATOM     32  C   UNL     1      -3.915   6.282   2.550  0.00  0.00    +0.009 C 
ATOM     33  C   UNL     1      -6.045   6.449   1.254  0.00  0.00    +0.009 C 
ENDBRANCH  19  31
ENDBRANCH   2  19
TORSDOF 10
