REMARK  Name = ZINC63800245
REMARK  6 active torsions:
REMARK  status: ('A' for Active; 'I' for Inactive)
REMARK    1  A    between atoms: C_7  and  C_10
REMARK    2  A    between atoms: C_10  and  C_11
REMARK    3  A    between atoms: C_11  and  C_12
REMARK    4  A    between atoms: C_12  and  C_13
REMARK    5  A    between atoms: N_15  and  C_16
REMARK    6  A    between atoms: C_18  and  C_26
REMARK                            x       y       z     vdW  Elec       q    Type
REMARK                         _______ _______ _______ _____ _____    ______ ____
ROOT
ATOM      1  C   UNL     1      -1.195  -5.078  -2.879  0.00  0.00    +0.214 C 
ATOM      2  O   UNL     1      -1.066  -4.298  -3.799  0.00  0.00    -0.276 OA
ATOM      3  N   UNL     1      -1.544  -6.356  -3.122  0.00  0.00    -0.302 N 
ATOM      4  H   UNL     1      -1.647  -6.979  -2.386  0.00  0.00    +0.150 HD
ENDROOT
BRANCH   3   5
ATOM      5  C   UNL     1      -1.767  -6.805  -4.499  0.00  0.00    +0.151 C 
ATOM      6  C   UNL     1      -1.446  -8.308  -4.665  0.00  0.00    +0.132 C 
ATOM      7  C   UNL     1      -0.794  -8.594  -6.004  0.00  0.00    -0.046 C 
ATOM      8  C   UNL     1      -0.243  -7.578  -6.643  0.00  0.00    -0.013 C 
ATOM      9  S   UNL     1      -0.502  -6.121  -5.647  0.00  0.00    -0.106 S 
ATOM     10  C   UNL     1       0.391  -7.997  -7.949  0.00  0.00    +0.042 C 
ATOM     11  C   UNL     1       0.520  -9.532  -7.841  0.00  0.00    +0.009 C 
ATOM     12  C   UNL     1      -0.611  -9.861  -6.847  0.00  0.00    +0.033 C 
BRANCH   6  13
ATOM     13  C   UNL     1      -0.513  -8.737  -3.563  0.00  0.00    +0.220 C 
ATOM     14  O   UNL     1       0.684  -8.583  -3.687  0.00  0.00    -0.275 OA
ATOM     15  N   UNL     1      -1.007  -9.293  -2.439  0.00  0.00    -0.329 N 
ATOM     16  H   UNL     1      -1.956  -9.482  -2.368  0.00  0.00    +0.145 HD
ATOM     17  H   UNL     1      -0.414  -9.503  -1.700  0.00  0.00    +0.145 HD
ENDBRANCH   6  13
ENDBRANCH   3   5
BRANCH   1  18
ATOM     18  C   UNL     1      -0.965  -4.616  -1.463  0.00  0.00    +0.096 C 
BRANCH  18  19
ATOM     19  C   UNL     1      -0.583  -3.134  -1.465  0.00  0.00    +0.014 C 
BRANCH  19  20
ATOM     20  C   UNL     1      -0.349  -2.666  -0.027  0.00  0.00    +0.033 C 
BRANCH  20  27
ATOM     21  C   UNL     1      -2.808   1.171   0.514  0.00  0.00    +0.001 A 
ATOM     22  C   UNL     1      -2.044   2.344   0.438  0.00  0.00    +0.002 A 
ATOM     23  C   UNL     1      -0.711   2.333   0.226  0.00  0.00    +0.026 A 
ATOM     24  C   UNL     1      -0.018   1.101   0.068  0.00  0.00    +0.043 A 
ATOM     25  N   UNL     1       1.247   0.832  -0.145  0.00  0.00    -0.380 N 
ATOM     26  C   UNL     1       1.409  -0.624  -0.228  0.00  0.00    +0.144 C 
ATOM     27  C   UNL     1       0.027  -1.206  -0.030  0.00  0.00    -0.042 C 
ATOM     28  C   UNL     1      -0.803  -0.152   0.144  0.00  0.00    -0.001 A 
ATOM     29  C   UNL     1      -2.248  -0.053   0.378  0.00  0.00    +0.010 A 
ATOM     30  H   UNL     1       1.958   1.486  -0.233  0.00  0.00    +0.160 HD
ENDBRANCH  20  27
ENDBRANCH  19  20
ENDBRANCH  18  19
ENDBRANCH   1  18
TORSDOF 6
