REMARK  Name = ZINC08200362
REMARK  6 active torsions:
REMARK  status: ('A' for Active; 'I' for Inactive)
REMARK    1  A    between atoms: C_1  and  C_2
REMARK    2  A    between atoms: C_2  and  C_4
REMARK    3  A    between atoms: C_2  and  N_40
REMARK    4  A    between atoms: C_11  and  C_12
REMARK    5  A    between atoms: C_11  and  N_40
REMARK    6  A    between atoms: N_17  and  C_18
REMARK                            x       y       z     vdW  Elec       q    Type
REMARK                         _______ _______ _______ _____ _____    ______ ____
ROOT
ATOM      1  C   UNL     1       2.320   1.241   0.012  0.00  0.00    +0.203 C 
ATOM      2  O   UNL     1       2.335   0.029   0.002  0.00  0.00    -0.277 OA
ATOM      3  N   UNL     1       1.144   1.900   0.020  0.00  0.00    -0.241 N 
ATOM      4  C   UNL     1      -0.015   1.211   0.016  0.00  0.00    +0.310 C 
ATOM      5  O   UNL     1       0.001  -0.005   0.006  0.00  0.00    -0.252 OA
ATOM      6  N   UNL     1      -1.191   1.869   0.018  0.00  0.00    -0.267 N 
ATOM      7  H   UNL     1       1.131   2.870   0.028  0.00  0.00    +0.159 HD
ATOM      8  H   UNL     1      -1.205   2.836   0.091  0.00  0.00    +0.156 HD
ENDROOT
BRANCH   6   9
ATOM      9  C   UNL     1      -2.392   1.157  -0.086  0.00  0.00    +0.070 A 
ATOM     10  C   UNL     1      -2.511  -0.096   0.499  0.00  0.00    +0.026 A 
ATOM     11  C   UNL     1      -3.699  -0.794   0.399  0.00  0.00    +0.002 A 
ATOM     12  C   UNL     1      -4.767  -0.251  -0.291  0.00  0.00    +0.003 A 
ATOM     13  C   UNL     1      -4.652   0.995  -0.880  0.00  0.00    +0.040 A 
ATOM     14  C   UNL     1      -3.467   1.701  -0.780  0.00  0.00    +0.145 A 
ATOM     15  F   UNL     1      -3.354   2.918  -1.356  0.00  0.00    -0.204 F 
ENDBRANCH   6   9
BRANCH   1  16
ATOM     16  C   UNL     1       3.615   2.012   0.016  0.00  0.00    +0.016 C 
BRANCH  16  17
ATOM     17  N   UNL     1       4.743   1.061   0.006  0.00  0.00    +0.389 N 
ATOM     18  H   UNL     1       4.689   0.464   0.840  0.00  0.00    -0.084 HD
ATOM     19  H   UNL     1       4.687   0.478  -0.837  0.00  0.00    -0.084 HD
BRANCH  17  21
ATOM     20  C   UNL     1       6.412   2.136   1.450  0.00  0.00    -0.009 C 
ATOM     21  C   UNL     1       6.026   1.789   0.010  0.00  0.00    -0.043 C 
BRANCH  21  22
ATOM     22  C   UNL     1       7.092   0.916  -0.599  0.00  0.00    -0.062 A 
ATOM     23  C   UNL     1       7.124  -0.436  -0.313  0.00  0.00    +0.003 A 
ATOM     24  C   UNL     1       8.098  -1.239  -0.876  0.00  0.00    +0.020 A 
ATOM     25  C   UNL     1       9.048  -0.687  -1.718  0.00  0.00    +0.041 A 
ATOM     26  C   UNL     1       9.018   0.667  -1.999  0.00  0.00    +0.020 A 
ATOM     27  C   UNL     1       8.040   1.468  -1.440  0.00  0.00    +0.003 A 
ATOM     28 CL   UNL     1      10.276  -1.693  -2.419  0.00  0.00    -0.084 Cl
ENDBRANCH  21  22
ENDBRANCH  17  21
ENDBRANCH  16  17
ENDBRANCH   1  16
TORSDOF 5
