REMARK  Name = ZINC39946183
REMARK  8 active torsions:
REMARK  status: ('A' for Active; 'I' for Inactive)
REMARK    1  A    between atoms: C_1  and  C_2
REMARK    2  A    between atoms: C_7  and  N_12
REMARK    3  A    between atoms: C_9  and  C_11
REMARK    4  A    between atoms: C_13  and  C_15
REMARK    5  A    between atoms: C_15  and  S_16
REMARK    6  A    between atoms: S_16  and  C_17
REMARK    7  A    between atoms: C_21  and  C_30
REMARK    8  A    between atoms: N_22  and  C_23
REMARK                            x       y       z     vdW  Elec       q    Type
REMARK                         _______ _______ _______ _____ _____    ______ ____
ROOT
ATOM      1  C   UNL     1       2.359  -5.978   5.668  0.00  0.00    +0.241 C 
ATOM      2  N   UNL     1       2.165  -5.024   6.772  0.00  0.00    -0.237 N 
ATOM      3  N   UNL     1       3.364  -5.001   7.495  0.00  0.00    -0.169 NA
ATOM      4  C   UNL     1       4.247  -5.811   6.974  0.00  0.00    +0.151 C 
ATOM      5  N   UNL     1       3.736  -6.467   5.846  0.00  0.00    -0.254 N 
ATOM      6  H   UNL     1       1.364  -4.510   6.961  0.00  0.00    +0.171 HD
ENDROOT
BRANCH   4   7
ATOM      7  C   UNL     1       5.542  -6.002   7.480  0.00  0.00    +0.022 C 
ATOM      8  C   UNL     1       6.077  -5.464   8.651  0.00  0.00    +0.006 A 
ATOM      9  C   UNL     1       5.540  -4.615   9.642  0.00  0.00    +0.010 A 
ATOM     10  C   UNL     1       6.308  -4.244  10.699  0.00  0.00    +0.001 A 
ATOM     11  C   UNL     1       7.627  -4.683  10.835  0.00  0.00    +0.002 A 
ATOM     12  C   UNL     1       8.206  -5.500   9.921  0.00  0.00    +0.026 A 
ATOM     13  C   UNL     1       7.466  -5.930   8.790  0.00  0.00    +0.043 A 
ATOM     14  N   UNL     1       7.794  -6.710   7.778  0.00  0.00    -0.380 N 
ATOM     15  C   UNL     1       6.647  -6.839   6.875  0.00  0.00    +0.152 C 
ATOM     16  H   UNL     1       8.658  -7.134   7.653  0.00  0.00    +0.160 HD
ENDBRANCH   4   7
BRANCH   5  17
ATOM     17  C   UNL     1       4.402  -7.400   5.046  0.00  0.00    +0.038 A 
ATOM     18  C   UNL     1       4.284  -8.758   5.316  0.00  0.00    +0.025 A 
ATOM     19  C   UNL     1       4.942  -9.677   4.524  0.00  0.00    +0.022 A 
ATOM     20  C   UNL     1       5.719  -9.248   3.462  0.00  0.00    +0.041 A 
ATOM     21  C   UNL     1       5.839  -7.896   3.192  0.00  0.00    +0.022 A 
ATOM     22  C   UNL     1       5.178  -6.972   3.976  0.00  0.00    +0.025 A 
ATOM     23 CL   UNL     1       6.546 -10.407   2.469  0.00  0.00    -0.084 Cl
ENDBRANCH   5  17
BRANCH   1  24
ATOM     24  S   UNL     1       2.184  -5.143   4.068  0.00  0.00    -0.108 S 
BRANCH  24  25
ATOM     25  C   UNL     1       3.413  -3.810   4.132  0.00  0.00    +0.168 C 
BRANCH  25  27
ATOM     26  N   UNL     1       4.204  -1.982   2.666  0.00  0.00    -0.312 N 
ATOM     27  C   UNL     1       3.372  -3.027   2.845  0.00  0.00    +0.223 C 
ATOM     28  O   UNL     1       2.591  -3.337   1.971  0.00  0.00    -0.275 OA
ATOM     29  H   UNL     1       4.829  -1.734   3.365  0.00  0.00    +0.149 HD
BRANCH  26  35
ATOM     30  C   UNL     1       5.165   2.409   0.606  0.00  0.00    +0.008 C 
ATOM     31  C   UNL     1       4.644   0.992   0.357  0.00  0.00    -0.009 C 
ATOM     32  C   UNL     1       5.522   0.302  -0.688  0.00  0.00    +0.003 C 
ATOM     33  C   UNL     1       5.001  -1.115  -0.937  0.00  0.00    +0.002 C 
ATOM     34  C   UNL     1       5.043  -1.910   0.369  0.00  0.00    +0.022 C 
ATOM     35  C   UNL     1       4.164  -1.220   1.415  0.00  0.00    +0.076 C 
ATOM     36  C   UNL     1       4.685   0.197   1.664  0.00  0.00    +0.009 C 
ATOM     37  C   UNL     1       3.807   0.887   2.709  0.00  0.00    +0.009 C 
ENDBRANCH  26  35
ENDBRANCH  25  27
ENDBRANCH  24  25
ENDBRANCH   1  24
TORSDOF 6
