REMARK  Name = ZINC03951631
REMARK  8 active torsions:
REMARK  status: ('A' for Active; 'I' for Inactive)
REMARK    1  A    between atoms: C_10  and  C_13
REMARK    2  A    between atoms: C_13  and  C_15
REMARK    3  A    between atoms: C_13  and  O_32
REMARK    4  A    between atoms: C_15  and  N_53
REMARK    5  A    between atoms: C_16  and  C_17
REMARK    6  A    between atoms: C_16  and  N_53
REMARK    7  A    between atoms: C_17  and  C_19
REMARK    8  A    between atoms: C_17  and  O_31
REMARK                            x       y       z     vdW  Elec       q    Type
REMARK                         _______ _______ _______ _____ _____    ______ ____
ROOT
ATOM      1  N   UNL     1       0.729   7.634  -0.439  0.00  0.00    +0.383 N 
ATOM      2  H   UNL     1       0.704   7.814   0.572  0.00  0.00    -0.086 HD
ATOM      3  H   UNL     1       1.547   8.101  -0.849  0.00  0.00    -0.086 HD
ENDROOT
BRANCH   1   4
ATOM      4  C   UNL     1      -0.498   8.169  -1.059  0.00  0.00    -0.047 C 
BRANCH   4   5
ATOM      5  C   UNL     1      -0.575   9.675  -0.800  0.00  0.00    +0.138 C 
BRANCH   5  15
ATOM      6  C   UNL     1      -6.612   9.761  -0.672  0.00  0.00    +0.042 A 
ATOM      7  C   UNL     1      -5.328   9.279  -0.516  0.00  0.00    +0.049 A 
ATOM      8  C   UNL     1      -4.236  10.077  -0.838  0.00  0.00    +0.124 A 
ATOM      9  C   UNL     1      -4.440  11.358  -1.319  0.00  0.00    -0.003 A 
ATOM     10  C   UNL     1      -5.729  11.840  -1.473  0.00  0.00    +0.045 A 
ATOM     11  C   UNL     1      -6.814  11.044  -1.151  0.00  0.00    +0.124 A 
ATOM     12  F   UNL     1      -8.069  11.519  -1.304  0.00  0.00    -0.205 F 
ATOM     13  C   UNL     1      -3.283  12.252  -1.689  0.00  0.00    +0.042 C 
ATOM     14  C   UNL     1      -1.997  11.722  -1.049  0.00  0.00    +0.052 C 
ATOM     15  C   UNL     1      -1.904  10.217  -1.330  0.00  0.00    +0.200 C 
ATOM     16  O   UNL     1      -2.988   9.567  -0.666  0.00  0.00    -0.486 OA
ENDBRANCH   5  15
BRANCH   5  17
ATOM     17  O   UNL     1       0.507  10.329  -1.468  0.00  0.00    -0.390 OA
ATOM     18  H   UNL     1       0.510  10.204  -2.427  0.00  0.00    +0.210 HD
ENDBRANCH   5  17
ENDBRANCH   4   5
ENDBRANCH   1   4
BRANCH   1  19
ATOM     19  C   UNL     1       0.829   6.181  -0.673  0.00  0.00    -0.047 C 
BRANCH  19  20
ATOM     20  C   UNL     1       2.109   5.655  -0.020  0.00  0.00    +0.138 C 
BRANCH  20  21
ATOM     21  C   UNL     1       2.285   4.175  -0.363  0.00  0.00    +0.200 C 
ATOM     22  C   UNL     1       3.481   3.604   0.410  0.00  0.00    +0.052 C 
ATOM     23  C   UNL     1       3.697   2.156  -0.037  0.00  0.00    +0.042 C 
ATOM     24  C   UNL     1       2.383   1.417  -0.016  0.00  0.00    -0.003 A 
ATOM     25  C   UNL     1       2.398   0.032  -0.022  0.00  0.00    +0.045 A 
ATOM     26  C   UNL     1       1.211  -0.679  -0.013  0.00  0.00    +0.124 A 
ATOM     27  C   UNL     1       0.002  -0.004   0.002  0.00  0.00    +0.042 A 
ATOM     28  C   UNL     1      -0.017   1.375   0.010  0.00  0.00    +0.049 A 
ATOM     29  C   UNL     1       1.175   2.093   0.002  0.00  0.00    +0.124 A 
ATOM     30  O   UNL     1       1.115   3.450   0.019  0.00  0.00    -0.486 OA
ATOM     31  F   UNL     1       1.232  -2.029  -0.018  0.00  0.00    -0.205 F 
ENDBRANCH  20  21
BRANCH  20  32
ATOM     32  O   UNL     1       2.018   5.809   1.398  0.00  0.00    -0.390 OA
ATOM     33  H   UNL     1       1.278   5.333   1.798  0.00  0.00    +0.210 HD
ENDBRANCH  20  32
ENDBRANCH  19  20
ENDBRANCH   1  19
TORSDOF 8
