REMARK  Name = ZINC13998264
REMARK  7 active torsions:
REMARK  status: ('A' for Active; 'I' for Inactive)
REMARK    1  A    between atoms: C_1  and  C_2
REMARK    2  A    between atoms: C_7  and  C_8
REMARK    3  A    between atoms: C_15  and  C_16
REMARK    4  A    between atoms: C_15  and  N_56
REMARK    5  A    between atoms: C_16  and  C_18
REMARK    6  A    between atoms: C_16  and  O_25
REMARK    7  A    between atoms: C_27  and  O_29
REMARK                            x       y       z     vdW  Elec       q    Type
REMARK                         _______ _______ _______ _____ _____    ______ ____
ROOT
ATOM      1  C   UNL     1      -2.085   0.012   6.110  0.00  0.00    +0.044 C 
ATOM      2  C   UNL     1      -1.368  -0.117   4.791  0.00  0.00    -0.047 A 
ATOM      3  C   UNL     1      -2.069   0.017   3.608  0.00  0.00    +0.013 A 
ATOM      4  C   UNL     1      -1.417  -0.101   2.392  0.00  0.00    +0.023 A 
ATOM      5  C   UNL     1      -0.057  -0.357   2.362  0.00  0.00    +0.127 A 
ATOM      6  C   UNL     1       0.646  -0.491   3.555  0.00  0.00    +0.049 A 
ATOM      7  C   UNL     1      -0.009  -0.371   4.764  0.00  0.00    -0.044 A 
ATOM      8  C   UNL     1       0.756  -0.517   6.054  0.00  0.00    +0.044 C 
ATOM      9  O   UNL     1       0.623  -0.486   1.192  0.00  0.00    -0.485 OA
ATOM     10  C   UNL     1       0.002  -0.004   0.002  0.00  0.00    +0.110 C 
ATOM     11  C   UNL     1      -0.019   1.525   0.010  0.00  0.00    +0.029 C 
ATOM     12  C   UNL     1       1.419   2.052  -0.001  0.00  0.00    -0.075 C 
ATOM     13  C   UNL     1       2.190   0.090  -1.196  0.00  0.00    -0.075 C 
ATOM     14  C   UNL     1       0.776  -0.496  -1.222  0.00  0.00    +0.029 C 
ATOM     15  C   UNL     1      -1.434  -0.536  -0.054  0.00  0.00    +0.084 C 
ATOM     16  C   UNL     1      -2.214   0.059   1.122  0.00  0.00    +0.152 C 
ATOM     17  N   UNL     1       2.098   1.565  -1.220  0.00  0.00    +0.382 N 
ATOM     18  H   UNL     1       1.552   1.852  -2.042  0.00  0.00    -0.082 HD
ENDROOT
BRANCH  16  19
ATOM     19  O   UNL     1      -3.463  -0.623   1.256  0.00  0.00    -0.387 OA
ATOM     20  H   UNL     1      -4.013  -0.297   1.982  0.00  0.00    +0.210 HD
ENDBRANCH  16  19
BRANCH  17  21
ATOM     21  C   UNL     1       3.450   2.154  -1.313  0.00  0.00    -0.042 C 
BRANCH  21  22
ATOM     22  C   UNL     1       3.360   3.660  -1.060  0.00  0.00    +0.128 C 
BRANCH  22  23
ATOM     23  C   UNL     1       4.731   4.273  -1.181  0.00  0.00    -0.021 A 
ATOM     24  C   UNL     1       5.218   4.639  -2.422  0.00  0.00    +0.007 A 
ATOM     25  C   UNL     1       6.474   5.205  -2.532  0.00  0.00    +0.015 A 
ATOM     26  C   UNL     1       7.248   5.396  -1.402  0.00  0.00    +0.018 A 
ATOM     27  C   UNL     1       6.763   5.024  -0.161  0.00  0.00    +0.015 A 
ATOM     28  C   UNL     1       5.505   4.463  -0.051  0.00  0.00    +0.007 A 
ATOM     29 BR   UNL     1       8.969   6.165  -1.553  0.00  0.00    -0.050 Br
ENDBRANCH  22  23
BRANCH  22  30
ATOM     30  O   UNL     1       2.487   4.253  -2.023  0.00  0.00    -0.389 OA
ATOM     31  H   UNL     1       2.773   4.135  -2.939  0.00  0.00    +0.210 HD
ENDBRANCH  22  30
ENDBRANCH  21  22
ENDBRANCH  17  21
TORSDOF 5
