REMARK  Name = ZINC38002546
REMARK  8 active torsions:
REMARK  status: ('A' for Active; 'I' for Inactive)
REMARK    1  A    between atoms: C_1  and  C_2
REMARK    2  A    between atoms: C_2  and  C_4
REMARK    3  A    between atoms: C_2  and  N_14
REMARK    4  A    between atoms: C_7  and  S_10
REMARK    5  A    between atoms: S_10  and  N_13
REMARK    6  A    between atoms: N_14  and  C_15
REMARK    7  A    between atoms: C_15  and  C_17
REMARK    8  A    between atoms: C_15  and  C_18
REMARK                            x       y       z     vdW  Elec       q    Type
REMARK                         _______ _______ _______ _____ _____    ______ ____
ROOT
ATOM      1  C   UNL     1      -0.019   1.526   0.010  0.00  0.00    -0.009 C 
ATOM      2  C   UNL     1       0.002  -0.004   0.002  0.00  0.00    -0.043 C 
ENDROOT
BRANCH   2   3
ATOM      3  C   UNL     1       0.731  -0.503   1.223  0.00  0.00    -0.062 A 
ATOM      4  C   UNL     1       2.113  -0.514   1.247  0.00  0.00    +0.004 A 
ATOM      5  C   UNL     1       2.782  -0.972   2.366  0.00  0.00    +0.029 A 
ATOM      6  C   UNL     1       2.068  -1.419   3.463  0.00  0.00    +0.105 A 
ATOM      7  C   UNL     1       0.686  -1.407   3.439  0.00  0.00    +0.029 A 
ATOM      8  C   UNL     1       0.017  -0.945   2.321  0.00  0.00    +0.004 A 
BRANCH   6   9
ATOM      9  S   UNL     1       2.920  -2.003   4.890  0.00  0.00    +0.056 S 
ATOM     10  O   UNL     1       2.026  -2.874   5.569  0.00  0.00    -0.153 OA
ATOM     11  O   UNL     1       4.206  -2.422   4.452  0.00  0.00    -0.153 OA
BRANCH   9  12
ATOM     12  N   UNL     1       3.159  -0.702   5.885  0.00  0.00    -0.204 NA
ATOM     13  H   UNL     1       2.842   0.176   5.621  0.00  0.00    +0.144 HD
ATOM     14  H   UNL     1       3.617  -0.817   6.732  0.00  0.00    +0.144 HD
ENDBRANCH   9  12
ENDBRANCH   6   9
ENDBRANCH   2   3
BRANCH   2  15
ATOM     15  N   UNL     1       0.690  -0.478  -1.207  0.00  0.00    +0.388 N 
ATOM     16  H   UNL     1       1.608  -0.063  -1.256  0.00  0.00    -0.084 HD
ATOM     17  H   UNL     1       0.776  -1.482  -1.172  0.00  0.00    -0.084 HD
BRANCH  15  18
ATOM     18  C   UNL     1      -0.086  -0.093  -2.394  0.00  0.00    -0.036 C 
ATOM     19  C   UNL     1      -1.431  -0.821  -2.382  0.00  0.00    -0.008 C 
BRANCH  18  20
ATOM     20  C   UNL     1       0.679  -0.470  -3.637  0.00  0.00    -0.023 A 
ATOM     21  C   UNL     1       0.820   0.221  -4.794  0.00  0.00    +0.010 A 
ATOM     22  C   UNL     1       1.577  -0.326  -5.813  0.00  0.00    +0.023 A 
ATOM     23  C   UNL     1       2.155  -1.538  -5.625  0.00  0.00    +0.055 A 
ATOM     24  S   UNL     1       1.639  -1.939  -3.963  0.00  0.00    -0.088 S 
ATOM     25 BR   UNL     1       3.235  -2.540  -6.811  0.00  0.00    -0.043 Br
ENDBRANCH  18  20
ENDBRANCH  15  18
ENDBRANCH   2  15
TORSDOF 6
