REMARK  Name = ZINC43096144
REMARK  5 active torsions:
REMARK  status: ('A' for Active; 'I' for Inactive)
REMARK    1  A    between atoms: C_5  and  C_7
REMARK    2  A    between atoms: C_7  and  C_9
REMARK    3  A    between atoms: C_7  and  S_11
REMARK    4  A    between atoms: C_9  and  N_10
REMARK    5  A    between atoms: S_11  and  C_12
REMARK                            x       y       z     vdW  Elec       q    Type
REMARK                         _______ _______ _______ _____ _____    ______ ____
ROOT
ATOM      1  C   UNL     1       1.219  -2.191  -0.033  0.00  0.00    +0.068 C 
ENDROOT
BRANCH   1   6
ATOM      2  C   UNL     1       2.340   1.408   0.167  0.00  0.00    +0.000 A 
ATOM      3  C   UNL     1       1.135   2.079   0.069  0.00  0.00    +0.001 A 
ATOM      4  C   UNL     1      -0.043   1.369  -0.062  0.00  0.00    +0.015 A 
ATOM      5  C   UNL     1      -0.017  -0.014  -0.095  0.00  0.00    +0.022 A 
ATOM      6  C   UNL     1       1.189  -0.685   0.003  0.00  0.00    -0.022 A 
ATOM      7  C   UNL     1       2.367   0.027   0.134  0.00  0.00    +0.006 A 
ATOM      8 BR   UNL     1      -1.628  -0.987  -0.274  0.00  0.00    -0.050 Br
ENDBRANCH   1   6
BRANCH   1   9
ATOM      9  C   UNL     1       1.273  -2.666  -1.486  0.00  0.00    -0.067 C 
BRANCH   9  10
ATOM     10  N   UNL     1       1.174  -4.131  -1.526  0.00  0.00    +0.379 N 
ATOM     11  H   UNL     1       0.344  -4.426  -1.035  0.00  0.00    -0.090 HD
ATOM     12  H   UNL     1       1.124  -4.439  -2.486  0.00  0.00    -0.090 HD
ATOM     13  H   UNL     1       1.987  -4.535  -1.086  0.00  0.00    -0.090 HD
ENDBRANCH   9  10
ENDBRANCH   1   9
BRANCH   1  14
ATOM     14  S   UNL     1       2.684  -2.788   0.854  0.00  0.00    -0.082 S 
BRANCH  14  15
ATOM     15  C   UNL     1       2.361  -2.378   2.537  0.00  0.00    +0.169 A 
ATOM     16  N   UNL     1       1.191  -1.864   2.866  0.00  0.00    -0.232 NA
ATOM     17  C   UNL     1       0.907  -1.541   4.125  0.00  0.00    +0.119 A 
ATOM     18  C   UNL     1       1.832  -1.739   5.109  0.00  0.00    +0.090 A 
ATOM     19  C   UNL     1       3.081  -2.286   4.767  0.00  0.00    +0.252 A 
ATOM     20  N   UNL     1       3.321  -2.602   3.477  0.00  0.00    -0.302 N 
ATOM     21  O   UNL     1       3.931  -2.475   5.622  0.00  0.00    -0.268 OA
ATOM     22  H   UNL     1       4.174  -2.984   3.219  0.00  0.00    +0.171 HD
ENDBRANCH  14  15
ENDBRANCH   1  14
TORSDOF 5
