REMARK  Name = ZINC36032784
REMARK  13 active torsions:
REMARK  status: ('A' for Active; 'I' for Inactive)
REMARK    1  A    between atoms: C_1  and  C_2
REMARK    2  A    between atoms: C_2  and  C_3
REMARK    3  A    between atoms: C_3  and  C_5
REMARK    4  A    between atoms: C_3  and  C_6
REMARK    5  A    between atoms: C_6  and  N_7
REMARK    6  A    between atoms: C_10  and  C_29
REMARK    7  A    between atoms: N_16  and  C_19
REMARK    8  A    between atoms: C_19  and  N_21
REMARK    9  A    between atoms: N_21  and  C_22
REMARK   10  A    between atoms: C_26  and  C_28
REMARK   11  A    between atoms: C_29  and  C_30
REMARK   12  A    between atoms: C_30  and  C_31
REMARK   13  A    between atoms: C_30  and  C_32
REMARK                            x       y       z     vdW  Elec       q    Type
REMARK                         _______ _______ _______ _____ _____    ______ ____
ROOT
ATOM      1  N   UNL     1      -2.528  -2.189   0.137  0.00  0.00    -0.313 N 
ATOM      2  C   UNL     1      -3.369  -2.350   1.180  0.00  0.00    +0.200 C 
ATOM      3  O   UNL     1      -3.162  -1.989   2.319  0.00  0.00    -0.277 OA
ATOM      4  C   UNL     1      -4.612  -3.059   0.688  0.00  0.00    +0.019 C 
ATOM      5  N   UNL     1      -4.573  -2.913  -0.787  0.00  0.00    +0.401 N 
ATOM      6  C   UNL     1      -3.133  -2.757  -1.071  0.00  0.00    +0.006 C 
ATOM      7  C   UNL     1      -2.520  -4.122  -1.377  0.00  0.00    +0.025 C 
ATOM      8  C   UNL     1      -1.019  -3.960  -1.635  0.00  0.00    +0.107 C 
ATOM      9  N   UNL     1      -0.826  -2.953  -2.688  0.00  0.00    -0.312 N 
ATOM     10  C   UNL     1      -1.441  -1.629  -2.520  0.00  0.00    +0.107 C 
ATOM     11  C   UNL     1      -2.939  -1.810  -2.255  0.00  0.00    +0.025 C 
ATOM     12  H   UNL     1      -4.940  -3.739  -1.236  0.00  0.00    -0.082 HD
ATOM     13  H   UNL     1      -5.081  -2.091  -1.078  0.00  0.00    -0.082 HD
ENDROOT
BRANCH   9  14
ATOM     14  C   UNL     1      -0.100  -3.239  -3.787  0.00  0.00    +0.137 C 
ATOM     15  S   UNL     1       0.499  -4.824  -4.029  0.00  0.00    -0.018 S 
BRANCH  14  16
ATOM     16  N   UNL     1       0.155  -2.276  -4.695  0.00  0.00    -0.297 N 
ATOM     17  H   UNL     1      -0.366  -2.229  -5.511  0.00  0.00    +0.154 HD
BRANCH  16  18
ATOM     18  C   UNL     1       1.172  -1.344  -4.460  0.00  0.00    +0.033 A 
ATOM     19  C   UNL     1       1.993  -1.476  -3.347  0.00  0.00    +0.023 A 
ATOM     20  C   UNL     1       2.996  -0.555  -3.118  0.00  0.00    +0.002 A 
ATOM     21  C   UNL     1       3.183   0.498  -3.994  0.00  0.00    +0.003 A 
ATOM     22  C   UNL     1       2.367   0.633  -5.103  0.00  0.00    -0.049 A 
ATOM     23  C   UNL     1       1.366  -0.288  -5.340  0.00  0.00    +0.026 A 
ATOM     24  C   UNL     1       2.574   1.782  -6.055  0.00  0.00    +0.044 C 
ENDBRANCH  16  18
ENDBRANCH  14  16
ENDBRANCH   9  14
BRANCH   1  25
ATOM     25  C   UNL     1      -1.216  -1.540   0.201  0.00  0.00    +0.109 C 
BRANCH  25  26
ATOM     26  C   UNL     1      -1.401  -0.025   0.307  0.00  0.00    +0.003 C 
ATOM     27  C   UNL     1      -2.333   0.455  -0.807  0.00  0.00    +0.009 C 
BRANCH  26  29
ATOM     28  C   UNL     1      -0.209   2.169   0.399  0.00  0.00    +0.004 C 
ATOM     29  C   UNL     1      -0.043   0.666   0.168  0.00  0.00    +0.001 C 
ENDBRANCH  26  29
ENDBRANCH  25  26
ENDBRANCH   1  25
BRANCH   4  30
ATOM     30  C   UNL     1      -5.866  -2.391   1.259  0.00  0.00    -0.004 C 
BRANCH  30  31
ATOM     31  C   UNL     1      -5.902  -2.587   2.776  0.00  0.00    -0.018 C 
ATOM     32  C   UNL     1      -7.108  -1.845   3.357  0.00  0.00    +0.007 C 
ATOM     33  C   UNL     1      -6.019  -4.079   3.095  0.00  0.00    +0.007 C 
ENDBRANCH  30  31
ENDBRANCH   4  30
TORSDOF 8
