REMARK  Name = ZINC67315981
REMARK  9 active torsions:
REMARK  status: ('A' for Active; 'I' for Inactive)
REMARK    1  A    between atoms: C_1  and  C_2
REMARK    2  A    between atoms: C_2  and  C_25
REMARK    3  A    between atoms: C_4  and  N_10
REMARK    4  A    between atoms: C_6  and  C_8
REMARK    5  A    between atoms: C_6  and  C_9
REMARK    6  A    between atoms: C_11  and  C_13
REMARK    7  A    between atoms: N_15  and  C_16
REMARK    8  A    between atoms: C_21  and  O_22
REMARK    9  A    between atoms: O_22  and  C_23
REMARK                            x       y       z     vdW  Elec       q    Type
REMARK                         _______ _______ _______ _____ _____    ______ ____
ROOT
ATOM      1  N   UNL     1      -3.535  -0.941   1.023  0.00  0.00    -0.305 N 
ATOM      2  C   UNL     1      -4.542  -0.487   1.796  0.00  0.00    +0.300 C 
ATOM      3  O   UNL     1      -4.328   0.368   2.630  0.00  0.00    -0.265 OA
ATOM      4  H   UNL     1      -3.706  -1.625   0.356  0.00  0.00    +0.149 HD
ENDROOT
BRANCH   1   8
ATOM      5  C   UNL     1       0.006   1.489   0.048  0.00  0.00    -0.010 C 
ATOM      6  C   UNL     1       0.017  -0.043   0.037  0.00  0.00    -0.072 C 
ATOM      7  C   UNL     1      -1.406  -0.569  -0.118  0.00  0.00    +0.009 C 
ATOM      8  C   UNL     1      -2.181  -0.400   1.190  0.00  0.00    +0.071 C 
ATOM      9  C   UNL     1      -1.454  -1.189   2.279  0.00  0.00    +0.009 C 
ATOM     10  C   UNL     1      -0.030  -0.669   2.452  0.00  0.00    -0.072 C 
ATOM     11  N   UNL     1       0.703  -0.575   1.202  0.00  0.00    +0.386 N 
ATOM     12  C   UNL     1       0.719  -1.670   3.362  0.00  0.00    -0.010 C 
ATOM     13  C   UNL     1      -0.055   0.675   3.186  0.00  0.00    -0.010 C 
ATOM     14  C   UNL     1       0.810  -0.482  -1.216  0.00  0.00    -0.010 C 
ATOM     15  H   UNL     1       1.057  -1.507   0.967  0.00  0.00    -0.084 HD
ATOM     16  H   UNL     1       1.543  -0.011   1.364  0.00  0.00    -0.084 HD
ENDBRANCH   1   8
BRANCH   2  17
ATOM     17  C   UNL     1      -5.920  -1.037   1.626  0.00  0.00    +0.303 C 
ATOM     18  O   UNL     1      -6.134  -1.893   0.792  0.00  0.00    -0.265 OA
ATOM     19  N   UNL     1      -6.927  -0.583   2.399  0.00  0.00    -0.275 N 
ATOM     20  H   UNL     1      -6.744   0.052   3.109  0.00  0.00    +0.155 HD
BRANCH  19  21
ATOM     21  C   UNL     1      -8.234  -1.029   2.178  0.00  0.00    +0.077 A 
ATOM     22  C   UNL     1      -8.463  -2.333   1.760  0.00  0.00    +0.027 A 
ATOM     23  C   UNL     1      -9.755  -2.771   1.542  0.00  0.00    +0.003 A 
ATOM     24  C   UNL     1     -10.823  -1.914   1.739  0.00  0.00    +0.024 A 
ATOM     25  C   UNL     1     -10.603  -0.613   2.155  0.00  0.00    +0.084 A 
ATOM     26  C   UNL     1      -9.310  -0.168   2.383  0.00  0.00    +0.159 A 
ATOM     27 CL   UNL     1     -11.946   0.459   2.401  0.00  0.00    -0.080 Cl
BRANCH  26  28
ATOM     28  O   UNL     1      -9.091   1.109   2.798  0.00  0.00    -0.492 OA
ATOM     29  C   UNL     1      -8.912   2.099   1.784  0.00  0.00    +0.277 C 
ENDBRANCH  26  28
ENDBRANCH  19  21
ENDBRANCH   2  17
TORSDOF 4
