REMARK  Name = ZINC49971171
REMARK  9 active torsions:
REMARK  status: ('A' for Active; 'I' for Inactive)
REMARK    1  A    between atoms: C_1  and  N_2
REMARK    2  A    between atoms: N_2  and  C_3
REMARK    3  A    between atoms: N_2  and  C_13
REMARK    4  A    between atoms: C_3  and  C_4
REMARK    5  A    between atoms: C_5  and  C_9
REMARK    6  A    between atoms: C_10  and  C_11
REMARK    7  A    between atoms: C_11  and  N_12
REMARK    8  A    between atoms: C_17  and  O_19
REMARK    9  A    between atoms: O_19  and  C_20
REMARK                            x       y       z     vdW  Elec       q    Type
REMARK                         _______ _______ _______ _____ _____    ______ ____
ROOT
ATOM      1  C   UNL     1      -1.412  -1.067   1.619  0.00  0.00    +0.022 A 
ATOM      2  C   UNL     1      -2.243  -0.271   2.361  0.00  0.00    +0.037 A 
ATOM      3  C   UNL     1      -3.547  -0.705   2.589  0.00  0.00    +0.025 A 
ATOM      4  C   UNL     1      -3.943  -1.890   2.075  0.00  0.00    +0.047 A 
ATOM      5  S   UNL     1      -2.474  -2.447   1.229  0.00  0.00    -0.099 S 
ENDROOT
BRANCH   2   6
ATOM      6  C   UNL     1      -1.783   0.979   2.888  0.00  0.00    -0.067 C 
ATOM      7  C   UNL     1      -1.406   2.003   3.321  0.00  0.00    -0.117 C 
BRANCH   7   8
ATOM      8  C   UNL     1      -0.933   3.287   3.863  0.00  0.00    +0.005 C 
BRANCH   8   9
ATOM      9  N   UNL     1      -2.020   3.932   4.612  0.00  0.00    +0.385 N 
ATOM     10  H   UNL     1      -2.803   4.095   3.996  0.00  0.00    -0.089 HD
ATOM     11  H   UNL     1      -2.308   3.332   5.370  0.00  0.00    -0.089 HD
ATOM     12  H   UNL     1      -1.696   4.812   4.984  0.00  0.00    -0.089 HD
ENDBRANCH   8   9
ENDBRANCH   7   8
ENDBRANCH   2   6
BRANCH   1  13
ATOM     13  C   UNL     1       0.025  -0.836   1.229  0.00  0.00    +0.148 C 
BRANCH  13  15
ATOM     14  C   UNL     1       0.047   1.216  -0.264  0.00  0.00    +0.129 C 
ATOM     15  N   UNL     1       0.078  -0.241  -0.108  0.00  0.00    -0.328 N 
BRANCH  15  16
ATOM     16  C   UNL     1       0.159  -1.062  -1.235  0.00  0.00    +0.033 A 
ATOM     17  C   UNL     1       0.087  -2.443  -1.097  0.00  0.00    +0.023 A 
ATOM     18  C   UNL     1       0.166  -3.255  -2.211  0.00  0.00    +0.005 A 
ATOM     19  C   UNL     1       0.317  -2.697  -3.466  0.00  0.00    +0.046 A 
ATOM     20  C   UNL     1       0.389  -1.318  -3.611  0.00  0.00    +0.122 A 
ATOM     21  C   UNL     1       0.305  -0.500  -2.496  0.00  0.00    +0.068 A 
BRANCH  20  22
ATOM     22  O   UNL     1       0.537  -0.771  -4.846  0.00  0.00    -0.495 OA
ATOM     23  C   UNL     1       0.612  -1.675  -5.951  0.00  0.00    +0.277 C 
ENDBRANCH  20  22
ENDBRANCH  15  16
ENDBRANCH  13  15
ENDBRANCH   1  13
TORSDOF 7
