REMARK  Name = ZINC66156377
REMARK  15 active torsions:
REMARK  status: ('A' for Active; 'I' for Inactive)
REMARK    1  A    between atoms: C_1  and  C_2
REMARK    2  A    between atoms: C_2  and  C_3
REMARK    3  A    between atoms: C_2  and  C_4
REMARK    4  A    between atoms: C_2  and  C_5
REMARK    5  A    between atoms: C_7  and  O_29
REMARK    6  A    between atoms: C_10  and  O_11
REMARK    7  A    between atoms: O_11  and  C_12
REMARK    8  A    between atoms: C_12  and  C_13
REMARK    9  A    between atoms: C_13  and  C_15
REMARK   10  A    between atoms: C_13  and  O_28
REMARK   11  A    between atoms: C_15  and  N_16
REMARK   12  A    between atoms: C_20  and  C_23
REMARK   13  A    between atoms: C_23  and  C_24
REMARK   14  A    between atoms: C_24  and  C_25
REMARK   15  A    between atoms: O_29  and  C_30
REMARK                            x       y       z     vdW  Elec       q    Type
REMARK                         _______ _______ _______ _____ _____    ______ ____
ROOT
ATOM      1  C   UNL     1      -0.170  -4.976   0.197  0.00  0.00    +0.135 C 
ENDROOT
BRANCH   1   2
ATOM      2  O   UNL     1       0.495  -4.683   1.428  0.00  0.00    -0.390 OA
ATOM      3  H   UNL     1       1.444  -4.864   1.415  0.00  0.00    +0.210 HD
ENDBRANCH   1   2
BRANCH   1   4
ATOM      4  C   UNL     1       0.436  -4.128  -0.923  0.00  0.00    +0.258 C 
BRANCH   4   5
ATOM      5  O   UNL     1       0.173  -2.746  -0.670  0.00  0.00    -0.489 OA
BRANCH   5  11
ATOM      6  C   UNL     1       0.426  -0.494  -1.394  0.00  0.00    +0.003 A 
ATOM      7  C   UNL     1       0.913   0.415  -2.313  0.00  0.00    +0.053 A 
ATOM      8  C   UNL     1       1.617  -0.029  -3.422  0.00  0.00    +0.121 A 
ATOM      9  C   UNL     1       1.832  -1.386  -3.609  0.00  0.00    +0.049 A 
ATOM     10  C   UNL     1       1.346  -2.296  -2.690  0.00  0.00    +0.049 A 
ATOM     11  C   UNL     1       0.647  -1.851  -1.578  0.00  0.00    +0.125 A 
BRANCH   6  13
ATOM     12  C   UNL     1      -0.439   1.514  -0.225  0.00  0.00    +0.015 C 
ATOM     13  C   UNL     1      -0.338  -0.012  -0.188  0.00  0.00    -0.009 C 
ATOM     14  C   UNL     1       0.392  -0.444   1.085  0.00  0.00    +0.015 C 
ATOM     15  C   UNL     1      -1.744  -0.616  -0.200  0.00  0.00    +0.015 C 
ENDBRANCH   6  13
BRANCH   8  16
ATOM     16  O   UNL     1       2.095   0.867  -4.327  0.00  0.00    -0.495 OA
ATOM     17  C   UNL     1       2.811   0.339  -5.446  0.00  0.00    +0.277 C 
ENDBRANCH   8  16
ENDBRANCH   5  11
ENDBRANCH   4   5
ENDBRANCH   1   4
BRANCH   1  18
ATOM     18  C   UNL     1       0.003  -6.459  -0.136  0.00  0.00    -0.044 C 
BRANCH  18  19
ATOM     19  N   UNL     1      -0.592  -7.273   0.932  0.00  0.00    +0.382 N 
ATOM     20  C   UNL     1      -0.292  -8.690   0.691  0.00  0.00    -0.079 C 
ATOM     21  C   UNL     1      -0.839  -9.534   1.843  0.00  0.00    -0.018 C 
ATOM     22  C   UNL     1      -2.356  -9.341   1.935  0.00  0.00    -0.000 C 
ATOM     23  C   UNL     1      -2.660  -7.851   2.112  0.00  0.00    -0.027 C 
ATOM     24  C   UNL     1      -2.045  -7.068   0.950  0.00  0.00    -0.075 C 
ATOM     25  H   UNL     1      -0.203  -6.996   1.821  0.00  0.00    -0.082 HD
BRANCH  23  26
ATOM     26  C   UNL     1      -4.175  -7.637   2.128  0.00  0.00    +0.011 C 
BRANCH  26  27
ATOM     27  C   UNL     1      -4.774  -8.321   3.359  0.00  0.00    +0.096 C 
BRANCH  27  28
ATOM     28  C   UNL     1      -6.266  -8.111   3.374  0.00  0.00    +0.210 C 
ATOM     29  O   UNL     1      -6.798  -7.476   2.488  0.00  0.00    -0.276 OA
ATOM     30  N   UNL     1      -7.009  -8.628   4.373  0.00  0.00    -0.329 N 
ATOM     31  H   UNL     1      -6.583  -9.136   5.081  0.00  0.00    +0.145 HD
ATOM     32  H   UNL     1      -7.970  -8.493   4.383  0.00  0.00    +0.145 HD
ENDBRANCH  27  28
ENDBRANCH  26  27
ENDBRANCH  23  26
ENDBRANCH  18  19
ENDBRANCH   1  18
TORSDOF 11
