REMARK  Name = ZINC63425109
REMARK  13 active torsions:
REMARK  status: ('A' for Active; 'I' for Inactive)
REMARK    1  A    between atoms: C_1  and  C_2
REMARK    2  A    between atoms: C_5  and  C_8
REMARK    3  A    between atoms: C_8  and  S_9
REMARK    4  A    between atoms: S_9  and  C_10
REMARK    5  A    between atoms: C_14  and  C_17
REMARK    6  A    between atoms: C_17  and  C_19
REMARK    7  A    between atoms: C_17  and  N_29
REMARK    8  A    between atoms: C_19  and  C_20
REMARK    9  A    between atoms: C_30  and  O_32
REMARK   10  A    between atoms: O_32  and  C_33
REMARK   11  A    between atoms: C_33  and  C_34
REMARK   12  A    between atoms: C_33  and  C_35
REMARK   13  A    between atoms: C_33  and  C_36
REMARK                            x       y       z     vdW  Elec       q    Type
REMARK                         _______ _______ _______ _____ _____    ______ ____
ROOT
ATOM      1  C   UNL     1      -0.592  -8.978   1.564  0.00  0.00    +0.125 C 
ENDROOT
BRANCH   1   5
ATOM      2  C   UNL     1       1.623  -6.671  -0.051  0.00  0.00    +0.263 C 
ATOM      3  N   UNL     1       0.832  -7.100  -1.227  0.00  0.00    -0.218 NA
ATOM      4  N   UNL     1       0.020  -8.216  -0.712  0.00  0.00    -0.225 NA
ATOM      5  C   UNL     1      -0.286  -7.772   0.673  0.00  0.00    +0.223 C 
ATOM      6  O   UNL     1       0.916  -7.109   1.119  0.00  0.00    -0.330 OA
ATOM      7  H   UNL     1       1.434  -7.406  -1.976  0.00  0.00    +0.144 HD
ATOM      8  H   UNL     1       0.549  -9.075  -0.708  0.00  0.00    +0.143 HD
BRANCH   2   9
ATOM      9  S   UNL     1       1.780  -4.864  -0.037  0.00  0.00    -0.108 S 
BRANCH   9  10
ATOM     10  C   UNL     1       0.065  -4.274  -0.009  0.00  0.00    +0.108 C 
BRANCH  10  15
ATOM     11  C   UNL     1       0.011   1.504   0.042  0.00  0.00    +0.044 C 
ATOM     12  C   UNL     1       0.025  -0.003   0.029  0.00  0.00    -0.050 A 
ATOM     13  C   UNL     1       0.016  -0.683  -1.174  0.00  0.00    +0.003 A 
ATOM     14  C   UNL     1       0.029  -2.066  -1.186  0.00  0.00    +0.005 A 
ATOM     15  C   UNL     1       0.052  -2.767   0.004  0.00  0.00    -0.037 A 
ATOM     16  C   UNL     1       0.062  -2.086   1.208  0.00  0.00    +0.005 A 
ATOM     17  C   UNL     1       0.053  -0.704   1.220  0.00  0.00    +0.003 A 
ENDBRANCH  10  15
ENDBRANCH   9  10
ENDBRANCH   2   9
ENDBRANCH   1   5
BRANCH   1  18
ATOM     18  N   UNL     1       0.575  -9.863   1.605  0.00  0.00    -0.274 N 
ATOM     19  C   UNL     1       0.498 -11.104   1.086  0.00  0.00    +0.401 C 
ATOM     20  O   UNL     1      -0.508 -11.457   0.501  0.00  0.00    -0.226 OA
ATOM     21  H   UNL     1       1.403  -9.556   2.005  0.00  0.00    +0.152 HD
BRANCH  19  22
ATOM     22  O   UNL     1       1.534 -11.954   1.214  0.00  0.00    -0.445 OA
BRANCH  22  23
ATOM     23  C   UNL     1       1.383 -13.254   0.640  0.00  0.00    +0.107 C 
ATOM     24  C   UNL     1       1.145 -13.121  -0.866  0.00  0.00    +0.055 C 
ATOM     25  C   UNL     1       2.654 -14.070   0.885  0.00  0.00    +0.055 C 
ATOM     26  C   UNL     1       0.190 -13.961   1.285  0.00  0.00    +0.055 C 
ENDBRANCH  22  23
ENDBRANCH  19  22
ENDBRANCH   1  18
BRANCH   1  27
ATOM     27  C   UNL     1      -0.916  -8.497   2.980  0.00  0.00    +0.059 C 
BRANCH  27  28
ATOM     28  C   UNL     1      -1.336  -9.671   3.826  0.00  0.00    -0.040 C 
ATOM     29  C   UNL     1      -0.550 -10.403   4.649  0.00  0.00    -0.001 A 
ATOM     30  C   UNL     1       0.875 -10.327   4.989  0.00  0.00    +0.010 A 
ATOM     31  C   UNL     1       1.389 -11.219   5.867  0.00  0.00    +0.001 A 
ATOM     32  C   UNL     1       0.595 -12.212   6.457  0.00  0.00    +0.002 A 
ATOM     33  C   UNL     1      -0.723 -12.345   6.195  0.00  0.00    +0.026 A 
ATOM     34  C   UNL     1      -1.367 -11.460   5.287  0.00  0.00    +0.043 A 
ATOM     35  N   UNL     1      -2.609 -11.385   4.874  0.00  0.00    -0.380 N 
ATOM     36  C   UNL     1      -2.722 -10.267   3.931  0.00  0.00    +0.144 C 
ATOM     37  H   UNL     1      -3.333 -11.969   5.149  0.00  0.00    +0.160 HD
ENDBRANCH  27  28
ENDBRANCH   1  27
TORSDOF 9
