REMARK  Name = ZINC35427425
REMARK  6 active torsions:
REMARK  status: ('A' for Active; 'I' for Inactive)
REMARK    1  A    between atoms: C_1  and  C_2
REMARK    2  A    between atoms: C_2  and  N_3
REMARK    3  A    between atoms: C_17  and  C_32
REMARK    4  A    between atoms: N_23  and  C_24
REMARK    5  A    between atoms: C_26  and  C_31
REMARK    6  A    between atoms: C_29  and  C_30
REMARK                            x       y       z     vdW  Elec       q    Type
REMARK                         _______ _______ _______ _____ _____    ______ ____
ROOT
ATOM      1  N   UNL     1      -1.883   0.411   1.215  0.00  0.00    +0.383 N 
ATOM      2  C   UNL     1      -1.673  -1.010   1.520  0.00  0.00    -0.074 C 
ATOM      3  C   UNL     1      -3.015  -1.744   1.585  0.00  0.00    +0.018 C 
ATOM      4  C   UNL     1      -3.779  -1.447   0.297  0.00  0.00    -0.034 A 
ATOM      5  C   UNL     1      -4.871  -2.219  -0.143  0.00  0.00    +0.004 A 
ATOM      6  C   UNL     1      -5.463  -1.833  -1.306  0.00  0.00    +0.090 A 
ATOM      7  S   UNL     1      -4.530  -0.429  -1.835  0.00  0.00    -0.077 S 
ATOM      8  C   UNL     1      -3.396  -0.393  -0.473  0.00  0.00    -0.021 A 
ATOM      9  C   UNL     1      -2.277   0.557  -0.199  0.00  0.00    -0.035 C 
ATOM     10  N   UNL     1      -6.568  -2.463  -1.864  0.00  0.00    -0.312 N 
ATOM     11  C   UNL     1      -6.833  -2.849  -3.134  0.00  0.00    +0.092 A 
ATOM     12  C   UNL     1      -8.027  -3.486  -3.137  0.00  0.00    +0.020 A 
ATOM     13  C   UNL     1      -8.521  -3.471  -1.814  0.00  0.00    +0.025 A 
ATOM     14  C   UNL     1      -7.625  -2.820  -1.058  0.00  0.00    +0.049 A 
ATOM     15  C   UNL     1      -7.691  -2.454   0.395  0.00  0.00    +0.155 C 
ATOM     16  N   UNL     1      -6.709  -3.219   1.201  0.00  0.00    -0.268 N 
ATOM     17  C   UNL     1      -5.380  -3.433   0.602  0.00  0.00    +0.148 C 
ATOM     18  C   UNL     1      -7.018  -3.696   2.423  0.00  0.00    +0.308 C 
ATOM     19  O   UNL     1      -8.124  -3.502   2.890  0.00  0.00    -0.252 OA
ATOM     20  N   UNL     1      -6.101  -4.388   3.128  0.00  0.00    -0.269 N 
ATOM     21  H   UNL     1      -5.199  -4.485   2.786  0.00  0.00    +0.156 HD
ATOM     22  H   UNL     1      -2.612   0.778   1.807  0.00  0.00    -0.081 HD
ENDROOT
BRANCH  20  23
ATOM     23  C   UNL     1      -6.450  -4.965   4.354  0.00  0.00    +0.038 A 
ATOM     24  C   UNL     1      -7.458  -4.402   5.126  0.00  0.00    +0.027 A 
ATOM     25  C   UNL     1      -7.801  -4.974   6.335  0.00  0.00    -0.049 A 
ATOM     26  C   UNL     1      -7.142  -6.106   6.778  0.00  0.00    +0.004 A 
ATOM     27  C   UNL     1      -6.137  -6.668   6.012  0.00  0.00    +0.005 A 
ATOM     28  C   UNL     1      -5.794  -6.104   4.799  0.00  0.00    -0.029 A 
ATOM     29  C   UNL     1      -4.704  -6.722   3.962  0.00  0.00    +0.045 C 
ATOM     30  C   UNL     1      -8.895  -4.364   7.174  0.00  0.00    +0.044 C 
ENDBRANCH  20  23
BRANCH  15  31
ATOM     31  C   UNL     1      -7.404  -0.982   0.544  0.00  0.00    -0.021 A 
ATOM     32  C   UNL     1      -7.816  -0.096  -0.434  0.00  0.00    +0.006 A 
ATOM     33  C   UNL     1      -7.554   1.255  -0.297  0.00  0.00    +0.000 A 
ATOM     34  C   UNL     1      -6.880   1.719   0.817  0.00  0.00    +0.000 A 
ATOM     35  C   UNL     1      -6.469   0.832   1.795  0.00  0.00    +0.000 A 
ATOM     36  C   UNL     1      -6.735  -0.518   1.660  0.00  0.00    +0.006 A 
ENDBRANCH  15  31
BRANCH   1  38
ATOM     37  C   UNL     1      -0.888   2.649   1.257  0.00  0.00    -0.017 C 
ATOM     38  C   UNL     1      -0.637   1.152   1.456  0.00  0.00    -0.082 C 
ENDBRANCH   1  38
TORSDOF 3
