REMARK  Name = ZINC13760097
REMARK  8 active torsions:
REMARK  status: ('A' for Active; 'I' for Inactive)
REMARK    1  A    between atoms: C_4  and  C_7
REMARK    2  A    between atoms: C_7  and  S_8
REMARK    3  A    between atoms: S_8  and  N_11
REMARK    4  A    between atoms: N_11  and  C_12
REMARK    5  A    between atoms: N_17  and  C_20
REMARK    6  A    between atoms: C_20  and  C_21
REMARK    7  A    between atoms: N_23  and  C_24
REMARK    8  A    between atoms: C_30  and  O_32
REMARK                            x       y       z     vdW  Elec       q    Type
REMARK                         _______ _______ _______ _____ _____    ______ ____
ROOT
ATOM      1  C   UNL     1      -2.649   0.940   2.257  0.00  0.00    +0.203 C 
ENDROOT
BRANCH   1   6
ATOM      2  C   UNL     1       0.967   2.167   2.381  0.00  0.00    +0.162 C 
ATOM      3  C   UNL     1       0.691   3.542   1.765  0.00  0.00    +0.031 C 
ATOM      4  C   UNL     1      -0.576   4.116   2.409  0.00  0.00    +0.021 C 
ATOM      5  C   UNL     1      -1.773   3.269   1.975  0.00  0.00    +0.108 C 
ATOM      6  N   UNL     1      -1.506   1.854   2.203  0.00  0.00    -0.291 N 
ATOM      7  C   UNL     1      -0.286   1.340   2.365  0.00  0.00    +0.235 C 
ATOM      8  O   UNL     1      -0.183   0.140   2.506  0.00  0.00    -0.274 OA
BRANCH   2   9
ATOM      9  N   UNL     1       2.009   1.488   1.607  0.00  0.00    -0.182 NA
ATOM     10  H   UNL     1       2.053   1.606   0.645  0.00  0.00    +0.148 HD
BRANCH   9  11
ATOM     11  S   UNL     1       3.110   0.518   2.374  0.00  0.00    +0.034 S 
ATOM     12  O   UNL     1       3.967   0.053   1.340  0.00  0.00    -0.158 OA
ATOM     13  O   UNL     1       3.620   1.316   3.433  0.00  0.00    -0.158 OA
BRANCH  11  14
ATOM     14  C   UNL     1       2.135  -0.858   3.042  0.00  0.00    +0.220 C 
BRANCH  14  18
ATOM     15  C   UNL     1       4.716  -3.566   5.103  0.00  0.00    +0.000 A 
ATOM     16  C   UNL     1       4.131  -2.515   5.785  0.00  0.00    +0.000 A 
ATOM     17  C   UNL     1       3.295  -1.639   5.118  0.00  0.00    +0.005 A 
ATOM     18  C   UNL     1       3.046  -1.813   3.769  0.00  0.00    -0.025 A 
ATOM     19  C   UNL     1       3.627  -2.867   3.089  0.00  0.00    +0.005 A 
ATOM     20  C   UNL     1       4.465  -3.741   3.755  0.00  0.00    +0.000 A 
ENDBRANCH  14  18
ENDBRANCH  11  14
ENDBRANCH   9  11
ENDBRANCH   2   9
ENDBRANCH   1   6
BRANCH   1  21
ATOM     21  C   UNL     1      -2.943   0.419   0.874  0.00  0.00    +0.231 C 
ATOM     22  O   UNL     1      -2.264   0.777  -0.065  0.00  0.00    -0.274 OA
ATOM     23  N   UNL     1      -3.960  -0.444   0.680  0.00  0.00    -0.307 N 
ATOM     24  H   UNL     1      -4.503  -0.730   1.431  0.00  0.00    +0.149 HD
BRANCH  23  25
ATOM     25  C   UNL     1      -4.245  -0.949  -0.665  0.00  0.00    +0.120 C 
ATOM     26  C   UNL     1      -3.359  -2.163  -0.953  0.00  0.00    +0.028 C 
ATOM     27  C   UNL     1      -3.633  -2.673  -2.370  0.00  0.00    +0.021 C 
ATOM     28  C   UNL     1      -5.098  -3.107  -2.478  0.00  0.00    +0.110 C 
ATOM     29  N   UNL     1      -5.955  -1.988  -2.063  0.00  0.00    -0.278 N 
ATOM     30  C   UNL     1      -5.717  -1.364  -0.754  0.00  0.00    +0.225 C 
ATOM     31  C   UNL     1      -6.959  -1.533  -2.884  0.00  0.00    +0.153 C 
ATOM     32  N   UNL     1      -7.239  -2.191  -4.058  0.00  0.00    -0.333 N 
ATOM     33  H   UNL     1      -8.375  -0.079  -3.061  0.00  0.00    +0.158 HD
ATOM     34  H   UNL     1      -6.804  -3.035  -4.256  0.00  0.00    +0.145 HD
ATOM     35  H   UNL     1      -7.871  -1.811  -4.688  0.00  0.00    +0.145 HD
ATOM     36  N   UNL     1      -7.621  -0.455  -2.486  0.00  0.00    -0.375 N 
ATOM     37  H   UNL     1      -7.375   0.001  -1.600  0.00  0.00    +0.158 HD
BRANCH  30  38
ATOM     38  O   UNL     1      -6.549  -0.210  -0.615  0.00  0.00    -0.372 OA
ATOM     39  H   UNL     1      -7.492  -0.412  -0.538  0.00  0.00    +0.212 HD
ENDBRANCH  30  38
ENDBRANCH  23  25
ENDBRANCH   1  21
TORSDOF 8
