REMARK  Name = ZINC64093258
REMARK  11 active torsions:
REMARK  status: ('A' for Active; 'I' for Inactive)
REMARK    1  A    between atoms: C_1  and  C_2
REMARK    2  A    between atoms: C_2  and  C_3
REMARK    3  A    between atoms: C_2  and  C_4
REMARK    4  A    between atoms: C_4  and  N_5
REMARK    5  A    between atoms: N_5  and  C_6
REMARK    6  A    between atoms: C_6  and  C_7
REMARK    7  A    between atoms: N_10  and  C_13
REMARK    8  A    between atoms: C_13  and  C_14
REMARK    9  A    between atoms: C_19  and  O_20
REMARK   10  A    between atoms: O_20  and  C_21
REMARK   11  A    between atoms: C_22  and  C_24
REMARK                            x       y       z     vdW  Elec       q    Type
REMARK                         _______ _______ _______ _____ _____    ______ ____
ROOT
ATOM      1  N   UNL     1      -0.920  -1.985  -0.403  0.00  0.00    -0.299 N 
ATOM      2  C   UNL     1      -1.177  -2.660  -1.540  0.00  0.00    +0.242 C 
ATOM      3  O   UNL     1      -1.611  -2.073  -2.509  0.00  0.00    -0.273 OA
ENDROOT
BRANCH   2   4
ATOM      4  C   UNL     1      -0.926  -4.144  -1.609  0.00  0.00    +0.190 C 
ATOM      5  C   UNL     1      -2.174  -4.904  -1.220  0.00  0.00    +0.016 C 
ATOM      6  C   UNL     1      -2.514  -5.645  -2.299  0.00  0.00    -0.004 A 
ATOM      7  C   UNL     1      -3.614  -6.584  -2.554  0.00  0.00    +0.010 A 
ATOM      8  C   UNL     1      -3.693  -7.188  -3.761  0.00  0.00    +0.001 A 
ATOM      9  C   UNL     1      -2.754  -6.941  -4.772  0.00  0.00    +0.002 A 
ATOM     10  C   UNL     1      -1.717  -6.093  -4.613  0.00  0.00    +0.026 A 
ATOM     11  C   UNL     1      -1.536  -5.402  -3.383  0.00  0.00    +0.043 A 
ATOM     12  N   UNL     1      -0.625  -4.543  -2.989  0.00  0.00    -0.370 N 
ATOM     13  H   UNL     1       0.121  -4.224  -3.520  0.00  0.00    +0.161 HD
ENDBRANCH   2   4
BRANCH   1  14
ATOM     14  C   UNL     1      -1.073  -0.529  -0.364  0.00  0.00    +0.110 C 
BRANCH  14  16
ATOM     15  C   UNL     1       0.045   1.653  -0.849  0.00  0.00    +0.009 C 
ATOM     16  C   UNL     1       0.194   0.131  -0.912  0.00  0.00    +0.000 C 
ATOM     17  C   UNL     1       1.397  -0.299  -0.071  0.00  0.00    +0.009 C 
ENDBRANCH  14  16
ENDBRANCH   1  14
BRANCH   1  18
ATOM     18  C   UNL     1      -0.488  -2.708   0.796  0.00  0.00    +0.111 C 
BRANCH  18  19
ATOM     19  C   UNL     1      -1.712  -3.084   1.634  0.00  0.00    +0.003 C 
ATOM     20  C   UNL     1      -2.364  -1.813   2.188  0.00  0.00    -0.014 C 
ATOM     21  C   UNL     1      -3.539  -2.200   3.088  0.00  0.00    -0.078 C 
ATOM     22  N   UNL     1      -3.056  -3.028   4.200  0.00  0.00    +0.382 N 
ATOM     23  C   UNL     1      -2.495  -4.281   3.680  0.00  0.00    -0.078 C 
ATOM     24  C   UNL     1      -1.280  -3.974   2.802  0.00  0.00    -0.014 C 
ATOM     25  H   UNL     1      -2.343  -2.526   4.707  0.00  0.00    -0.081 HD
BRANCH  22  26
ATOM     26  C   UNL     1      -4.173  -3.331   5.104  0.00  0.00    -0.039 C 
BRANCH  26  27
ATOM     27  C   UNL     1      -3.658  -4.077   6.308  0.00  0.00    -0.022 A 
ATOM     28  C   UNL     1      -3.783  -5.451   6.376  0.00  0.00    +0.005 A 
ATOM     29  C   UNL     1      -3.310  -6.135   7.480  0.00  0.00    +0.000 A 
ATOM     30  C   UNL     1      -2.711  -5.447   8.519  0.00  0.00    +0.004 A 
ATOM     31  C   UNL     1      -2.583  -4.073   8.455  0.00  0.00    +0.046 A 
ATOM     32  C   UNL     1      -3.052  -3.384   7.346  0.00  0.00    +0.121 A 
BRANCH  32  33
ATOM     33  O   UNL     1      -2.922  -2.033   7.278  0.00  0.00    -0.495 OA
ATOM     34  C   UNL     1      -2.288  -1.386   8.383  0.00  0.00    +0.277 C 
ENDBRANCH  32  33
ENDBRANCH  26  27
ENDBRANCH  22  26
ENDBRANCH  18  19
ENDBRANCH   1  18
TORSDOF 8
