REMARK  Name = ZINC43264972
REMARK  9 active torsions:
REMARK  status: ('A' for Active; 'I' for Inactive)
REMARK    1  A    between atoms: C_1  and  C_2
REMARK    2  A    between atoms: C_2  and  C_3
REMARK    3  A    between atoms: C_3  and  O_4
REMARK    4  A    between atoms: O_4  and  C_5
REMARK    5  A    between atoms: C_8  and  O_11
REMARK    6  A    between atoms: O_11  and  C_12
REMARK    7  A    between atoms: C_12  and  C_14
REMARK    8  A    between atoms: C_12  and  C_16
REMARK    9  A    between atoms: C_14  and  N_15
REMARK                            x       y       z     vdW  Elec       q    Type
REMARK                         _______ _______ _______ _____ _____    ______ ____
ROOT
ATOM      1  C   UNL     1      -7.433  -3.701   0.160  0.00  0.00    +0.193 C 
ENDROOT
BRANCH   1   2
ATOM      2  C   UNL     1      -8.616  -4.415  -0.442  0.00  0.00    +0.029 A 
ATOM      3  C   UNL     1      -9.621  -3.913  -1.200  0.00  0.00    +0.016 A 
ATOM      4  C   UNL     1     -10.613  -4.766  -1.648  0.00  0.00    +0.023 A 
ATOM      5  C   UNL     1     -10.551  -6.079  -1.315  0.00  0.00    +0.055 A 
ATOM      6  S   UNL     1      -9.053  -6.144  -0.346  0.00  0.00    -0.083 S 
ATOM      7 BR   UNL     1     -11.739  -7.479  -1.766  0.00  0.00    -0.043 Br
ENDBRANCH   1   2
BRANCH   1   8
ATOM      8  O   UNL     1      -6.269  -4.520   0.038  0.00  0.00    -0.486 OA
BRANCH   8  12
ATOM      9  C   UNL     1      -2.650  -2.583  -0.392  0.00  0.00    +0.121 A 
ATOM     10  C   UNL     1      -3.827  -1.851  -0.351  0.00  0.00    +0.049 A 
ATOM     11  C   UNL     1      -5.038  -2.499  -0.207  0.00  0.00    +0.049 A 
ATOM     12  C   UNL     1      -5.077  -3.882  -0.104  0.00  0.00    +0.122 A 
ATOM     13  C   UNL     1      -3.899  -4.614  -0.147  0.00  0.00    +0.049 A 
ATOM     14  C   UNL     1      -2.689  -3.966  -0.295  0.00  0.00    +0.049 A 
BRANCH   9  15
ATOM     15  O   UNL     1      -1.457  -1.944  -0.534  0.00  0.00    -0.492 OA
BRANCH  15  16
ATOM     16  C   UNL     1      -1.492  -0.519  -0.628  0.00  0.00    +0.229 C 
BRANCH  16  18
ATOM     17  C   UNL     1      -0.104   1.543  -0.883  0.00  0.00    +0.007 C 
ATOM     18  C   UNL     1      -0.067   0.017  -0.782  0.00  0.00    +0.038 C 
ENDBRANCH  16  18
ENDBRANCH  15  16
ENDBRANCH   9  15
ENDBRANCH   8  12
ENDBRANCH   1   8
BRANCH   1  19
ATOM     19  C   UNL     1      -7.706  -3.418   1.639  0.00  0.00    -0.036 C 
BRANCH  19  20
ATOM     20  N   UNL     1      -6.607  -2.618   2.195  0.00  0.00    +0.381 N 
ATOM     21  H   UNL     1      -6.787  -2.432   3.171  0.00  0.00    -0.090 HD
ATOM     22  H   UNL     1      -5.741  -3.127   2.104  0.00  0.00    -0.090 HD
ATOM     23  H   UNL     1      -6.539  -1.745   1.693  0.00  0.00    -0.090 HD
ENDBRANCH  19  20
ENDBRANCH   1  19
TORSDOF 8
