REMARK  Name = ZINC36608554
REMARK  14 active torsions:
REMARK  status: ('A' for Active; 'I' for Inactive)
REMARK    1  A    between atoms: C_1  and  C_2
REMARK    2  A    between atoms: C_7  and  C_8
REMARK    3  A    between atoms: C_8  and  C_10
REMARK    4  A    between atoms: C_8  and  N_21
REMARK    5  A    between atoms: N_12  and  C_13
REMARK    6  A    between atoms: C_13  and  C_14
REMARK    7  A    between atoms: C_13  and  C_15
REMARK    8  A    between atoms: C_13  and  C_16
REMARK    9  A    between atoms: C_16  and  C_17
REMARK   10  A    between atoms: C_17  and  C_18
REMARK   11  A    between atoms: C_17  and  C_19
REMARK   12  A    between atoms: C_17  and  C_20
REMARK   13  A    between atoms: N_21  and  C_22
REMARK   14  A    between atoms: C_28  and  C_30
REMARK                            x       y       z     vdW  Elec       q    Type
REMARK                         _______ _______ _______ _____ _____    ______ ____
ROOT
ATOM      1  C   UNL     1      -1.122   0.504   2.788  0.00  0.00    +0.198 C 
ENDROOT
BRANCH   1   8
ATOM      2  C   UNL     1       1.263   1.951   2.039  0.00  0.00    +0.044 C 
ATOM      3  C   UNL     1       0.495   1.176   1.000  0.00  0.00    -0.045 A 
ATOM      4  C   UNL     1       0.934   1.153  -0.310  0.00  0.00    +0.004 A 
ATOM      5  C   UNL     1       0.229   0.442  -1.263  0.00  0.00    +0.000 A 
ATOM      6  C   UNL     1      -0.915  -0.246  -0.906  0.00  0.00    +0.000 A 
ATOM      7  C   UNL     1      -1.354  -0.224   0.405  0.00  0.00    +0.006 A 
ATOM      8  C   UNL     1      -0.647   0.484   1.359  0.00  0.00    -0.015 A 
ENDBRANCH   1   8
BRANCH   1   9
ATOM      9  C   UNL     1      -2.566   0.076   2.844  0.00  0.00    +0.239 C 
ATOM     10  O   UNL     1      -2.884  -0.905   3.482  0.00  0.00    -0.273 OA
ATOM     11  N   UNL     1      -3.505   0.783   2.183  0.00  0.00    -0.308 N 
ATOM     12  H   UNL     1      -3.243   1.524   1.615  0.00  0.00    +0.149 HD
BRANCH  11  13
ATOM     13  C   UNL     1      -4.920   0.432   2.324  0.00  0.00    +0.030 C 
ATOM     14  C   UNL     1      -5.166  -0.948   1.713  0.00  0.00    +0.031 C 
ATOM     15  C   UNL     1      -5.294   0.408   3.807  0.00  0.00    +0.031 C 
BRANCH  13  16
ATOM     16  C   UNL     1      -5.777   1.472   1.599  0.00  0.00    +0.031 C 
BRANCH  16  17
ATOM     17  C   UNL     1      -5.077   2.831   1.643  0.00  0.00    -0.036 C 
ATOM     18  C   UNL     1      -4.014   2.894   0.544  0.00  0.00    +0.010 C 
ATOM     19  C   UNL     1      -6.106   3.942   1.422  0.00  0.00    +0.010 C 
ATOM     20  C   UNL     1      -4.412   3.018   3.008  0.00  0.00    +0.010 C 
ENDBRANCH  16  17
ENDBRANCH  13  16
ENDBRANCH  11  13
ENDBRANCH   1   9
BRANCH   1  21
ATOM     21  N   UNL     1      -0.309  -0.416   3.587  0.00  0.00    -0.249 N 
ATOM     22  C   UNL     1       0.411   0.049   4.626  0.00  0.00    +0.287 C 
ATOM     23  O   UNL     1       0.447   1.244   4.856  0.00  0.00    -0.266 OA
BRANCH  21  24
ATOM     24  C   UNL     1      -0.281  -1.778   3.270  0.00  0.00    +0.038 A 
ATOM     25  C   UNL     1      -0.974  -2.690   4.056  0.00  0.00    +0.023 A 
ATOM     26  C   UNL     1      -0.943  -4.034   3.741  0.00  0.00    +0.002 A 
ATOM     27  C   UNL     1      -0.224  -4.473   2.644  0.00  0.00    +0.000 A 
ATOM     28  C   UNL     1       0.467  -3.568   1.860  0.00  0.00    +0.002 A 
ATOM     29  C   UNL     1       0.436  -2.221   2.166  0.00  0.00    +0.023 A 
ENDBRANCH  21  24
BRANCH  22  30
ATOM     30  C   UNL     1       1.153  -0.884   5.481  0.00  0.00    +0.190 A 
ATOM     31  C   UNL     1       1.954  -0.544   6.533  0.00  0.00    +0.054 A 
ATOM     32  C   UNL     1       2.458  -1.744   7.060  0.00  0.00    +0.042 A 
ATOM     33  C   UNL     1       1.949  -2.750   6.316  0.00  0.00    +0.196 A 
ATOM     34  O   UNL     1       1.158  -2.228   5.369  0.00  0.00    -0.458 OA
ENDBRANCH  22  30
ENDBRANCH   1  21
TORSDOF 8
