REMARK  Name = ZINC20929658
REMARK  11 active torsions:
REMARK  status: ('A' for Active; 'I' for Inactive)
REMARK    1  A    between atoms: C_1  and  C_2
REMARK    2  A    between atoms: C_2  and  C_3
REMARK    3  A    between atoms: C_3  and  O_4
REMARK    4  A    between atoms: O_4  and  C_5
REMARK    5  A    between atoms: C_6  and  C_13
REMARK    6  A    between atoms: C_13  and  N_14
REMARK    7  A    between atoms: N_14  and  CA_15
REMARK    8  A    between atoms: CA_15  and  C_17
REMARK    9  A    between atoms: CA_15  and  C_19
REMARK   10  A    between atoms: C_17  and  C_18
REMARK   11  A    between atoms: C_19  and  O_20
REMARK                            x       y       z     vdW  Elec       q    Type
REMARK                         _______ _______ _______ _____ _____    ______ ____
ROOT
ATOM      1  C   UNL     1       0.981  -2.816   3.363  0.00  0.00    +0.136 A 
ATOM      2  C   UNL     1       1.791  -2.298   2.363  0.00  0.00    -0.021 A 
ATOM      3  C   UNL     1       3.155  -2.205   2.559  0.00  0.00    +0.020 A 
ATOM      4  C   UNL     1       3.715  -2.633   3.750  0.00  0.00    +0.019 A 
ATOM      5  C   UNL     1       2.910  -3.154   4.747  0.00  0.00    +0.034 A 
ATOM      6  C   UNL     1       1.545  -3.250   4.554  0.00  0.00    +0.061 A 
ATOM      7 BR   UNL     1       0.445  -3.963   5.917  0.00  0.00    -0.046 Br
ATOM      8 BR   UNL     1       5.583  -2.505   4.015  0.00  0.00    -0.050 Br
ENDROOT
BRANCH   1   9
ATOM      9  O   UNL     1      -0.362  -2.903   3.174  0.00  0.00    -0.491 OA
BRANCH   9  10
ATOM     10  C   UNL     1      -0.858  -4.112   2.596  0.00  0.00    +0.229 C 
BRANCH  10  12
ATOM     11  C   UNL     1      -2.912  -5.321   1.843  0.00  0.00    +0.007 C 
ATOM     12  C   UNL     1      -2.380  -4.026   2.462  0.00  0.00    +0.038 C 
ENDBRANCH  10  12
ENDBRANCH   9  10
ENDBRANCH   1   9
BRANCH   2  13
ATOM     13  C   UNL     1       1.183  -1.831   1.066  0.00  0.00    -0.043 C 
BRANCH  13  14
ATOM     14  N   UNL     1       0.606  -0.492   1.249  0.00  0.00    +0.385 N 
ATOM     15  H1  UNL     1      -0.172  -0.532   2.026  0.00  0.00    -0.085 HD
ATOM     16  H2  UNL     1       1.396   0.208   1.556  0.00  0.00    -0.085 HD
BRANCH  14  17
ATOM     17  CA  UNL     1       0.002  -0.004   0.002  0.00  0.00    -0.046 C 
BRANCH  17  18
ATOM     18  C   UNL     1      -0.019   1.526   0.010  0.00  0.00    -0.017 C 
ATOM     19  C   UNL     1       1.417   2.055  -0.000  0.00  0.00    +0.002 C 
ENDBRANCH  17  18
BRANCH  17  20
ATOM     20  C   UNL     1      -1.429  -0.533  -0.113  0.00  0.00    +0.140 C 
BRANCH  20  21
ATOM     21  O   UNL     1      -2.227   0.020   0.936  0.00  0.00    -0.397 OA
ATOM     22  H   UNL     1      -3.291  -0.246   1.016  0.00  0.00    +0.209 HD
ENDBRANCH  20  21
ENDBRANCH  17  20
ENDBRANCH  14  17
ENDBRANCH  13  14
ENDBRANCH   2  13
TORSDOF 9
