REMARK  Name = ZINC54049287
REMARK  10 active torsions:
REMARK  status: ('A' for Active; 'I' for Inactive)
REMARK    1  A    between atoms: C_1  and  C_2
REMARK    2  A    between atoms: C_2  and  O_3
REMARK    3  A    between atoms: O_3  and  C_4
REMARK    4  A    between atoms: C_6  and  C_20
REMARK    5  A    between atoms: C_9  and  O_10
REMARK    6  A    between atoms: O_10  and  C_11
REMARK    7  A    between atoms: C_11  and  C_12
REMARK    8  A    between atoms: C_12  and  C_13
REMARK    9  A    between atoms: N_15  and  C_16
REMARK   10  A    between atoms: C_20  and  N_21
REMARK                            x       y       z     vdW  Elec       q    Type
REMARK                         _______ _______ _______ _____ _____    ______ ____
ROOT
ATOM      1  C   UNL     1      -1.498  -1.849   0.006  0.00  0.00    +0.163 A 
ATOM      2  C   UNL     1      -0.389  -2.680  -0.003  0.00  0.00    +0.051 A 
ATOM      3  C   UNL     1      -0.553  -4.052  -0.009  0.00  0.00    -0.060 A 
ATOM      4  C   UNL     1      -1.822  -4.600  -0.006  0.00  0.00    +0.021 A 
ATOM      5  C   UNL     1      -2.934  -3.777   0.003  0.00  0.00    +0.063 A 
ATOM      6  C   UNL     1      -2.776  -2.400   0.016  0.00  0.00    +0.176 A 
ATOM      7 BR   UNL     1      -4.668  -4.531   0.006  0.00  0.00    -0.046 Br
ENDROOT
BRANCH   1   8
ATOM      8  O   UNL     1      -1.339  -0.499   0.012  0.00  0.00    -0.489 OA
BRANCH   8  10
ATOM      9  C   UNL     1      -0.019   1.526   0.010  0.00  0.00    +0.048 C 
ATOM     10  C   UNL     1       0.002  -0.004   0.002  0.00  0.00    +0.226 C 
ENDBRANCH   8  10
ENDBRANCH   1   8
BRANCH   6  11
ATOM     11  O   UNL     1      -3.868  -1.589   0.030  0.00  0.00    -0.487 OA
BRANCH  11  12
ATOM     12  C   UNL     1      -4.401  -1.195  -1.236  0.00  0.00    +0.238 C 
BRANCH  12  13
ATOM     13  C   UNL     1      -5.616  -0.292  -1.019  0.00  0.00    +0.136 C 
BRANCH  13  14
ATOM     14  C   UNL     1      -6.178   0.123  -2.354  0.00  0.00    +0.216 C 
ATOM     15  O   UNL     1      -5.658  -0.265  -3.378  0.00  0.00    -0.276 OA
ATOM     16  N   UNL     1      -7.259   0.926  -2.410  0.00  0.00    -0.312 N 
ATOM     17  H   UNL     1      -7.676   1.237  -1.591  0.00  0.00    +0.149 HD
BRANCH  16  18
ATOM     18  C   UNL     1      -7.806   1.330  -3.708  0.00  0.00    +0.073 C 
ATOM     19  C   UNL     1      -8.209   2.796  -3.880  0.00  0.00    +0.024 C 
ATOM     20  C   UNL     1      -9.286   1.715  -3.763  0.00  0.00    +0.024 C 
ENDBRANCH  16  18
ENDBRANCH  13  14
ENDBRANCH  12  13
ENDBRANCH  11  12
ENDBRANCH   6  11
BRANCH   3  21
ATOM     21  C   UNL     1       0.655  -4.954  -0.020  0.00  0.00    -0.050 C 
BRANCH  21  22
ATOM     22  N   UNL     1       1.054  -5.253   1.362  0.00  0.00    +0.381 N 
ATOM     23  H   UNL     1       1.863  -5.857   1.355  0.00  0.00    -0.090 HD
ATOM     24  H   UNL     1       1.280  -4.394   1.841  0.00  0.00    -0.090 HD
ATOM     25  H   UNL     1       0.294  -5.715   1.839  0.00  0.00    -0.090 HD
ENDBRANCH  21  22
ENDBRANCH   3  21
TORSDOF 9
