REMARK  Name = ZINC28048899
REMARK  8 active torsions:
REMARK  status: ('A' for Active; 'I' for Inactive)
REMARK    1  A    between atoms: C_1  and  O_2
REMARK    2  A    between atoms: O_2  and  C_3
REMARK    3  A    between atoms: C_6  and  O_30
REMARK    4  A    between atoms: C_7  and  N_9
REMARK    5  A    between atoms: N_12  and  C_13
REMARK    6  A    between atoms: C_22  and  O_23
REMARK    7  A    between atoms: N_24  and  C_25
REMARK    8  A    between atoms: O_30  and  C_31
REMARK                            x       y       z     vdW  Elec       q    Type
REMARK                         _______ _______ _______ _____ _____    ______ ____
ROOT
ATOM      1  C   UNL     1       3.548   3.170  -0.132  0.00  0.00    +0.140 A 
ATOM      2  C   UNL     1       2.479   3.909  -0.607  0.00  0.00    +0.075 A 
ATOM      3  C   UNL     1       1.143   3.295  -0.560  0.00  0.00    +0.042 A 
ATOM      4  C   UNL     1       0.018   3.983  -1.022  0.00  0.00    +0.013 A 
ATOM      5  C   UNL     1      -1.219   3.381  -0.964  0.00  0.00    +0.001 A 
ATOM      6  C   UNL     1      -1.350   2.097  -0.457  0.00  0.00    +0.004 A 
ATOM      7  C   UNL     1      -0.248   1.409   0.007  0.00  0.00    +0.047 A 
ATOM      8  C   UNL     1       1.009   1.997  -0.041  0.00  0.00    +0.141 A 
ATOM      9  O   UNL     1       2.096   1.333   0.406  0.00  0.00    -0.424 OA
ATOM     10  C   UNL     1       3.324   1.876   0.372  0.00  0.00    +0.309 A 
ATOM     11  N   UNL     1       2.661   5.184  -1.110  0.00  0.00    -0.380 N 
ATOM     12  H   UNL     1       2.691   6.045  -0.427  0.00  0.00    +0.160 HD
ENDROOT
BRANCH   1  16
ATOM     13  N   UNL     1       7.153   3.410  -0.364  0.00  0.00    -0.266 N 
ATOM     14  C   UNL     1       5.903   2.908  -0.405  0.00  0.00    +0.308 C 
ATOM     15  O   UNL     1       5.728   1.734  -0.670  0.00  0.00    -0.252 OA
ATOM     16  N   UNL     1       4.847   3.707  -0.153  0.00  0.00    -0.262 N 
ATOM     17  H   UNL     1       7.319   4.448  -0.039  0.00  0.00    +0.156 HD
ATOM     18  H   UNL     1       5.002   4.780   0.036  0.00  0.00    +0.157 HD
BRANCH  13  23
ATOM     19  C   UNL     1       9.134   0.748  -1.962  0.00  0.00    +0.122 A 
ATOM     20  C   UNL     1      10.400   1.031  -1.471  0.00  0.00    +0.049 A 
ATOM     21  C   UNL     1      10.589   2.100  -0.615  0.00  0.00    +0.051 A 
ATOM     22  C   UNL     1       9.515   2.895  -0.250  0.00  0.00    +0.141 A 
ATOM     23  C   UNL     1       8.242   2.611  -0.737  0.00  0.00    +0.080 A 
ATOM     24  C   UNL     1       8.055   1.537  -1.595  0.00  0.00    +0.072 A 
BRANCH  19  26
ATOM     25  C   UNL     1      10.106  -1.075  -3.139  0.00  0.00    +0.277 C 
ATOM     26  O   UNL     1       8.951  -0.304  -2.803  0.00  0.00    -0.495 OA
ENDBRANCH  19  26
BRANCH  22  27
ATOM     27  O   UNL     1       9.704   3.951   0.588  0.00  0.00    -0.493 OA
ATOM     28  C   UNL     1      11.036   4.184   1.048  0.00  0.00    +0.277 C 
ENDBRANCH  22  27
ENDBRANCH  13  23
ENDBRANCH   1  16
BRANCH  11  29
ATOM     29  C   UNL     1       2.792   5.158  -2.573  0.00  0.00    +0.079 C 
ATOM     30  C   UNL     1       4.244   4.816  -2.967  0.00  0.00    +0.024 C 
ATOM     31  C   UNL     1       4.512   5.690  -4.219  0.00  0.00    +0.002 C 
ATOM     32  C   UNL     1       3.776   7.010  -3.879  0.00  0.00    +0.002 C 
ATOM     33  C   UNL     1       2.495   6.552  -3.153  0.00  0.00    +0.024 C 
ENDBRANCH  11  29
BRANCH  10  34
ATOM     34  O   UNL     1       4.269   1.230   0.789  0.00  0.00    -0.479 OA
ATOM     35  H   UNL     1       4.111   0.216   1.187  0.00  0.00    +0.295 HD
ENDBRANCH  10  34
TORSDOF 6
