REMARK  Name = ZINC05800907
REMARK  3 active torsions:
REMARK  status: ('A' for Active; 'I' for Inactive)
REMARK    1  A    between atoms: C_9  and  C_11
REMARK    2  A    between atoms: N_21  and  C_22
REMARK    3  A    between atoms: C_26  and  C_28
REMARK                            x       y       z     vdW  Elec       q    Type
REMARK                         _______ _______ _______ _____ _____    ______ ____
ROOT
ATOM      1  C   UNL     1       4.032  -2.779   0.787  0.00  0.00    +0.078 A 
ATOM      2  C   UNL     1       3.282  -3.845   1.229  0.00  0.00    +0.028 A 
ATOM      3  C   UNL     1       3.814  -5.190   0.995  0.00  0.00    +0.019 A 
ATOM      4  C   UNL     1       3.007  -6.320   1.167  0.00  0.00    +0.026 A 
ATOM      5  C   UNL     1       3.531  -7.573   0.937  0.00  0.00    +0.019 A 
ATOM      6  C   UNL     1       4.853  -7.719   0.537  0.00  0.00    +0.019 A 
ATOM      7  C   UNL     1       5.661  -6.613   0.364  0.00  0.00    +0.048 A 
ATOM      8  C   UNL     1       5.154  -5.343   0.592  0.00  0.00    +0.137 A 
ATOM      9  O   UNL     1       5.937  -4.247   0.432  0.00  0.00    -0.439 OA
ATOM     10  C   UNL     1       5.307  -3.086   0.108  0.00  0.00    +0.210 A 
ATOM     11  N   UNL     1       5.819  -2.259  -0.778  0.00  0.00    -0.325 N 
ATOM     12 BR   UNL     1       2.446  -9.104   1.169  0.00  0.00    -0.050 Br
ATOM     13  H   UNL     1       6.711  -2.413  -1.126  0.00  0.00    +0.169 HD
ENDROOT
BRANCH   1  22
ATOM     14  C   UNL     1       1.657   2.708   1.296  0.00  0.00    +0.002 A 
ATOM     15  C   UNL     1       2.886   2.986   1.878  0.00  0.00    +0.002 A 
ATOM     16  C   UNL     1       3.834   2.010   2.004  0.00  0.00    +0.030 A 
ATOM     17  C   UNL     1       3.568   0.716   1.544  0.00  0.00    +0.089 A 
ATOM     18  C   UNL     1       2.322   0.435   0.955  0.00  0.00    +0.066 A 
ATOM     19  C   UNL     1       1.372   1.440   0.836  0.00  0.00    +0.028 A 
ATOM     20  N   UNL     1       2.353  -0.901   0.605  0.00  0.00    -0.338 N 
ATOM     21  H   UNL     1       1.641  -1.401   0.175  0.00  0.00    +0.167 HD
ATOM     22  C   UNL     1       3.579  -1.389   0.977  0.00  0.00    +0.144 A 
ATOM     23  N   UNL     1       4.287  -0.432   1.528  0.00  0.00    -0.228 NA
ENDBRANCH   1  22
BRANCH  11  24
ATOM     24  C   UNL     1       5.092  -1.184  -1.209  0.00  0.00    +0.043 A 
ATOM     25  C   UNL     1       3.835  -1.374  -1.791  0.00  0.00    +0.026 A 
ATOM     26  C   UNL     1       3.102  -0.289  -2.226  0.00  0.00    +0.003 A 
ATOM     27  C   UNL     1       3.602   0.991  -2.090  0.00  0.00    +0.013 A 
ATOM     28  C   UNL     1       4.856   1.196  -1.510  0.00  0.00    +0.038 A 
ATOM     29  C   UNL     1       5.601   0.107  -1.063  0.00  0.00    +0.038 A 
BRANCH  28  30
ATOM     30  C   UNL     1       5.390   2.568  -1.366  0.00  0.00    +0.242 C 
ATOM     31  O   UNL     1       6.481   2.745  -0.861  0.00  0.00    -0.270 OA
ATOM     32  N   UNL     1       4.666   3.621  -1.794  0.00  0.00    -0.325 N 
ATOM     33  H   UNL     1       3.795   3.480  -2.197  0.00  0.00    +0.145 HD
ATOM     34  H   UNL     1       5.016   4.521  -1.700  0.00  0.00    +0.145 HD
ENDBRANCH  28  30
ENDBRANCH  11  24
TORSDOF 3
