REMARK  Name = ZINC43826075
REMARK  9 active torsions:
REMARK  status: ('A' for Active; 'I' for Inactive)
REMARK    1  A    between atoms: C_1  and  O_2
REMARK    2  A    between atoms: O_2  and  C_3
REMARK    3  A    between atoms: C_6  and  C_24
REMARK    4  A    between atoms: C_8  and  N_9
REMARK    5  A    between atoms: N_12  and  C_13
REMARK    6  A    between atoms: C_13  and  C_14
REMARK    7  A    between atoms: C_14  and  S_15
REMARK    8  A    between atoms: S_15  and  C_16
REMARK    9  A    between atoms: C_16  and  C_17
REMARK                            x       y       z     vdW  Elec       q    Type
REMARK                         _______ _______ _______ _____ _____    ______ ____
ROOT
ATOM      1  N   UNL     1      -0.065  -2.778  -0.012  0.00  0.00    -0.266 N 
ATOM      2  C   UNL     1      -0.113  -4.121   0.083  0.00  0.00    +0.304 C 
ATOM      3  O   UNL     1      -1.187  -4.692   0.090  0.00  0.00    -0.253 OA
ATOM      4  N   UNL     1       1.029  -4.832   0.170  0.00  0.00    -0.298 N 
ATOM      5  H   UNL     1       0.789  -2.328  -0.101  0.00  0.00    +0.156 HD
ATOM      6  H   UNL     1       1.885  -4.376   0.164  0.00  0.00    +0.150 HD
ENDROOT
BRANCH   1  12
ATOM      7  C   UNL     1      -1.293  -0.765  -0.570  0.00  0.00    +0.141 A 
ATOM      8  C   UNL     1      -2.467  -0.025  -0.548  0.00  0.00    +0.048 A 
ATOM      9  C   UNL     1      -3.595  -0.535   0.058  0.00  0.00    +0.017 A 
ATOM     10  C   UNL     1      -3.559  -1.798   0.653  0.00  0.00    +0.038 A 
ATOM     11  C   UNL     1      -2.378  -2.544   0.632  0.00  0.00    +0.040 A 
ATOM     12  C   UNL     1      -1.251  -2.030   0.016  0.00  0.00    +0.077 A 
BRANCH  10  13
ATOM     13  C   UNL     1      -4.766  -2.344   1.304  0.00  0.00    +0.242 C 
ATOM     14  O   UNL     1      -4.734  -3.444   1.821  0.00  0.00    -0.270 OA
ATOM     15  N   UNL     1      -5.905  -1.623   1.324  0.00  0.00    -0.325 N 
ATOM     16  H   UNL     1      -5.931  -0.746   0.911  0.00  0.00    +0.145 HD
ATOM     17  H   UNL     1      -6.699  -1.982   1.752  0.00  0.00    +0.145 HD
ENDBRANCH  10  13
BRANCH   7  19
ATOM     18  C   UNL     1      -0.298   1.042  -1.750  0.00  0.00    +0.277 C 
ATOM     19  O   UNL     1      -0.184  -0.259  -1.169  0.00  0.00    -0.493 OA
ENDBRANCH   7  19
ENDBRANCH   1  12
BRANCH   4  20
ATOM     20  C   UNL     1       0.977  -6.292   0.273  0.00  0.00    +0.116 C 
BRANCH  20  21
ATOM     21  C   UNL     1       2.400  -6.848   0.357  0.00  0.00    +0.088 C 
BRANCH  21  22
ATOM     22  S   UNL     1       2.335  -8.657   0.485  0.00  0.00    -0.154 S 
BRANCH  22  23
ATOM     23  C   UNL     1       4.078  -9.153   0.575  0.00  0.00    +0.107 C 
BRANCH  23  24
ATOM     24  C   UNL     1       4.168 -10.653   0.686  0.00  0.00    -0.002 A 
ATOM     25  C   UNL     1       4.166 -11.256   1.930  0.00  0.00    +0.007 A 
ATOM     26  C   UNL     1       4.249 -12.632   2.031  0.00  0.00    +0.000 A 
ATOM     27  C   UNL     1       4.334 -13.407   0.889  0.00  0.00    +0.003 A 
ATOM     28  C   UNL     1       4.335 -12.806  -0.355  0.00  0.00    +0.038 A 
ATOM     29  C   UNL     1       4.247 -11.428  -0.459  0.00  0.00    +0.127 A 
ATOM     30  F   UNL     1       4.244 -10.840  -1.675  0.00  0.00    -0.205 F 
ENDBRANCH  23  24
ENDBRANCH  22  23
ENDBRANCH  21  22
ENDBRANCH  20  21
ENDBRANCH   4  20
TORSDOF 8
