REMARK  Name = ZINC12298024
REMARK  7 active torsions:
REMARK  status: ('A' for Active; 'I' for Inactive)
REMARK    1  A    between atoms: C_7  and  C_9
REMARK    2  A    between atoms: C_9  and  N_67
REMARK    3  A    between atoms: C_10  and  C_11
REMARK    4  A    between atoms: C_10  and  N_67
REMARK    5  A    between atoms: C_16  and  N_69
REMARK    6  A    between atoms: C_21  and  C_22
REMARK    7  A    between atoms: C_21  and  N_67
REMARK                            x       y       z     vdW  Elec       q    Type
REMARK                         _______ _______ _______ _____ _____    ______ ____
ROOT
ATOM      1  N   UNL     1      -0.744   7.844  -1.633  0.00  0.00    +0.386 N 
ATOM      2  H   UNL     1      -0.103   7.684  -0.847  0.00  0.00    -0.081 HD
ENDROOT
BRANCH   1   3
ATOM      3  C   UNL     1      -2.032   7.178  -1.345  0.00  0.00    -0.015 C 
BRANCH   3  10
ATOM      4  C   UNL     1      -1.280   1.806   1.677  0.00  0.00    +0.006 C 
ATOM      5  C   UNL     1      -0.501   1.205   0.503  0.00  0.00    +0.006 C 
ATOM      6  C   UNL     1      -1.132   1.690  -0.812  0.00  0.00    +0.044 C 
ATOM      7  C   UNL     1      -1.341   3.162  -0.714  0.00  0.00    +0.013 A 
ATOM      8  C   UNL     1      -1.304   3.938   0.403  0.00  0.00    +0.052 A 
ATOM      9  N   UNL     1      -1.524   5.235   0.216  0.00  0.00    -0.251 NA
ATOM     10  C   UNL     1      -1.765   5.744  -0.968  0.00  0.00    +0.062 A 
ATOM     11  S   UNL     1      -1.696   4.340  -1.990  0.00  0.00    -0.079 S 
ATOM     12  C   UNL     1      -1.024   3.311   1.763  0.00  0.00    +0.056 C 
ENDBRANCH   3  10
ENDBRANCH   1   3
BRANCH   1  13
ATOM     13  C   UNL     1      -0.952   9.298  -1.796  0.00  0.00    -0.075 C 
BRANCH  13  14
ATOM     14  C   UNL     1       0.408   9.976  -1.972  0.00  0.00    -0.031 C 
ATOM     15  C   UNL     1       1.240   9.793  -0.700  0.00  0.00    -0.017 C 
ATOM     16  C   UNL     1       2.575  10.524  -0.859  0.00  0.00    -0.078 C 
ATOM     17  C   UNL     1       1.569  12.155  -2.344  0.00  0.00    -0.078 C 
ATOM     18  C   UNL     1       0.205  11.472  -2.229  0.00  0.00    -0.017 C 
ATOM     19  N   UNL     1       2.310  11.962  -1.079  0.00  0.00    +0.382 N 
ATOM     20  H   UNL     1       1.741  12.319  -0.302  0.00  0.00    -0.081 HD
BRANCH  19  21
ATOM     21  C   UNL     1       3.585  12.709  -1.122  0.00  0.00    -0.069 C 
ATOM     22  C   UNL     1       4.489  12.200  -2.263  0.00  0.00    -0.015 C 
ATOM     23  C   UNL     1       5.920  12.272  -1.675  0.00  0.00    -0.002 C 
ATOM     24  C   UNL     1       5.707  11.839  -0.203  0.00  0.00    -0.002 C 
ATOM     25  C   UNL     1       4.359  12.479   0.188  0.00  0.00    -0.015 C 
ENDBRANCH  19  21
ENDBRANCH  13  14
ENDBRANCH   1  13
BRANCH   1  26
ATOM     26  C   UNL     1      -0.148   7.278  -2.862  0.00  0.00    -0.046 C 
BRANCH  26  27
ATOM     27  C   UNL     1      -1.141   7.353  -4.024  0.00  0.00    +0.102 C 
ATOM     28  C   UNL     1      -0.580   6.612  -5.258  0.00  0.00    +0.032 C 
ATOM     29  C   UNL     1      -1.042   7.474  -6.455  0.00  0.00    +0.030 C 
ATOM     30  C   UNL     1      -1.826   8.634  -5.801  0.00  0.00    +0.160 C 
ATOM     31  O   UNL     1      -1.307   8.721  -4.455  0.00  0.00    -0.378 OA
ENDBRANCH  26  27
ENDBRANCH   1  26
TORSDOF 7
