REMARK  Name = ZINC04045706
REMARK  10 active torsions:
REMARK  status: ('A' for Active; 'I' for Inactive)
REMARK    1  A    between atoms: C_1  and  C_2
REMARK    2  A    between atoms: C_6  and  C_23
REMARK    3  A    between atoms: C_6  and  C_24
REMARK    4  A    between atoms: C_13  and  C_15
REMARK    5  A    between atoms: C_15  and  C_16
REMARK    6  A    between atoms: C_16  and  C_17
REMARK    7  A    between atoms: C_21  and  C_22
REMARK    8  A    between atoms: C_22  and  N_59
REMARK    9  A    between atoms: C_24  and  O_26
REMARK   10  A    between atoms: O_26  and  C_27
REMARK                            x       y       z     vdW  Elec       q    Type
REMARK                         _______ _______ _______ _____ _____    ______ ____
ROOT
ATOM      1  C   UNL     1       4.305   1.712   3.075  0.00  0.00    +0.012 C 
ATOM      2  C   UNL     1       4.787   0.437   2.380  0.00  0.00    -0.022 C 
ATOM      3  C   UNL     1       3.822  -0.714   2.678  0.00  0.00    +0.007 C 
ATOM      4  C   UNL     1       3.780  -0.977   4.184  0.00  0.00    +0.002 C 
ATOM      5  C   UNL     1       5.181  -1.356   4.668  0.00  0.00    +0.018 C 
ATOM      6  C   UNL     1       6.142  -0.200   4.386  0.00  0.00    +0.068 C 
ATOM      7  C   UNL     1       6.187   0.080   2.881  0.00  0.00    +0.012 C 
ATOM      8  C   UNL     1       7.145   1.247   2.627  0.00  0.00    +0.009 C 
ATOM      9  C   UNL     1       7.273   1.489   1.120  0.00  0.00    +0.031 C 
ATOM     10  C   UNL     1       5.886   1.695   0.552  0.00  0.00    -0.073 C 
ATOM     11  C   UNL     1       5.610   2.740  -0.189  0.00  0.00    +0.008 C 
ATOM     12  C   UNL     1       4.827   0.662   0.864  0.00  0.00    +0.021 C 
ATOM     13  C   UNL     1       7.543  -0.571   4.877  0.00  0.00    +0.023 C 
ENDROOT
BRANCH   6  14
ATOM     14  C   UNL     1       5.667   1.033   5.110  0.00  0.00    +0.313 C 
ATOM     15  O   UNL     1       4.708   0.971   5.843  0.00  0.00    -0.250 OA
BRANCH  14  16
ATOM     16  O   UNL     1       6.309   2.200   4.942  0.00  0.00    -0.468 OA
ATOM     17  C   UNL     1       5.796   3.346   5.671  0.00  0.00    +0.280 C 
ENDBRANCH  14  16
ENDBRANCH   6  14
BRANCH  12  18
ATOM     18  C   UNL     1       3.464   1.164   0.384  0.00  0.00    +0.013 C 
BRANCH  18  19
ATOM     19  C   UNL     1       3.408   1.105  -1.144  0.00  0.00    +0.039 C 
BRANCH  19  20
ATOM     20  C   UNL     1       2.023   1.475  -1.611  0.00  0.00    -0.008 A 
ATOM     21  C   UNL     1       0.970   0.582  -1.913  0.00  0.00    +0.045 A 
ATOM     22  C   UNL     1      -0.080   1.331  -2.292  0.00  0.00    +0.195 A 
ATOM     23  O   UNL     1       0.277   2.625  -2.229  0.00  0.00    -0.469 OA
ATOM     24  C   UNL     1       1.553   2.717  -1.820  0.00  0.00    +0.091 A 
BRANCH  24  25
ATOM     25  C   UNL     1       2.326   3.997  -1.627  0.00  0.00    -0.010 C 
BRANCH  25  28
ATOM     26  H   UNL     1       2.344   4.424  -3.641  0.00  0.00    -0.089 HD
ATOM     27  H   UNL     1       3.529   5.208  -2.777  0.00  0.00    -0.089 HD
ATOM     28  N   UNL     1       3.019   4.333  -2.883  0.00  0.00    +0.383 N 
ATOM     29  H   UNL     1       3.682   3.584  -3.114  0.00  0.00    -0.089 HD
ENDBRANCH  25  28
ENDBRANCH  24  25
ENDBRANCH  19  20
ENDBRANCH  18  19
ENDBRANCH  12  18
TORSDOF 7
