REMARK  Name = ZINC02441327
REMARK  9 active torsions:
REMARK  status: ('A' for Active; 'I' for Inactive)
REMARK    1  A    between atoms: C_1  and  C_2
REMARK    2  A    between atoms: C_2  and  C_30
REMARK    3  A    between atoms: C_7  and  C_29
REMARK    4  A    between atoms: C_10  and  C_11
REMARK    5  A    between atoms: C_10  and  N_57
REMARK    6  A    between atoms: N_13  and  C_14
REMARK    7  A    between atoms: C_23  and  C_24
REMARK    8  A    between atoms: C_24  and  O_26
REMARK    9  A    between atoms: O_26  and  C_27
REMARK                            x       y       z     vdW  Elec       q    Type
REMARK                         _______ _______ _______ _____ _____    ______ ____
ROOT
ATOM      1  C   UNL     1       6.916  -0.505   0.641  0.00  0.00    +0.201 C 
ATOM      2  O   UNL     1       6.534  -1.479   1.255  0.00  0.00    -0.278 OA
ATOM      3  N   UNL     1       6.051   0.485   0.342  0.00  0.00    -0.285 N 
ATOM      4  H   UNL     1       6.342   1.236  -0.198  0.00  0.00    +0.155 HD
ENDROOT
BRANCH   3   5
ATOM      5  C   UNL     1       4.742   0.429   0.808  0.00  0.00    +0.073 A 
ATOM      6  C   UNL     1       4.269  -0.266   2.008  0.00  0.00    +0.023 A 
ATOM      7  C   UNL     1       4.905  -1.031   2.990  0.00  0.00    +0.027 A 
ATOM      8  C   UNL     1       4.175  -1.562   4.016  0.00  0.00    +0.019 A 
ATOM      9  C   UNL     1       2.803  -1.349   4.089  0.00  0.00    +0.017 A 
ATOM     10  C   UNL     1       2.157  -0.599   3.133  0.00  0.00    +0.027 A 
ATOM     11  C   UNL     1       2.881  -0.047   2.078  0.00  0.00    +0.049 A 
ATOM     12  N   UNL     1       2.519   0.728   1.001  0.00  0.00    -0.348 N 
ATOM     13  H   UNL     1       1.616   1.027   0.808  0.00  0.00    +0.166 HD
ATOM     14  C   UNL     1       3.636   1.018   0.232  0.00  0.00    +0.147 A 
ATOM     15 BR   UNL     1       5.036  -2.596   5.344  0.00  0.00    -0.050 Br
BRANCH  14  16
ATOM     16  C   UNL     1       3.640   1.795  -0.955  0.00  0.00    +0.357 C 
ATOM     17  O   UNL     1       4.660   1.899  -1.611  0.00  0.00    -0.243 OA
BRANCH  16  18
ATOM     18  O   UNL     1       2.514   2.420  -1.357  0.00  0.00    -0.463 OA
ATOM     19  C   UNL     1       2.591   3.186  -2.561  0.00  0.00    +0.280 C 
ENDBRANCH  16  18
ENDBRANCH  14  16
ENDBRANCH   3   5
BRANCH   1  20
ATOM     20  C   UNL     1       8.357  -0.402   0.212  0.00  0.00    +0.019 C 
BRANCH  20  31
ATOM     21  C   UNL     1      10.166  -0.889  -2.696  0.00  0.00    +0.011 C 
ATOM     22  C   UNL     1      11.143  -1.559  -1.710  0.00  0.00    -0.036 C 
ATOM     23  C   UNL     1      11.165  -0.771  -0.419  0.00  0.00    -0.009 C 
ATOM     24  C   UNL     1      10.534  -1.431   0.793  0.00  0.00    -0.067 C 
ATOM     25  C   UNL     1      11.033  -2.905   0.842  0.00  0.00    -0.011 C 
ATOM     26  C   UNL     1      10.188  -3.494  -0.323  0.00  0.00    -0.048 C 
ATOM     27  C   UNL     1      10.823  -3.037  -1.631  0.00  0.00    +0.011 C 
ATOM     28  C   UNL     1       8.820  -2.783  -0.159  0.00  0.00    -0.071 C 
ATOM     29  C   UNL     1      10.056  -5.022  -0.228  0.00  0.00    +0.009 C 
ATOM     30  C   UNL     1      12.550  -1.430  -2.349  0.00  0.00    +0.011 C 
ATOM     31  N   UNL     1       9.069  -1.630   0.707  0.00  0.00    +0.388 N 
ATOM     32  H   UNL     1       8.713  -1.843   1.647  0.00  0.00    -0.081 HD
ENDBRANCH  20  31
ENDBRANCH   1  20
TORSDOF 5
