REMARK  Name = ZINC59276696
REMARK  9 active torsions:
REMARK  status: ('A' for Active; 'I' for Inactive)
REMARK    1  A    between atoms: C_1  and  C_2
REMARK    2  A    between atoms: C_7  and  N_8
REMARK    3  A    between atoms: N_11  and  C_12
REMARK    4  A    between atoms: N_11  and  C_18
REMARK    5  A    between atoms: C_12  and  C_13
REMARK    6  A    between atoms: C_20  and  C_26
REMARK    7  A    between atoms: C_20  and  C_27
REMARK    8  A    between atoms: C_22  and  C_24
REMARK    9  A    between atoms: C_22  and  C_25
REMARK                            x       y       z     vdW  Elec       q    Type
REMARK                         _______ _______ _______ _____ _____    ______ ____
ROOT
ATOM      1  N   UNL     1       0.074  -0.018   2.448  0.00  0.00    -0.269 N 
ATOM      2  C   UNL     1       0.011  -0.702   3.608  0.00  0.00    +0.307 C 
ATOM      3  O   UNL     1       0.013  -1.917   3.598  0.00  0.00    -0.252 OA
ATOM      4  N   UNL     1      -0.053  -0.038   4.779  0.00  0.00    -0.278 N 
ATOM      5  H   UNL     1       0.159   0.948   2.458  0.00  0.00    +0.156 HD
ENDROOT
BRANCH   4   6
ATOM      6  C   UNL     1      -0.122  -0.782   6.042  0.00  0.00    +0.075 C 
ATOM      7  C   UNL     1       1.104  -1.692   6.156  0.00  0.00    +0.009 C 
ATOM      8  C   UNL     1       1.041  -2.484   7.462  0.00  0.00    -0.072 C 
ATOM      9  N   UNL     1      -0.210  -3.214   7.601  0.00  0.00    +0.386 N 
ATOM     10  C   UNL     1      -1.444  -2.500   7.314  0.00  0.00    -0.072 C 
ATOM     11  C   UNL     1      -1.372  -1.661   6.043  0.00  0.00    +0.009 C 
ATOM     12  C   UNL     1      -1.879  -1.625   8.493  0.00  0.00    -0.010 C 
ATOM     13  C   UNL     1      -2.554  -3.557   7.104  0.00  0.00    -0.010 C 
ATOM     14  C   UNL     1       1.305  -1.562   8.652  0.00  0.00    -0.010 C 
ATOM     15  C   UNL     1       2.186  -3.522   7.423  0.00  0.00    -0.010 C 
ATOM     16  H   UNL     1      -0.169  -4.039   6.998  0.00  0.00    -0.084 HD
ATOM     17  H   UNL     1      -0.264  -3.580   8.554  0.00  0.00    -0.084 HD
ENDBRANCH   4   6
BRANCH   1  24
ATOM     18  C   UNL     1       1.229   1.216   0.159  0.00  0.00    +0.045 C 
ATOM     19  C   UNL     1       0.568  -0.136   0.087  0.00  0.00    -0.029 A 
ATOM     20  C   UNL     1       0.514  -0.817  -1.115  0.00  0.00    +0.005 A 
ATOM     21  C   UNL     1      -0.092  -2.057  -1.182  0.00  0.00    +0.000 A 
ATOM     22  C   UNL     1      -0.648  -2.621  -0.047  0.00  0.00    +0.002 A 
ATOM     23  C   UNL     1      -0.598  -1.946   1.156  0.00  0.00    +0.023 A 
ATOM     24  C   UNL     1       0.016  -0.702   1.228  0.00  0.00    +0.038 A 
ENDBRANCH   1  24
BRANCH   4  25
ATOM     25  C   UNL     1      -0.055   1.427   4.791  0.00  0.00    +0.152 C 
BRANCH  25  26
ATOM     26  C   UNL     1      -1.475   1.929   4.718  0.00  0.00    +0.007 A 
ATOM     27  C   UNL     1      -2.334   2.209   5.728  0.00  0.00    +0.013 A 
ATOM     28  C   UNL     1      -3.603   2.663   5.422  0.00  0.00    +0.008 A 
ATOM     29  C   UNL     1      -3.951   2.815   4.120  0.00  0.00    +0.045 A 
ATOM     30  S   UNL     1      -2.458   2.315   3.279  0.00  0.00    -0.100 S 
ENDBRANCH  25  26
ENDBRANCH   4  25
TORSDOF 4
