REMARK  Name = ZINC12498315
REMARK  8 active torsions:
REMARK  status: ('A' for Active; 'I' for Inactive)
REMARK    1  A    between atoms: C_1  and  C_2
REMARK    2  A    between atoms: C_5  and  O_9
REMARK    3  A    between atoms: O_9  and  C_10
REMARK    4  A    between atoms: C_10  and  C_11
REMARK    5  A    between atoms: N_13  and  C_14
REMARK    6  A    between atoms: C_14  and  N_16
REMARK    7  A    between atoms: N_16  and  C_17
REMARK    8  A    between atoms: C_18  and  C_26
REMARK                            x       y       z     vdW  Elec       q    Type
REMARK                         _______ _______ _______ _____ _____    ______ ____
ROOT
ATOM      1  C   UNL     1       1.893   5.681   0.015  0.00  0.00    +0.141 C 
ATOM      2  S   UNL     1       0.302   6.314   0.033  0.00  0.00    -0.018 S 
ENDROOT
BRANCH   1   5
ATOM      3  C   UNL     1       1.030   3.512   0.011  0.00  0.00    +0.256 C 
ATOM      4  O   UNL     1      -0.096   3.960   0.024  0.00  0.00    -0.272 OA
ATOM      5  N   UNL     1       2.088   4.348   0.005  0.00  0.00    -0.265 N 
ATOM      6  H   UNL     1       2.989   3.989  -0.005  0.00  0.00    +0.157 HD
BRANCH   3   7
ATOM      7  C   UNL     1       1.248   2.021   0.001  0.00  0.00    +0.325 C 
BRANCH   7   8
ATOM      8  O   UNL     1      -0.016   1.355   0.009  0.00  0.00    -0.482 OA
BRANCH   8  13
ATOM      9  C   UNL     1       0.061  -4.278  -0.019  0.00  0.00    +0.044 C 
ATOM     10  C   UNL     1       0.040  -2.771  -0.012  0.00  0.00    -0.049 A 
ATOM     11  C   UNL     1       1.228  -2.064  -0.020  0.00  0.00    +0.007 A 
ATOM     12  C   UNL     1       1.212  -0.682  -0.013  0.00  0.00    +0.047 A 
ATOM     13  C   UNL     1       0.002  -0.004   0.002  0.00  0.00    +0.135 A 
ATOM     14  C   UNL     1      -1.190  -0.716   0.015  0.00  0.00    +0.060 A 
ATOM     15  C   UNL     1      -1.168  -2.098   0.004  0.00  0.00    +0.022 A 
ATOM     16 BR   UNL     1      -2.841   0.205   0.043  0.00  0.00    -0.047 Br
ENDBRANCH   8  13
ENDBRANCH   7   8
ENDBRANCH   3   7
ENDBRANCH   1   5
BRANCH   1  17
ATOM     17  N   UNL     1       2.951   6.517   0.009  0.00  0.00    -0.291 N 
ATOM     18  H   UNL     1       3.852   6.158  -0.002  0.00  0.00    +0.154 HD
BRANCH  17  19
ATOM     19  C   UNL     1       2.751   7.888   0.018  0.00  0.00    +0.084 A 
ATOM     20  C   UNL     1       3.702   8.898   0.020  0.00  0.00    +0.068 A 
ATOM     21  C   UNL     1       3.224  10.271   0.027  0.00  0.00    -0.023 A 
ATOM     22  C   UNL     1       1.881  10.412   0.041  0.00  0.00    -0.004 A 
ATOM     23  S   UNL     1       1.252   8.757   0.038  0.00  0.00    -0.077 S 
ATOM     24  C   UNL     1       1.107  11.694   0.057  0.00  0.00    +0.043 C 
ATOM     25  C   UNL     1       2.067  12.833   0.433  0.00  0.00    +0.005 C 
ATOM     26  C   UNL     1       3.335  12.710  -0.417  0.00  0.00    +0.005 C 
ATOM     27  C   UNL     1       4.141  11.488   0.025  0.00  0.00    +0.037 C 
BRANCH  20  28
ATOM     28  C   UNL     1       5.136   8.593   0.011  0.00  0.00    +0.244 C 
ATOM     29  O   UNL     1       5.726   8.473  -1.046  0.00  0.00    -0.270 OA
ATOM     30  N   UNL     1       5.800   8.444   1.174  0.00  0.00    -0.325 N 
ATOM     31  H   UNL     1       5.330   8.539   2.017  0.00  0.00    +0.145 HD
ATOM     32  H   UNL     1       6.749   8.242   1.169  0.00  0.00    +0.145 HD
ENDBRANCH  20  28
ENDBRANCH  17  19
ENDBRANCH   1  17
TORSDOF 7
