REMARK  Name = ZINC43222432
REMARK  8 active torsions:
REMARK  status: ('A' for Active; 'I' for Inactive)
REMARK    1  A    between atoms: C_4  and  C_7
REMARK    2  A    between atoms: C_7  and  C_8
REMARK    3  A    between atoms: C_8  and  C_9
REMARK    4  A    between atoms: C_9  and  C_10
REMARK    5  A    between atoms: C_10  and  N_11
REMARK    6  A    between atoms: C_12  and  C_14
REMARK    7  A    between atoms: C_19  and  C_21
REMARK    8  A    between atoms: N_23  and  C_24
REMARK                            x       y       z     vdW  Elec       q    Type
REMARK                         _______ _______ _______ _____ _____    ______ ____
ROOT
ATOM      1  C   UNL     1       9.161  -3.752   3.943  0.00  0.00    +0.068 C 
ATOM      2  C   UNL     1      10.250  -2.886   3.274  0.00  0.00    -0.069 C 
ATOM      3  N   UNL     1      10.932  -2.204   4.404  0.00  0.00    +0.380 N 
ATOM      4  C   UNL     1      11.013  -3.244   5.463  0.00  0.00    -0.069 C 
ATOM      5  C   UNL     1       9.661  -3.989   5.382  0.00  0.00    +0.068 C 
ATOM      6  H   UNL     1      11.856  -1.906   4.131  0.00  0.00    -0.086 HD
ATOM      7  H   UNL     1      10.386  -1.418   4.723  0.00  0.00    -0.086 HD
ENDROOT
BRANCH   1   9
ATOM      8  N   UNL     1       7.245  -2.682   2.801  0.00  0.00    -0.315 N 
ATOM      9  C   UNL     1       7.846  -3.016   3.960  0.00  0.00    +0.215 C 
ATOM     10  O   UNL     1       7.327  -2.725   5.017  0.00  0.00    -0.276 OA
ATOM     11  H   UNL     1       7.660  -2.914   1.955  0.00  0.00    +0.149 HD
BRANCH   8  12
ATOM     12  C   UNL     1       5.967  -1.966   2.818  0.00  0.00    +0.104 C 
BRANCH  12  13
ATOM     13  C   UNL     1       5.507  -1.710   1.381  0.00  0.00    +0.019 C 
BRANCH  13  14
ATOM     14  C   UNL     1       4.171  -0.963   1.399  0.00  0.00    +0.006 C 
BRANCH  14  15
ATOM     15  C   UNL     1       3.711  -0.707  -0.038  0.00  0.00    +0.035 C 
BRANCH  15  19
ATOM     16  C   UNL     1      -0.017   1.378   0.010  0.00  0.00    +0.000 A 
ATOM     17  C   UNL     1       1.171   2.086   0.002  0.00  0.00    +0.000 A 
ATOM     18  C   UNL     1       2.377   1.411  -0.013  0.00  0.00    +0.003 A 
ATOM     19  C   UNL     1       2.396   0.029  -0.020  0.00  0.00    -0.047 A 
ATOM     20  C   UNL     1       1.208  -0.679  -0.012  0.00  0.00    +0.003 A 
ATOM     21  C   UNL     1       0.002  -0.004   0.002  0.00  0.00    +0.000 A 
ENDBRANCH  15  19
ENDBRANCH  14  15
ENDBRANCH  13  14
ENDBRANCH  12  13
ENDBRANCH   8  12
ENDBRANCH   1   9
BRANCH   5  22
ATOM     22  C   UNL     1       9.858  -5.462   5.632  0.00  0.00    +0.215 C 
ATOM     23  O   UNL     1       9.625  -6.263   4.751  0.00  0.00    -0.276 OA
ATOM     24  N   UNL     1      10.293  -5.890   6.834  0.00  0.00    -0.308 N 
ATOM     25  H   UNL     1      10.480  -5.250   7.538  0.00  0.00    +0.149 HD
BRANCH  24  26
ATOM     26  C   UNL     1      10.485  -7.322   7.076  0.00  0.00    +0.103 C 
ATOM     27  C   UNL     1      10.350  -7.602   8.572  0.00  0.00    +0.027 C 
ATOM     28  C   UNL     1      10.766  -9.055   8.831  0.00  0.00    +0.007 C 
ATOM     29  C   UNL     1      12.274  -9.168   8.619  0.00  0.00    +0.035 C 
ATOM     30  C   UNL     1      12.667  -8.583   7.288  0.00  0.00    -0.042 A 
ATOM     31  C   UNL     1      11.848  -7.731   6.582  0.00  0.00    -0.024 A 
ATOM     32  C   UNL     1      12.274  -7.221   5.363  0.00  0.00    +0.006 A 
ATOM     33  C   UNL     1      13.510  -7.562   4.854  0.00  0.00    +0.000 A 
ATOM     34  C   UNL     1      14.331  -8.419   5.562  0.00  0.00    +0.000 A 
ATOM     35  C   UNL     1      13.910  -8.926   6.772  0.00  0.00    +0.004 A 
ENDBRANCH  24  26
ENDBRANCH   5  22
TORSDOF 8
