REMARK  Name = ZINC63271377
REMARK  5 active torsions:
REMARK  status: ('A' for Active; 'I' for Inactive)
REMARK    1  A    between atoms: N_17  and  C_18
REMARK    2  A    between atoms: C_18  and  C_19
REMARK    3  A    between atoms: C_19  and  C_20
REMARK    4  A    between atoms: C_20  and  C_21
REMARK    5  A    between atoms: C_26  and  C_29
REMARK                            x       y       z     vdW  Elec       q    Type
REMARK                         _______ _______ _______ _____ _____    ______ ____
ROOT
ATOM      1  C   UNL     1      -0.010   1.351   0.010  0.00  0.00    +0.001 A 
ATOM      2  C   UNL     1       1.172   2.104   0.008  0.00  0.00    +0.002 A 
ATOM      3  C   UNL     1       2.396   1.536  -0.007  0.00  0.00    +0.026 A 
ATOM      4  C   UNL     1       2.535   0.122  -0.021  0.00  0.00    +0.043 A 
ATOM      5  N   UNL     1       3.597  -0.651  -0.017  0.00  0.00    -0.376 N 
ATOM      6  C   UNL     1       3.160  -2.042  -0.115  0.00  0.00    +0.124 C 
ATOM      7  C   UNL     1       3.674  -2.887   1.056  0.00  0.00    +0.138 C 
ATOM      8  N   UNL     1       2.879  -4.124   1.104  0.00  0.00    -0.283 N 
ATOM      9  C   UNL     1       1.425  -4.071   1.288  0.00  0.00    +0.114 C 
ATOM     10  C   UNL     1       0.798  -3.236   0.155  0.00  0.00    +0.052 C 
ATOM     11  C   UNL     1       1.644  -1.995  -0.018  0.00  0.00    -0.036 C 
ATOM     12  C   UNL     1       1.299  -0.699  -0.013  0.00  0.00    -0.001 A 
ATOM     13  C   UNL     1       0.008  -0.001  -0.000  0.00  0.00    +0.010 A 
ATOM     14  C   UNL     1       3.492  -5.317   0.976  0.00  0.00    +0.302 C 
ATOM     15  O   UNL     1       4.682  -5.366   0.728  0.00  0.00    -0.253 OA
ATOM     16  N   UNL     1       2.788  -6.456   1.124  0.00  0.00    -0.299 N 
ATOM     17  H   UNL     1       1.827  -6.419   1.249  0.00  0.00    +0.150 HD
ATOM     18  H   UNL     1       4.517  -0.350   0.042  0.00  0.00    +0.160 HD
ENDROOT
BRANCH  16  19
ATOM     19  C   UNL     1       3.473  -7.751   1.094  0.00  0.00    +0.106 C 
BRANCH  19  20
ATOM     20  C   UNL     1       2.451  -8.874   1.283  0.00  0.00    +0.028 C 
BRANCH  20  21
ATOM     21  C   UNL     1       3.167 -10.225   1.252  0.00  0.00    +0.097 C 
BRANCH  21  22
ATOM     22  C   UNL     1       2.161 -11.331   1.438  0.00  0.00    +0.216 C 
ATOM     23  O   UNL     1       0.986 -11.065   1.581  0.00  0.00    -0.276 OA
ATOM     24  N   UNL     1       2.566 -12.617   1.446  0.00  0.00    -0.301 N 
ATOM     25  C   UNL     1       3.986 -12.955   1.280  0.00  0.00    +0.108 C 
ATOM     26  C   UNL     1       4.122 -13.959   0.131  0.00  0.00    +0.032 C 
ATOM     27  C   UNL     1       3.217 -15.163   0.400  0.00  0.00    +0.078 C 
ATOM     28  C   UNL     1       1.759 -14.702   0.468  0.00  0.00    +0.032 C 
ATOM     29  C   UNL     1       1.596 -13.706   1.626  0.00  0.00    +0.108 C 
BRANCH  27  30
ATOM     30  C   UNL     1       3.374 -16.168  -0.712  0.00  0.00    +0.214 C 
ATOM     31  O   UNL     1       4.136 -15.944  -1.629  0.00  0.00    -0.276 OA
ATOM     32  N   UNL     1       2.669 -17.316  -0.687  0.00  0.00    -0.329 N 
ATOM     33  H   UNL     1       2.060 -17.496   0.046  0.00  0.00    +0.145 HD
ATOM     34  H   UNL     1       2.770 -17.963  -1.403  0.00  0.00    +0.145 HD
ENDBRANCH  27  30
ENDBRANCH  21  22
ENDBRANCH  20  21
ENDBRANCH  19  20
ENDBRANCH  16  19
TORSDOF 5
