REMARK  Name = ZINC01920765
REMARK  11 active torsions:
REMARK  status: ('A' for Active; 'I' for Inactive)
REMARK    1  A    between atoms: C_1  and  C_2
REMARK    2  A    between atoms: C_2  and  O_3
REMARK    3  A    between atoms: O_3  and  C_4
REMARK    4  A    between atoms: C_4  and  C_6
REMARK    5  A    between atoms: C_7  and  C_26
REMARK    6  A    between atoms: C_10  and  N_11
REMARK    7  A    between atoms: C_12  and  C_14
REMARK    8  A    between atoms: C_15  and  N_25
REMARK    9  A    between atoms: C_17  and  C_24
REMARK   10  A    between atoms: C_19  and  C_23
REMARK   11  A    between atoms: C_29  and  C_32
REMARK                            x       y       z     vdW  Elec       q    Type
REMARK                         _______ _______ _______ _____ _____    ______ ____
ROOT
ATOM      1  N   UNL     1      -2.455   1.118  -4.508  0.00  0.00    -0.275 N 
ATOM      2  C   UNL     1      -3.124   1.358  -5.653  0.00  0.00    +0.257 C 
ATOM      3  O   UNL     1      -4.237   1.851  -5.616  0.00  0.00    -0.269 OA
ATOM      4  H   UNL     1      -1.450   0.673  -4.541  0.00  0.00    +0.156 HD
ENDROOT
BRANCH   2   5
ATOM      5  C   UNL     1      -2.533   1.037  -6.899  0.00  0.00    +0.097 A 
ATOM      6  C   UNL     1      -3.058   1.202  -8.162  0.00  0.00    +0.054 A 
ATOM      7  C   UNL     1      -2.252   0.799  -9.304  0.00  0.00    +0.030 A 
ATOM      8  C   UNL     1      -2.571   0.873 -10.683  0.00  0.00    -0.037 A 
ATOM      9  C   UNL     1      -1.655   0.424 -11.604  0.00  0.00    +0.025 A 
ATOM     10  C   UNL     1      -0.437  -0.094 -11.187  0.00  0.00    +0.014 A 
ATOM     11  N   UNL     1      -0.144  -0.161  -9.903  0.00  0.00    -0.353 N 
ATOM     12  C   UNL     1      -0.987   0.256  -8.984  0.00  0.00    +0.088 A 
ATOM     13  S   UNL     1      -0.933   0.316  -7.210  0.00  0.00    -0.064 S 
ATOM     14  C   UNL     1       0.557  -0.582 -12.209  0.00  0.00    +0.063 C 
ATOM     15  C   UNL     1      -3.895   1.435 -11.133  0.00  0.00    +0.044 C 
ATOM     16  H   UNL     1       0.824  -0.573  -9.581  0.00  0.00    +0.166 HD
BRANCH   6  17
ATOM     17  N   UNL     1      -4.324   1.744  -8.341  0.00  0.00    -0.356 N 
ATOM     18  H   UNL     1      -4.730   1.869  -9.355  0.00  0.00    +0.142 HD
ATOM     19  H   UNL     1      -4.920   2.047  -7.468  0.00  0.00    +0.142 HD
ENDBRANCH   6  17
ENDBRANCH   2   5
BRANCH   1  24
ATOM     20  C   UNL     1      -2.504   1.259  -2.017  0.00  0.00    +0.095 A 
ATOM     21  C   UNL     1      -3.332   1.685  -0.904  0.00  0.00    +0.005 A 
ATOM     22  C   UNL     1      -4.547   2.205  -1.211  0.00  0.00    +0.056 A 
ATOM     23  S   UNL     1      -4.588   2.129  -2.989  0.00  0.00    -0.080 S 
ATOM     24  C   UNL     1      -3.033   1.431  -3.290  0.00  0.00    +0.087 A 
BRANCH  21  25
ATOM     25  C   UNL     1      -2.873   1.556   0.500  0.00  0.00    -0.017 A 
ATOM     26  C   UNL     1      -2.368   0.342   0.963  0.00  0.00    +0.009 A 
ATOM     27  C   UNL     1      -1.938   0.230   2.269  0.00  0.00    +0.004 A 
ATOM     28  C   UNL     1      -2.017   1.317   3.122  0.00  0.00    -0.050 A 
ATOM     29  C   UNL     1      -2.522   2.523   2.669  0.00  0.00    +0.004 A 
ATOM     30  C   UNL     1      -2.950   2.648   1.364  0.00  0.00    +0.009 A 
ATOM     31  C   UNL     1      -1.550   1.186   4.549  0.00  0.00    +0.044 C 
ENDBRANCH  21  25
BRANCH  20  32
ATOM     32  C   UNL     1      -1.176   0.683  -1.809  0.00  0.00    +0.342 C 
ATOM     33  O   UNL     1      -1.049  -0.519  -1.671  0.00  0.00    -0.245 OA
BRANCH  32  34
ATOM     34  O   UNL     1      -0.091   1.484  -1.776  0.00  0.00    -0.461 OA
BRANCH  34  36
ATOM     35  C   UNL     1       2.278   1.913  -1.568  0.00  0.00    +0.048 C 
ATOM     36  C   UNL     1       1.175   0.853  -1.576  0.00  0.00    +0.229 C 
ENDBRANCH  34  36
ENDBRANCH  32  34
ENDBRANCH  20  32
ENDBRANCH   1  24
TORSDOF 7
