REMARK  Name = ZINC67480930
REMARK  5 active torsions:
REMARK  status: ('A' for Active; 'I' for Inactive)
REMARK    1  A    between atoms: C_4  and  C_7
REMARK    2  A    between atoms: C_7  and  N_8
REMARK    3  A    between atoms: C_12  and  C_14
REMARK    4  A    between atoms: C_14  and  N_15
REMARK    5  A    between atoms: C_21  and  C_24
REMARK                            x       y       z     vdW  Elec       q    Type
REMARK                         _______ _______ _______ _____ _____    ______ ____
ROOT
ATOM      1  C   UNL     1       5.246  -3.006  -2.922  0.00  0.00    +0.090 C 
ENDROOT
BRANCH   1   2
ATOM      2  N   UNL     1       5.888  -2.084  -1.982  0.00  0.00    -0.301 N 
ATOM      3  C   UNL     1       7.013  -2.454  -1.339  0.00  0.00    +0.302 C 
ATOM      4  O   UNL     1       7.496  -3.551  -1.540  0.00  0.00    -0.253 OA
ATOM      5  N   UNL     1       7.604  -1.606  -0.473  0.00  0.00    -0.285 N 
ATOM      6  C   UNL     1       7.126  -0.258  -0.133  0.00  0.00    +0.110 C 
ATOM      7  C   UNL     1       8.099   0.323   0.914  0.00  0.00    +0.033 C 
ATOM      8  C   UNL     1       8.750  -0.946   1.525  0.00  0.00    +0.094 C 
ATOM      9  C   UNL     1       8.832  -1.879   0.294  0.00  0.00    +0.122 C 
ATOM     10  H   UNL     1       5.503  -1.209  -1.821  0.00  0.00    +0.150 HD
BRANCH   8  11
ATOM     11  C   UNL     1      10.122  -0.641   2.069  0.00  0.00    +0.215 C 
ATOM     12  O   UNL     1      10.569   0.483   1.990  0.00  0.00    -0.276 OA
ATOM     13  N   UNL     1      10.851  -1.618   2.643  0.00  0.00    -0.329 N 
ATOM     14  H   UNL     1      10.493  -2.518   2.706  0.00  0.00    +0.145 HD
ATOM     15  H   UNL     1      11.734  -1.422   2.993  0.00  0.00    +0.145 HD
ENDBRANCH   8  11
ENDBRANCH   1   2
BRANCH   1  20
ATOM     16  N   UNL     1       3.102  -1.908  -2.422  0.00  0.00    +0.383 N 
ATOM     17  C   UNL     1       1.818  -2.629  -2.549  0.00  0.00    -0.078 C 
ATOM     18  C   UNL     1       1.734  -3.028  -4.044  0.00  0.00    -0.020 C 
ATOM     19  C   UNL     1       3.214  -3.369  -4.361  0.00  0.00    -0.016 C 
ATOM     20  C   UNL     1       3.996  -2.346  -3.510  0.00  0.00    -0.051 C 
ATOM     21  H   UNL     1       3.522  -2.122  -1.530  0.00  0.00    -0.081 HD
BRANCH  16  22
ATOM     22  C   UNL     1       2.870  -0.461  -2.526  0.00  0.00    -0.075 C 
BRANCH  22  26
ATOM     23  C   UNL     1       1.759   1.798   0.993  0.00  0.00    +0.000 C 
ATOM     24  C   UNL     1       2.121   0.322   1.168  0.00  0.00    +0.000 C 
ATOM     25  C   UNL     1       2.918  -0.155  -0.047  0.00  0.00    +0.002 C 
ATOM     26  C   UNL     1       2.073   0.016  -1.311  0.00  0.00    -0.028 C 
ATOM     27  C   UNL     1       1.710   1.492  -1.486  0.00  0.00    +0.002 C 
ATOM     28  C   UNL     1       0.913   1.969  -0.271  0.00  0.00    +0.000 C 
ENDBRANCH  22  26
ENDBRANCH  16  22
ENDBRANCH   1  20
TORSDOF 5
