REMARK  Name = ZINC02301681
REMARK  7 active torsions:
REMARK  status: ('A' for Active; 'I' for Inactive)
REMARK    1  A    between atoms: C_3  and  C_6
REMARK    2  A    between atoms: C_9  and  C_29
REMARK    3  A    between atoms: C_14  and  C_16
REMARK    4  A    between atoms: N_18  and  C_19
REMARK    5  A    between atoms: C_19  and  C_20
REMARK    6  A    between atoms: C_20  and  C_21
REMARK    7  A    between atoms: C_21  and  N_54
REMARK                            x       y       z     vdW  Elec       q    Type
REMARK                         _______ _______ _______ _____ _____    ______ ____
ROOT
ATOM      1  C   UNL     1      -6.630  -0.786  -0.395  0.00  0.00    +0.111 C 
ATOM      2  C   UNL     1      -6.021  -1.937   0.411  0.00  0.00    +0.063 C 
ATOM      3  C   UNL     1      -4.546  -2.096   0.015  0.00  0.00    +0.215 C 
ATOM      4  N   UNL     1      -3.935  -0.761   0.018  0.00  0.00    -0.237 N 
ATOM      5  C   UNL     1      -4.642   0.404   0.027  0.00  0.00    +0.133 A 
ATOM      6  C   UNL     1      -3.753   1.426   0.033  0.00  0.00    +0.089 A 
ATOM      7  C   UNL     1      -2.456   0.868   0.018  0.00  0.00    +0.163 A 
ATOM      8  N   UNL     1      -2.575  -0.448   0.012  0.00  0.00    -0.163 NA
ATOM      9 BR   UNL     1      -4.174   3.269   0.054  0.00  0.00    -0.044 Br
ATOM     10  N   UNL     1      -6.033   0.488   0.034  0.00  0.00    -0.321 N 
ATOM     11  H   UNL     1      -6.375   0.760   0.943  0.00  0.00    +0.148 HD
ENDROOT
BRANCH   1  14
ATOM     12  C   UNL     1      -6.704  -1.607  -4.114  0.00  0.00    +0.008 A 
ATOM     13  C   UNL     1      -7.175  -1.501  -2.819  0.00  0.00    +0.013 A 
ATOM     14  C   UNL     1      -6.356  -1.000  -1.861  0.00  0.00    +0.010 A 
ATOM     15  S   UNL     1      -4.871  -0.654  -2.789  0.00  0.00    -0.100 S 
ATOM     16  C   UNL     1      -5.438  -1.208  -4.389  0.00  0.00    +0.045 A 
ENDBRANCH   1  14
BRANCH   7  17
ATOM     17  C   UNL     1      -1.187   1.624   0.017  0.00  0.00    +0.265 C 
ATOM     18  O   UNL     1      -1.204   2.839   0.023  0.00  0.00    -0.268 OA
ATOM     19  N   UNL     1      -0.011   0.966   0.007  0.00  0.00    -0.310 N 
ATOM     20  H   UNL     1       0.002  -0.004   0.002  0.00  0.00    +0.149 HD
BRANCH  19  21
ATOM     21  C   UNL     1       1.248   1.716  -0.001  0.00  0.00    +0.103 C 
BRANCH  21  22
ATOM     22  C   UNL     1       2.424   0.737  -0.017  0.00  0.00    +0.000 C 
BRANCH  22  23
ATOM     23  C   UNL     1       3.738   1.520  -0.025  0.00  0.00    -0.077 C 
BRANCH  23  29
ATOM     24  C   UNL     1       4.933  -0.186   1.211  0.00  0.00    -0.050 C 
ATOM     25  C   UNL     1       6.084  -1.192   1.129  0.00  0.00    +0.141 C 
ATOM     26  O   UNL     1       7.302  -0.493   0.857  0.00  0.00    -0.383 OA
ATOM     27  C   UNL     1       7.274   0.264  -0.356  0.00  0.00    +0.141 C 
ATOM     28  C   UNL     1       6.135   1.284  -0.288  0.00  0.00    -0.050 C 
ATOM     29  N   UNL     1       4.865   0.563  -0.061  0.00  0.00    +0.383 N 
ATOM     30  H   UNL     1       4.715  -0.100  -0.831  0.00  0.00    -0.082 HD
ENDBRANCH  23  29
ENDBRANCH  22  23
ENDBRANCH  21  22
ENDBRANCH  19  21
ENDBRANCH   7  17
BRANCH   3  31
ATOM     31  C   UNL     1      -3.833  -2.994   1.027  0.00  0.00    +0.412 C 
ATOM     32  F   UNL     1      -3.944  -2.437   2.306  0.00  0.00    -0.168 F 
ATOM     33  F   UNL     1      -4.420  -4.264   1.019  0.00  0.00    -0.168 F 
ATOM     34  F   UNL     1      -2.481  -3.104   0.683  0.00  0.00    -0.168 F 
ENDBRANCH   3  31
TORSDOF 7
