REMARK  Name = ZINC23127141
REMARK  8 active torsions:
REMARK  status: ('A' for Active; 'I' for Inactive)
REMARK    1  A    between atoms: C_6  and  C_7
REMARK    2  A    between atoms: C_13  and  O_27
REMARK    3  A    between atoms: C_14  and  C_22
REMARK    4  A    between atoms: C_17  and  C_18
REMARK    5  A    between atoms: C_22  and  N_23
REMARK    6  A    between atoms: N_23  and  C_24
REMARK    7  A    between atoms: C_24  and  C_25
REMARK    8  A    between atoms: C_25  and  O_26
REMARK                            x       y       z     vdW  Elec       q    Type
REMARK                         _______ _______ _______ _____ _____    ______ ____
ROOT
ATOM      1  C   UNL     1      -1.790  -3.862  -3.654  0.00  0.00    +0.076 A 
ATOM      2  C   UNL     1      -1.787  -4.766  -2.491  0.00  0.00    +0.201 A 
ATOM      3  O   UNL     1      -2.239  -5.896  -2.558  0.00  0.00    -0.286 OA
ATOM      4  C   UNL     1      -1.210  -4.238  -1.241  0.00  0.00    +0.065 A 
ATOM      5  C   UNL     1      -1.159  -5.014  -0.083  0.00  0.00    +0.019 A 
ATOM      6  C   UNL     1      -0.618  -4.494   1.058  0.00  0.00    +0.046 A 
ATOM      7  C   UNL     1      -0.118  -3.193   1.070  0.00  0.00    +0.122 A 
ATOM      8  C   UNL     1      -0.162  -2.411  -0.071  0.00  0.00    +0.020 A 
ATOM      9  C   UNL     1      -0.714  -2.922  -1.238  0.00  0.00    +0.144 A 
ATOM     10  O   UNL     1      -0.759  -2.176  -2.360  0.00  0.00    -0.450 OA
ATOM     11  C   UNL     1      -1.272  -2.615  -3.512  0.00  0.00    +0.219 A 
ENDROOT
BRANCH   1  17
ATOM     12  C   UNL     1      -3.548  -3.766  -5.419  0.00  0.00    +0.011 A 
ATOM     13  C   UNL     1      -4.063  -4.178  -6.631  0.00  0.00    +0.039 A 
ATOM     14  C   UNL     1      -3.396  -5.133  -7.380  0.00  0.00    +0.123 A 
ATOM     15  C   UNL     1      -2.207  -5.675  -6.920  0.00  0.00    +0.039 A 
ATOM     16  C   UNL     1      -1.683  -5.266  -5.711  0.00  0.00    +0.011 A 
ATOM     17  C   UNL     1      -2.350  -4.305  -4.954  0.00  0.00    -0.011 A 
ATOM     18  F   UNL     1      -3.906  -5.537  -8.565  0.00  0.00    -0.205 F 
ENDBRANCH   1  17
BRANCH  11  19
ATOM     19  C   UNL     1      -1.276  -1.690  -4.702  0.00  0.00    +0.451 C 
ATOM     20  F   UNL     1      -2.592  -1.329  -5.008  0.00  0.00    -0.163 F 
ATOM     21  F   UNL     1      -0.535  -0.541  -4.402  0.00  0.00    -0.163 F 
ATOM     22  F   UNL     1      -0.703  -2.340  -5.800  0.00  0.00    -0.163 F 
ENDBRANCH  11  19
BRANCH   7  23
ATOM     23  O   UNL     1       0.417  -2.689   2.211  0.00  0.00    -0.506 OA
ATOM     24  H   UNL     1       0.814  -1.663   2.226  0.00  0.00    +0.292 HD
ENDBRANCH   7  23
BRANCH   8  25
ATOM     25  C   UNL     1       0.382  -1.006  -0.045  0.00  0.00    -0.039 C 
BRANCH  25  26
ATOM     26  N   UNL     1       1.804  -1.024  -0.410  0.00  0.00    +0.383 N 
ATOM     27  H   UNL     1       2.359  -1.645   0.308  0.00  0.00    -0.085 HD
ATOM     28  H   UNL     1       1.918  -1.442  -1.421  0.00  0.00    -0.085 HD
BRANCH  26  29
ATOM     29  C   UNL     1       2.369   0.332  -0.395  0.00  0.00    -0.054 C 
BRANCH  29  30
ATOM     30  C   UNL     1       3.849   0.273  -0.780  0.00  0.00    +0.137 C 
BRANCH  30  31
ATOM     31  O   UNL     1       3.972  -0.173  -2.132  0.00  0.00    -0.397 OA
ATOM     32  H   UNL     1       4.967  -0.279  -2.588  0.00  0.00    +0.209 HD
ENDBRANCH  30  31
ENDBRANCH  29  30
ENDBRANCH  26  29
ENDBRANCH  25  26
ENDBRANCH   8  25
TORSDOF 8
