REMARK  Name = ZINC22048461
REMARK  14 active torsions:
REMARK  status: ('A' for Active; 'I' for Inactive)
REMARK    1  A    between atoms: C_1  and  C_2
REMARK    2  A    between atoms: C_2  and  C_3
REMARK    3  A    between atoms: C_2  and  C_4
REMARK    4  A    between atoms: C_2  and  N_6
REMARK    5  A    between atoms: C_4  and  O_5
REMARK    6  A    between atoms: C_7  and  C_9
REMARK    7  A    between atoms: N_21  and  C_22
REMARK    8  A    between atoms: C_22  and  C_23
REMARK    9  A    between atoms: C_23  and  C_25
REMARK   10  A    between atoms: C_23  and  O_36
REMARK   11  A    between atoms: C_25  and  C_27
REMARK   12  A    between atoms: C_25  and  N_35
REMARK   13  A    between atoms: C_27  and  S_28
REMARK   14  A    between atoms: S_28  and  C_29
REMARK                            x       y       z     vdW  Elec       q    Type
REMARK                         _______ _______ _______ _____ _____    ______ ____
ROOT
ATOM      1  C   UNL     1       2.095   1.605   1.197  0.00  0.00    +0.020 C 
ATOM      2  C   UNL     1       2.172   0.076   1.232  0.00  0.00    -0.003 C 
ATOM      3  C   UNL     1       0.753  -0.499   1.240  0.00  0.00    -0.011 C 
ATOM      4  C   UNL     1       0.815  -2.026   1.232  0.00  0.00    +0.004 C 
ATOM      5  C   UNL     1       1.535  -2.505  -0.030  0.00  0.00    +0.000 C 
ATOM      6  C   UNL     1       0.772  -2.018  -1.264  0.00  0.00    +0.000 C 
ATOM      7  C   UNL     1       0.721  -0.489  -1.259  0.00  0.00    +0.002 C 
ATOM      8  C   UNL     1       0.002  -0.004   0.002  0.00  0.00    -0.025 C 
ATOM      9  C   UNL     1      -0.019   1.528   0.010  0.00  0.00    -0.074 C 
ATOM     10  N   UNL     1       1.360   2.033   0.000  0.00  0.00    +0.389 N 
ATOM     11  H   UNL     1       1.867   1.602  -0.875  0.00  0.00    -0.081 HD
ENDROOT
BRANCH   1  13
ATOM     12  N   UNL     1       4.206   2.272   2.299  0.00  0.00    -0.309 N 
ATOM     13  C   UNL     1       3.488   2.177   1.162  0.00  0.00    +0.200 C 
ATOM     14  O   UNL     1       3.964   2.551   0.111  0.00  0.00    -0.278 OA
ATOM     15  H   UNL     1       3.775   1.933   3.252  0.00  0.00    +0.149 HD
BRANCH  12  17
ATOM     16  C   UNL     1       6.439   1.978   1.344  0.00  0.00    +0.033 C 
ATOM     17  C   UNL     1       5.561   2.828   2.265  0.00  0.00    +0.052 C 
ATOM     18  C   UNL     1       5.510   4.264   1.738  0.00  0.00    +0.033 C 
BRANCH  17  19
ATOM     19  C   UNL     1       6.150   2.824   3.677  0.00  0.00    +0.181 C 
BRANCH  19  20
ATOM     20  O   UNL     1       7.471   3.366   3.644  0.00  0.00    -0.393 OA
ATOM     21  H   UNL     1       8.057   3.444   4.572  0.00  0.00    +0.209 HD
ENDBRANCH  19  20
ENDBRANCH  17  19
ENDBRANCH  12  17
ENDBRANCH   1  13
BRANCH  10  22
ATOM     22  C   UNL     1       1.383   3.496  -0.136  0.00  0.00    -0.048 C 
BRANCH  22  23
ATOM     23  C   UNL     1       0.771   4.134   1.112  0.00  0.00    +0.084 C 
BRANCH  23  24
ATOM     24  O   UNL     1       1.592   3.847   2.246  0.00  0.00    -0.395 OA
ATOM     25  H   UNL     1       1.310   4.225   3.240  0.00  0.00    +0.210 HD
ENDBRANCH  23  24
BRANCH  23  26
ATOM     26  C   UNL     1       0.680   5.649   0.919  0.00  0.00    -0.038 C 
BRANCH  26  27
ATOM     27  N   UNL     1      -0.164   5.944  -0.246  0.00  0.00    +0.382 N 
ATOM     28  H   UNL     1      -0.229   7.034  -0.386  0.00  0.00    -0.090 HD
ATOM     29  H   UNL     1      -1.172   5.535  -0.082  0.00  0.00    -0.090 HD
ATOM     30  H   UNL     1       0.276   5.486  -1.144  0.00  0.00    -0.090 HD
ENDBRANCH  26  27
BRANCH  26  31
ATOM     31  C   UNL     1       0.068   6.287   2.167  0.00  0.00    +0.060 C 
BRANCH  31  32
ATOM     32  S   UNL     1      -0.039   8.083   1.938  0.00  0.00    -0.127 S 
BRANCH  32  33
ATOM     33  C   UNL     1      -0.754   8.663   3.440  0.00  0.00    +0.008 A 
ATOM     34  C   UNL     1      -1.091   7.763   4.444  0.00  0.00    +0.015 A 
ATOM     35  C   UNL     1      -1.646   8.222   5.622  0.00  0.00    +0.001 A 
ATOM     36  C   UNL     1      -1.878   9.574   5.799  0.00  0.00    +0.000 A 
ATOM     37  C   UNL     1      -1.549  10.472   4.800  0.00  0.00    +0.001 A 
ATOM     38  C   UNL     1      -0.988  10.021   3.621  0.00  0.00    +0.015 A 
ENDBRANCH  32  33
ENDBRANCH  31  32
ENDBRANCH  26  31
ENDBRANCH  23  26
ENDBRANCH  22  23
ENDBRANCH  10  22
TORSDOF 12
