REMARK  Name = ZINC65386428
REMARK  3 active torsions:
REMARK  status: ('A' for Active; 'I' for Inactive)
REMARK    1  A    between atoms: C_1  and  C_2
REMARK    2  A    between atoms: C_6  and  N_8
REMARK    3  A    between atoms: C_10  and  C_13
REMARK                            x       y       z     vdW  Elec       q    Type
REMARK                         _______ _______ _______ _____ _____    ______ ____
ROOT
ATOM      1  C   UNL     1       0.246  -5.796   4.466  0.00  0.00    +0.080 C 
ATOM      2  C   UNL     1      -1.024  -6.085   5.244  0.00  0.00    +0.110 C 
ATOM      3  C   UNL     1      -1.035  -7.482   5.776  0.00  0.00    +0.214 C 
ATOM      4  O   UNL     1      -1.797  -8.286   5.282  0.00  0.00    -0.276 OA
ATOM      5  N   UNL     1      -0.246  -7.881   6.768  0.00  0.00    -0.310 N 
ATOM      6  C   UNL     1       0.577  -6.920   7.496  0.00  0.00    +0.161 C 
ATOM      7  C   UNL     1       1.612  -6.299   6.598  0.00  0.00    +0.081 A 
ATOM      8  C   UNL     1       1.469  -5.850   5.343  0.00  0.00    +0.056 A 
ATOM      9  N   UNL     1       2.704  -5.403   4.932  0.00  0.00    -0.303 N 
ATOM     10  C   UNL     1       3.139  -4.871   3.753  0.00  0.00    +0.093 A 
ATOM     11  C   UNL     1       4.428  -4.498   3.605  0.00  0.00    +0.018 A 
ATOM     12  C   UNL     1       5.338  -4.656   4.664  0.00  0.00    +0.005 A 
ATOM     13  C   UNL     1       4.916  -5.189   5.842  0.00  0.00    +0.047 A 
ATOM     14  C   UNL     1       3.566  -5.574   5.980  0.00  0.00    +0.138 A 
ATOM     15  N   UNL     1       2.890  -6.113   6.976  0.00  0.00    -0.231 NA
ATOM     16  H   UNL     1      -0.217  -8.819   7.011  0.00  0.00    +0.149 HD
ENDROOT
BRANCH   1  19
ATOM     17  N   UNL     1       0.052  -2.798   2.395  0.00  0.00    -0.240 N 
ATOM     18  C   UNL     1       0.172  -4.138   2.530  0.00  0.00    +0.118 A 
ATOM     19  C   UNL     1       0.143  -4.423   3.852  0.00  0.00    -0.000 A 
ATOM     20  C   UNL     1       0.002  -3.219   4.550  0.00  0.00    +0.139 A 
ATOM     21  N   UNL     1      -0.047  -2.244   3.678  0.00  0.00    -0.175 NA
BRANCH  17  27
ATOM     22  C   UNL     1      -0.018   1.503   0.010  0.00  0.00    +0.044 C 
ATOM     23  C   UNL     1       0.002  -0.004   0.002  0.00  0.00    -0.048 A 
ATOM     24  C   UNL     1       0.006  -0.688  -1.200  0.00  0.00    +0.003 A 
ATOM     25  C   UNL     1       0.025  -2.071  -1.212  0.00  0.00    +0.002 A 
ATOM     26  C   UNL     1       0.040  -2.773  -0.022  0.00  0.00    +0.028 A 
ATOM     27  C   UNL     1       0.037  -2.089   1.186  0.00  0.00    +0.066 A 
ATOM     28  C   UNL     1       0.023  -0.700   1.194  0.00  0.00    +0.031 A 
ENDBRANCH  17  27
ENDBRANCH   1  19
TORSDOF 2
