REMARK  Name = ZINC40777227
REMARK  11 active torsions:
REMARK  status: ('A' for Active; 'I' for Inactive)
REMARK    1  A    between atoms: CD1_1  and  CG_2
REMARK    2  A    between atoms: CG_2  and  CD2_3
REMARK    3  A    between atoms: CG_2  and  CB_4
REMARK    4  A    between atoms: CB_4  and  CA_5
REMARK    5  A    between atoms: CA_5  and  C_7
REMARK    6  A    between atoms: CA_5  and  N_9
REMARK    7  A    between atoms: C_7  and  O_8
REMARK    8  A    between atoms: N_9  and  C_10
REMARK    9  A    between atoms: C_10  and  C_11
REMARK   10  A    between atoms: C_11  and  C_13
REMARK   11  A    between atoms: C_11  and  O_21
REMARK                            x       y       z     vdW  Elec       q    Type
REMARK                         _______ _______ _______ _____ _____    ______ ____
ROOT
ATOM      1  C   UNK A   0      -0.930  -4.016   1.279  0.00  0.00    -0.046 C 
ENDROOT
BRANCH   1   2
ATOM      2  N   LEU A   1      -0.933  -2.548   1.294  0.00  0.00    +0.384 N 
ATOM      3  H1  LEU A   1       0.004  -2.211   1.455  0.00  0.00    -0.085 HD
ATOM      4  H2  LEU A   1      -1.539  -2.220   2.031  0.00  0.00    -0.085 HD
BRANCH   2   5
ATOM      5  CA  LEU A   1      -1.419  -2.046   0.001  0.00  0.00    -0.046 C 
BRANCH   5   6
ATOM      6  CB  LEU A   1      -1.280  -0.523  -0.040  0.00  0.00    -0.011 C 
BRANCH   6   8
ATOM      7  CD1 LEU A   1       0.913  -0.645  -1.230  0.00  0.00    +0.007 C 
ATOM      8  CG  LEU A   1       0.201  -0.144   0.028  0.00  0.00    -0.019 C 
ATOM      9  CD2 LEU A   1       0.334   1.378   0.117  0.00  0.00    +0.007 C 
ENDBRANCH   6   8
ENDBRANCH   5   6
BRANCH   5  10
ATOM     10  C   LEU A   1      -2.889  -2.429  -0.174  0.00  0.00    +0.140 C 
BRANCH  10  11
ATOM     11  O   LEU A   1      -3.677  -1.759   0.811  0.00  0.00    -0.397 OA
ATOM     12  H   LEU A   1      -4.623  -1.956   0.759  0.00  0.00    +0.209 HD
ENDBRANCH  10  11
ENDBRANCH   5  10
ENDBRANCH   2   5
ENDBRANCH   1   2
BRANCH   1  13
ATOM     13  C   UNK A   0      -0.424  -4.539   2.626  0.00  0.00    +0.129 C 
BRANCH  13  14
ATOM     14  C   UNK A   0      -0.305  -6.040   2.569  0.00  0.00    -0.001 A 
ATOM     15  C   UNK A   0      -1.343  -6.833   3.019  0.00  0.00    +0.027 A 
ATOM     16  C   UNK A   0      -1.233  -8.211   2.967  0.00  0.00    +0.041 A 
ATOM     17  C   UNK A   0      -0.084  -8.795   2.465  0.00  0.00    +0.021 A 
ATOM     18  C   UNK A   0       0.955  -8.002   2.016  0.00  0.00    +0.022 A 
ATOM     19  C   UNK A   0       0.842  -6.624   2.062  0.00  0.00    +0.047 A 
ATOM     20 CL   UNK A   0       2.144  -5.627   1.490  0.00  0.00    -0.083 Cl
ATOM     21 CL   UNK A   0      -2.537  -9.208   3.533  0.00  0.00    -0.084 Cl
ENDBRANCH  13  14
BRANCH  13  22
ATOM     22  O   UNK A   0      -1.345  -4.173   3.655  0.00  0.00    -0.389 OA
ATOM     23  H   UNK A   0      -2.237  -4.526   3.529  0.00  0.00    +0.210 HD
ENDBRANCH  13  22
ENDBRANCH   1  13
TORSDOF 9
