REMARK  Name = ZINC03354439
REMARK  9 active torsions:
REMARK  status: ('A' for Active; 'I' for Inactive)
REMARK    1  A    between atoms: C_1  and  C_2
REMARK    2  A    between atoms: C_5  and  O_34
REMARK    3  A    between atoms: C_6  and  N_8
REMARK    4  A    between atoms: C_9  and  C_11
REMARK    5  A    between atoms: C_11  and  C_13
REMARK    6  A    between atoms: C_11  and  N_63
REMARK    7  A    between atoms: N_21  and  S_24
REMARK    8  A    between atoms: S_24  and  C_27
REMARK    9  A    between atoms: O_34  and  C_35
REMARK                            x       y       z     vdW  Elec       q    Type
REMARK                         _______ _______ _______ _____ _____    ______ ____
ROOT
ATOM      1  C   UNL     1      -2.570   4.146   0.252  0.00  0.00    +0.050 C 
ENDROOT
BRANCH   1   7
ATOM      2  C   UNL     1      -1.420   5.897   1.466  0.00  0.00    -0.060 C 
ATOM      3  C   UNL     1      -0.983   7.364   1.391  0.00  0.00    +0.091 C 
ATOM      4  N   UNL     1      -2.183   8.203   1.257  0.00  0.00    -0.180 NA
ATOM      5  C   UNL     1      -3.154   7.865   0.205  0.00  0.00    +0.091 C 
ATOM      6  C   UNL     1      -3.506   6.378   0.326  0.00  0.00    -0.060 C 
ATOM      7  N   UNL     1      -2.255   5.590   0.285  0.00  0.00    +0.392 N 
ATOM      8  H   UNL     1      -1.734   5.837  -0.564  0.00  0.00    -0.080 HD
BRANCH   4   9
ATOM      9  S   UNL     1      -2.435   9.494   2.262  0.00  0.00    +0.061 S 
ATOM     10  O   UNL     1      -1.158   9.891   2.742  0.00  0.00    -0.153 OA
ATOM     11  O   UNL     1      -3.300  10.385   1.570  0.00  0.00    -0.153 OA
BRANCH   9  12
ATOM     12  C   UNL     1      -3.335   8.901   3.656  0.00  0.00    +0.106 A 
ATOM     13  C   UNL     1      -4.717   8.912   3.642  0.00  0.00    +0.031 A 
ATOM     14  C   UNL     1      -5.423   8.442   4.733  0.00  0.00    +0.040 A 
ATOM     15  C   UNL     1      -4.746   7.971   5.845  0.00  0.00    +0.124 A 
ATOM     16  C   UNL     1      -3.362   7.966   5.861  0.00  0.00    +0.040 A 
ATOM     17  C   UNL     1      -2.657   8.431   4.766  0.00  0.00    +0.031 A 
ATOM     18  F   UNL     1      -5.436   7.517   6.914  0.00  0.00    -0.205 F 
ENDBRANCH   9  12
ENDBRANCH   4   9
ENDBRANCH   1   7
BRANCH   1  19
ATOM     19  C   UNL     1      -3.404   3.856  -0.969  0.00  0.00    -0.052 A 
ATOM     20  C   UNL     1      -3.075   4.430  -2.183  0.00  0.00    +0.002 A 
ATOM     21  C   UNL     1      -3.837   4.161  -3.304  0.00  0.00    +0.000 A 
ATOM     22  C   UNL     1      -4.934   3.325  -3.210  0.00  0.00    +0.000 A 
ATOM     23  C   UNL     1      -5.266   2.755  -1.995  0.00  0.00    +0.000 A 
ATOM     24  C   UNL     1      -4.501   3.021  -0.875  0.00  0.00    +0.002 A 
ENDBRANCH   1  19
BRANCH   1  26
ATOM     25  N   UNL     1      -1.232   2.103   0.640  0.00  0.00    -0.284 N 
ATOM     26  C   UNL     1      -1.282   3.368   0.178  0.00  0.00    +0.208 C 
ATOM     27  O   UNL     1      -0.290   3.879  -0.299  0.00  0.00    -0.277 OA
ATOM     28  H   UNL     1      -2.040   1.669   0.956  0.00  0.00    +0.155 HD
BRANCH  25  34
ATOM     29  C   UNL     1       3.684   2.196   0.592  0.00  0.00    +0.044 C 
ATOM     30  C   UNL     1       2.386   1.433   0.639  0.00  0.00    -0.048 A 
ATOM     31  C   UNL     1       2.400   0.051   0.700  0.00  0.00    +0.007 A 
ATOM     32  C   UNL     1       1.212  -0.654   0.744  0.00  0.00    +0.048 A 
ATOM     33  C   UNL     1       0.003   0.022   0.726  0.00  0.00    +0.141 A 
ATOM     34  C   UNL     1      -0.012   1.413   0.664  0.00  0.00    +0.076 A 
ATOM     35  C   UNL     1       1.184   2.115   0.621  0.00  0.00    +0.030 A 
BRANCH  33  36
ATOM     36  O   UNL     1      -1.166  -0.671   0.768  0.00  0.00    -0.493 OA
ATOM     37  C   UNL     1      -1.074  -2.096   0.830  0.00  0.00    +0.277 C 
ENDBRANCH  33  36
ENDBRANCH  25  34
ENDBRANCH   1  26
TORSDOF 7
