REMARK  Name = ZINC67571714
REMARK  10 active torsions:
REMARK  status: ('A' for Active; 'I' for Inactive)
REMARK    1  A    between atoms: C_1  and  C_2
REMARK    2  A    between atoms: C_2  and  N_3
REMARK    3  A    between atoms: C_7  and  C_9
REMARK    4  A    between atoms: C_9  and  N_10
REMARK    5  A    between atoms: C_11  and  C_13
REMARK    6  A    between atoms: C_18  and  C_21
REMARK    7  A    between atoms: N_23  and  C_24
REMARK    8  A    between atoms: C_24  and  C_25
REMARK    9  A    between atoms: N_30  and  C_31
REMARK   10  A    between atoms: C_31  and  C_32
REMARK                            x       y       z     vdW  Elec       q    Type
REMARK                         _______ _______ _______ _____ _____    ______ ____
ROOT
ATOM      1  C   UNL     1       5.033  -1.742  -1.518  0.00  0.00    +0.076 C 
ATOM      2  C   UNL     1       4.523  -2.108  -2.913  0.00  0.00    +0.013 C 
ATOM      3  C   UNL     1       5.289  -1.302  -3.964  0.00  0.00    +0.001 C 
ATOM      4  C   UNL     1       6.782  -1.624  -3.865  0.00  0.00    +0.013 C 
ATOM      5  C   UNL     1       7.292  -1.258  -2.470  0.00  0.00    +0.076 C 
ATOM      6  C   UNL     1       6.525  -2.064  -1.419  0.00  0.00    +0.025 C 
ENDROOT
BRANCH   1   8
ATOM      7  N   UNL     1       2.939  -2.412  -0.383  0.00  0.00    -0.317 N 
ATOM      8  C   UNL     1       4.278  -2.535  -0.482  0.00  0.00    +0.216 C 
ATOM      9  O   UNL     1       4.875  -3.285   0.261  0.00  0.00    -0.276 OA
ATOM     10  H   UNL     1       2.462  -1.812  -0.978  0.00  0.00    +0.149 HD
BRANCH   7  11
ATOM     11  C   UNL     1       2.206  -3.184   0.623  0.00  0.00    +0.089 C 
BRANCH  11  16
ATOM     12  N   UNL     1       0.506  -1.406   0.641  0.00  0.00    +0.382 N 
ATOM     13  C   UNL     1      -0.324  -1.143   1.836  0.00  0.00    -0.078 C 
ATOM     14  C   UNL     1      -1.106  -2.459   2.072  0.00  0.00    -0.020 C 
ATOM     15  C   UNL     1      -0.046  -3.526   1.692  0.00  0.00    -0.016 C 
ATOM     16  C   UNL     1       0.713  -2.861   0.524  0.00  0.00    -0.051 C 
ATOM     17  H   UNL     1       1.397  -0.943   0.739  0.00  0.00    -0.081 HD
BRANCH  12  19
ATOM     18  C   UNL     1      -0.284   0.617  -0.490  0.00  0.00    -0.017 C 
ATOM     19  C   UNL     1      -0.182  -0.908  -0.558  0.00  0.00    -0.082 C 
ENDBRANCH  12  19
ENDBRANCH  11  16
ENDBRANCH   7  11
ENDBRANCH   1   8
BRANCH   5  20
ATOM     20  C   UNL     1       8.761  -1.575  -2.373  0.00  0.00    +0.216 C 
ATOM     21  O   UNL     1       9.157  -2.368  -1.544  0.00  0.00    -0.276 OA
ATOM     22  N   UNL     1       9.636  -0.978  -3.206  0.00  0.00    -0.317 N 
ATOM     23  H   UNL     1       9.320  -0.344  -3.868  0.00  0.00    +0.149 HD
BRANCH  22  24
ATOM     24  C   UNL     1      11.065  -1.287  -3.111  0.00  0.00    +0.089 C 
BRANCH  24  25
ATOM     25  C   UNL     1      11.816  -0.579  -4.241  0.00  0.00    -0.051 C 
ATOM     26  C   UNL     1      11.362  -1.140  -5.605  0.00  0.00    -0.016 C 
ATOM     27  C   UNL     1      12.680  -1.175  -6.424  0.00  0.00    -0.020 C 
ATOM     28  C   UNL     1      13.715  -1.551  -5.335  0.00  0.00    -0.078 C 
ATOM     29  N   UNL     1      13.263  -0.834  -4.119  0.00  0.00    +0.382 N 
ATOM     30  H   UNL     1      13.757   0.042  -4.036  0.00  0.00    -0.081 HD
BRANCH  29  31
ATOM     31  C   UNL     1      13.521  -1.660  -2.932  0.00  0.00    -0.082 C 
ATOM     32  C   UNL     1      15.030  -1.840  -2.754  0.00  0.00    -0.017 C 
ENDBRANCH  29  31
ENDBRANCH  24  25
ENDBRANCH  22  24
ENDBRANCH   5  20
TORSDOF 8
