REMARK  Name = ZINC09337799
REMARK  6 active torsions:
REMARK  status: ('A' for Active; 'I' for Inactive)
REMARK    1  A    between atoms: C_1  and  C_2
REMARK    2  A    between atoms: C_5  and  N_12
REMARK    3  A    between atoms: C_7  and  S_8
REMARK    4  A    between atoms: S_8  and  N_11
REMARK    5  A    between atoms: C_13  and  C_15
REMARK    6  A    between atoms: C_15  and  N_52
REMARK                            x       y       z     vdW  Elec       q    Type
REMARK                         _______ _______ _______ _____ _____    ______ ____
ROOT
ATOM      1  N   UNL     1       4.564   7.270   0.525  0.00  0.00    -0.287 N 
ATOM      2  C   UNL     1       4.307   5.988   0.198  0.00  0.00    +0.201 C 
ATOM      3  O   UNL     1       5.220   5.199   0.073  0.00  0.00    -0.278 OA
ATOM      4  H   UNL     1       3.843   7.918   0.550  0.00  0.00    +0.155 HD
ENDROOT
BRANCH   1   9
ATOM      5  C   UNL     1       9.864   8.874   1.759  0.00  0.00    +0.046 C 
ATOM      6  C   UNL     1       8.457   8.447   1.431  0.00  0.00    -0.024 A 
ATOM      7  C   UNL     1       7.596   9.331   0.804  0.00  0.00    +0.007 A 
ATOM      8  C   UNL     1       6.306   8.944   0.503  0.00  0.00    +0.023 A 
ATOM      9  C   UNL     1       5.872   7.665   0.829  0.00  0.00    +0.035 A 
ATOM     10  C   UNL     1       6.736   6.783   1.464  0.00  0.00    +0.052 A 
ATOM     11  C   UNL     1       8.027   7.175   1.758  0.00  0.00    +0.110 A 
BRANCH  11  12
ATOM     12  S   UNL     1       9.127   6.053   2.557  0.00  0.00    +0.056 S 
ATOM     13  O   UNL     1       9.708   6.759   3.644  0.00  0.00    -0.153 OA
ATOM     14  O   UNL     1       8.411   4.838   2.732  0.00  0.00    -0.153 OA
BRANCH  12  15
ATOM     15  N   UNL     1      10.354   5.730   1.493  0.00  0.00    -0.204 NA
ATOM     16  H   UNL     1      10.358   6.144   0.616  0.00  0.00    +0.144 HD
ATOM     17  H   UNL     1      11.070   5.126   1.747  0.00  0.00    +0.144 HD
ENDBRANCH  12  15
ENDBRANCH  11  12
ENDBRANCH   1   9
BRANCH   2  18
ATOM     18  C   UNL     1       2.886   5.535  -0.014  0.00  0.00    +0.019 C 
BRANCH  18  28
ATOM     19  C   UNL     1       3.522   3.873  -1.655  0.00  0.00    -0.078 C 
ATOM     20  C   UNL     1       3.616   2.369  -1.923  0.00  0.00    -0.015 C 
ATOM     21  C   UNL     1       2.209   1.769  -1.913  0.00  0.00    -0.011 C 
ATOM     22  C   UNL     1       2.284   0.256  -2.123  0.00  0.00    +0.004 C 
ATOM     23  C   UNL     1       0.868  -0.325  -2.116  0.00  0.00    +0.000 C 
ATOM     24  C   UNL     1       0.194  -0.024  -0.777  0.00  0.00    +0.000 C 
ATOM     25  C   UNL     1       0.129   1.490  -0.561  0.00  0.00    +0.002 C 
ATOM     26  C   UNL     1       1.548   2.061  -0.563  0.00  0.00    -0.025 C 
ATOM     27  C   UNL     1       1.504   3.573  -0.341  0.00  0.00    -0.074 C 
ATOM     28  N   UNL     1       2.890   4.093  -0.336  0.00  0.00    +0.386 N 
ATOM     29  H   UNL     1       3.430   3.593   0.379  0.00  0.00    -0.081 HD
ENDBRANCH  18  28
ENDBRANCH   2  18
TORSDOF 5
