REMARK  Name = ZINC21880809
REMARK  6 active torsions:
REMARK  status: ('A' for Active; 'I' for Inactive)
REMARK    1  A    between atoms: C_1  and  C_2
REMARK    2  A    between atoms: C_2  and  C_3
REMARK    3  A    between atoms: C_3  and  N_4
REMARK    4  A    between atoms: C_19  and  C_20
REMARK    5  A    between atoms: C_20  and  N_21
REMARK    6  A    between atoms: N_24  and  C_27
REMARK                            x       y       z     vdW  Elec       q    Type
REMARK                         _______ _______ _______ _____ _____    ______ ____
ROOT
ATOM      1  N   UNL     1      10.055   1.772  -1.145  0.00  0.00    +0.382 N 
ATOM      2  C   UNL     1       9.783   0.882  -0.007  0.00  0.00    -0.060 C 
ATOM      3  C   UNL     1       8.333   0.399  -0.077  0.00  0.00    +0.088 C 
ATOM      4  N   UNL     1       7.431   1.559  -0.061  0.00  0.00    -0.312 N 
ATOM      5  C   UNL     1       7.703   2.449  -1.199  0.00  0.00    +0.088 C 
ATOM      6  C   UNL     1       9.153   2.932  -1.129  0.00  0.00    -0.060 C 
ATOM      7  C   UNL     1       6.102   1.157  -0.051  0.00  0.00    +0.186 A 
ATOM      8  N   UNL     1       5.581  -0.062  -0.053  0.00  0.00    -0.124 NA
ATOM      9  N   UNL     1       4.335  -0.254  -0.036  0.00  0.00    -0.121 NA
ATOM     10  C   UNL     1       3.471   0.748  -0.028  0.00  0.00    +0.202 A 
ATOM     11  S   UNL     1       4.603   2.135  -0.031  0.00  0.00    -0.013 S 
ATOM     12  N   UNL     1       2.075   0.729  -0.014  0.00  0.00    -0.297 N 
ATOM     13  C   UNL     1       1.264   1.828  -0.000  0.00  0.00    +0.093 A 
ATOM     14  C   UNL     1      -0.017   1.405   0.010  0.00  0.00    +0.020 A 
ATOM     15  C   UNL     1       0.002  -0.004   0.002  0.00  0.00    +0.024 A 
ATOM     16  C   UNL     1       1.294  -0.392  -0.012  0.00  0.00    +0.040 A 
ATOM     17  H   UNL     1       9.867   1.208  -2.070  0.00  0.00    -0.082 HD
ENDROOT
BRANCH   1  18
ATOM     18  C   UNL     1      11.461   2.198  -1.156  0.00  0.00    -0.079 C 
BRANCH  18  20
ATOM     19  C   UNL     1      13.232   3.354  -2.485  0.00  0.00    +0.002 C 
ATOM     20  C   UNL     1      11.768   2.911  -2.474  0.00  0.00    -0.022 C 
ENDBRANCH  18  20
ENDBRANCH   1  18
BRANCH  16  21
ATOM     21  C   UNL     1       1.789  -1.815  -0.024  0.00  0.00    +0.138 C 
BRANCH  21  22
ATOM     22  N   UNL     1       2.052  -2.230  -1.409  0.00  0.00    -0.300 NA
ATOM     23  C   UNL     1       0.806  -2.291  -2.185  0.00  0.00    +0.066 C 
ATOM     24  C   UNL     1       1.130  -2.649  -3.638  0.00  0.00    -0.063 C 
ATOM     25  N   UNL     1       1.834  -3.938  -3.676  0.00  0.00    +0.383 N 
ATOM     26  C   UNL     1       3.080  -3.878  -2.899  0.00  0.00    -0.063 C 
ATOM     27  C   UNL     1       2.756  -3.519  -1.447  0.00  0.00    +0.066 C 
ATOM     28  H   UNL     1       1.183  -4.695  -3.215  0.00  0.00    -0.081 HD
BRANCH  25  29
ATOM     29  C   UNL     1       2.096  -4.354  -5.060  0.00  0.00    -0.068 C 
ATOM     30  C   UNL     1       2.938  -3.286  -5.763  0.00  0.00    -0.015 C 
ATOM     31  C   UNL     1       3.211  -3.719  -7.205  0.00  0.00    -0.002 C 
ATOM     32  C   UNL     1       1.884  -3.891  -7.946  0.00  0.00    -0.000 C 
ATOM     33  C   UNL     1       1.042  -4.959  -7.243  0.00  0.00    -0.002 C 
ATOM     34  C   UNL     1       0.769  -4.526  -5.801  0.00  0.00    -0.015 C 
ENDBRANCH  25  29
ENDBRANCH  21  22
ENDBRANCH  16  21
TORSDOF 5
