REMARK  Name = ZINC45686641
REMARK  11 active torsions:
REMARK  status: ('A' for Active; 'I' for Inactive)
REMARK    1  A    between atoms: C_1  and  C_2
REMARK    2  A    between atoms: C_2  and  C_3
REMARK    3  A    between atoms: C_2  and  N_4
REMARK    4  A    between atoms: N_4  and  C_5
REMARK    5  A    between atoms: N_4  and  C_6
REMARK    6  A    between atoms: C_6  and  C_7
REMARK    7  A    between atoms: C_7  and  C_8
REMARK    8  A    between atoms: C_8  and  C_9
REMARK    9  A    between atoms: C_9  and  N_10
REMARK   10  A    between atoms: N_10  and  C_11
REMARK   11  A    between atoms: C_16  and  N_17
REMARK                            x       y       z     vdW  Elec       q    Type
REMARK                         _______ _______ _______ _____ _____    ______ ____
ROOT
ATOM      1  N   UNL     1      -4.173  -6.036   0.261  0.00  0.00    -0.342 N 
ATOM      2  H   UNL     1      -3.330  -6.510   0.177  0.00  0.00    +0.146 HD
ENDROOT
BRANCH   1   3
ATOM      3  C   UNL     1      -5.371  -6.754   0.374  0.00  0.00    +0.048 A 
ATOM      4  C   UNL     1      -6.577  -6.079   0.488  0.00  0.00    +0.026 A 
ATOM      5  C   UNL     1      -7.758  -6.789   0.600  0.00  0.00    +0.017 A 
ATOM      6  C   UNL     1      -7.741  -8.172   0.598  0.00  0.00    +0.020 A 
ATOM      7  C   UNL     1      -6.542  -8.853   0.485  0.00  0.00    +0.039 A 
ATOM      8  C   UNL     1      -5.354  -8.148   0.367  0.00  0.00    +0.047 A 
ATOM      9 BR   UNL     1      -9.361  -9.135   0.752  0.00  0.00    -0.050 Br
BRANCH   8  10
ATOM     10  N   UNL     1      -4.140  -8.835   0.246  0.00  0.00    -0.357 N 
ATOM     11  H   UNL     1      -3.309  -8.341   0.168  0.00  0.00    +0.142 HD
ATOM     12  H   UNL     1      -4.130  -9.805   0.241  0.00  0.00    +0.142 HD
ENDBRANCH   8  10
ENDBRANCH   1   3
BRANCH   1  13
ATOM     13  C   UNL     1      -4.193  -4.572   0.269  0.00  0.00    +0.101 C 
BRANCH  13  14
ATOM     14  C   UNL     1      -2.764  -4.041   0.133  0.00  0.00    +0.017 C 
BRANCH  14  15
ATOM     15  C   UNL     1      -2.785  -2.512   0.141  0.00  0.00    -0.017 C 
BRANCH  15  16
ATOM     16  C   UNL     1      -1.356  -1.981   0.004  0.00  0.00    -0.079 C 
BRANCH  16  17
ATOM     17  N   UNL     1      -1.376  -0.512   0.012  0.00  0.00    +0.379 N 
ATOM     18  C   UNL     1      -2.087  -0.026  -1.178  0.00  0.00    -0.096 C 
ATOM     19  H   UNL     1      -1.848  -0.187   0.843  0.00  0.00    -0.082 HD
BRANCH  17  21
ATOM     20  C   UNL     1      -0.019   1.526   0.010  0.00  0.00    -0.014 C 
ATOM     21  C   UNL     1       0.002  -0.004   0.002  0.00  0.00    -0.075 C 
ATOM     22  C   UNL     1       0.742  -0.511   1.242  0.00  0.00    -0.014 C 
ENDBRANCH  17  21
ENDBRANCH  16  17
ENDBRANCH  15  16
ENDBRANCH  14  15
ENDBRANCH  13  14
ENDBRANCH   1  13
TORSDOF 8
