REMARK  Name = ZINC44686665
REMARK  5 active torsions:
REMARK  status: ('A' for Active; 'I' for Inactive)
REMARK    1  A    between atoms: C_2  and  N_22
REMARK    2  A    between atoms: C_6  and  S_7
REMARK    3  A    between atoms: S_7  and  N_10
REMARK    4  A    between atoms: N_10  and  C_11
REMARK    5  A    between atoms: N_15  and  C_17
REMARK                            x       y       z     vdW  Elec       q    Type
REMARK                         _______ _______ _______ _____ _____    ______ ____
ROOT
ATOM      1  S   UNL     1      -1.548  -0.941   0.031  0.00  0.00    +0.061 S 
ATOM      2  O   UNL     1      -2.604   0.002  -0.087  0.00  0.00    -0.153 OA
ATOM      3  O   UNL     1      -0.218  -0.559   0.355  0.00  0.00    -0.153 OA
ENDROOT
BRANCH   1   9
ATOM      4  C   UNL     1      -1.184  -2.452   2.273  0.00  0.00    +0.054 A 
ATOM      5  C   UNL     1      -1.579  -3.372   3.236  0.00  0.00    +0.028 A 
ATOM      6  C   UNL     1      -2.842  -3.946   3.169  0.00  0.00    +0.045 A 
ATOM      7  C   UNL     1      -3.704  -3.599   2.146  0.00  0.00    +0.080 A 
ATOM      8  C   UNL     1      -3.308  -2.680   1.187  0.00  0.00    +0.168 A 
ATOM      9  C   UNL     1      -2.048  -2.108   1.252  0.00  0.00    +0.143 A 
ATOM     10  F   UNL     1      -4.151  -2.343   0.187  0.00  0.00    -0.202 F 
ATOM     11 CL   UNL     1      -5.283  -4.315   2.061  0.00  0.00    -0.080 Cl
BRANCH   5  12
ATOM     12  N   UNL     1      -0.705  -3.722   4.270  0.00  0.00    -0.358 N 
ATOM     13  H   UNL     1       0.177  -3.321   4.316  0.00  0.00    +0.142 HD
ATOM     14  H   UNL     1      -0.981  -4.364   4.942  0.00  0.00    +0.142 HD
ENDBRANCH   5  12
ENDBRANCH   1   9
BRANCH   1  15
ATOM     15  N   UNL     1      -1.470  -1.747  -1.414  0.00  0.00    -0.189 NA
ATOM     16  H   UNL     1      -2.074  -1.510  -2.135  0.00  0.00    +0.148 HD
BRANCH  15  17
ATOM     17  C   UNL     1      -0.488  -2.817  -1.603  0.00  0.00    +0.058 C 
ATOM     18  C   UNL     1      -1.163  -4.199  -1.442  0.00  0.00    -0.000 C 
ATOM     19  C   UNL     1      -1.460  -4.612  -2.906  0.00  0.00    -0.077 C 
ATOM     20  N   UNL     1      -0.275  -4.109  -3.648  0.00  0.00    +0.383 N 
ATOM     21  C   UNL     1       0.054  -2.797  -3.045  0.00  0.00    -0.058 C 
ATOM     22  H   UNL     1       0.500  -4.746  -3.538  0.00  0.00    -0.081 HD
BRANCH  20  23
ATOM     23  C   UNL     1      -0.601  -3.946  -5.071  0.00  0.00    -0.069 C 
ATOM     24  C   UNL     1       0.094  -4.876  -6.067  0.00  0.00    -0.017 C 
ATOM     25  C   UNL     1       0.495  -3.402  -5.989  0.00  0.00    -0.017 C 
ENDBRANCH  20  23
ENDBRANCH  15  17
ENDBRANCH   1  15
TORSDOF 5
