REMARK  Name = ZINC37969066
REMARK  4 active torsions:
REMARK  status: ('A' for Active; 'I' for Inactive)
REMARK    1  A    between atoms: C_2  and  C_12
REMARK    2  A    between atoms: C_12  and  C_14
REMARK    3  A    between atoms: C_12  and  N_17
REMARK    4  A    between atoms: N_17  and  C_18
REMARK                            x       y       z     vdW  Elec       q    Type
REMARK                         _______ _______ _______ _____ _____    ______ ____
ROOT
ATOM      1  C   UNL     1       1.145   3.599   0.010  0.00  0.00    +0.047 C 
ENDROOT
BRANCH   1   3
ATOM      2  C   UNL     1      -0.017   1.383   0.010  0.00  0.00    +0.052 A 
ATOM      3  C   UNL     1       1.170   2.092   0.002  0.00  0.00    -0.048 A 
ATOM      4  C   UNL     1       2.378   1.422  -0.013  0.00  0.00    +0.026 A 
ATOM      5  C   UNL     1       2.405   0.039  -0.023  0.00  0.00    +0.086 A 
ATOM      6  C   UNL     1       1.217  -0.679  -0.016  0.00  0.00    +0.180 A 
ATOM      7  C   UNL     1       0.002  -0.004   0.002  0.00  0.00    +0.164 A 
ATOM      8  O   UNL     1      -1.175  -0.688   0.016  0.00  0.00    -0.485 OA
ATOM      9  C   UNL     1      -1.122  -2.066  -0.368  0.00  0.00    +0.270 C 
ATOM     10  C   UNL     1       0.060  -2.723   0.356  0.00  0.00    +0.270 C 
ATOM     11  O   UNL     1       1.258  -2.039  -0.030  0.00  0.00    -0.483 OA
ATOM     12 CL   UNL     1       3.924  -0.800  -0.043  0.00  0.00    -0.080 Cl
ENDBRANCH   1   3
BRANCH   1  13
ATOM     13  C   UNL     1       1.397   4.098   1.410  0.00  0.00    +0.201 C 
ATOM     14  O   UNL     1       2.353   4.809   1.637  0.00  0.00    -0.277 OA
ATOM     15  N   UNL     1       0.561   3.753   2.409  0.00  0.00    -0.330 N 
ATOM     16  H   UNL     1      -0.203   3.184   2.227  0.00  0.00    +0.145 HD
ATOM     17  H   UNL     1       0.723   4.074   3.310  0.00  0.00    +0.145 HD
ENDBRANCH   1  13
BRANCH   1  18
ATOM     18  N   UNL     1       2.190   4.110  -0.887  0.00  0.00    +0.391 N 
ATOM     19  H   UNL     1       3.097   3.856  -0.527  0.00  0.00    -0.084 HD
ATOM     20  H   UNL     1       2.069   3.711  -1.806  0.00  0.00    -0.084 HD
BRANCH  18  21
ATOM     21  C   UNL     1       2.089   5.573  -0.972  0.00  0.00    -0.070 C 
ATOM     22  C   UNL     1       0.789   5.972  -1.702  0.00  0.00    -0.016 C 
ATOM     23  C   UNL     1       1.190   7.211  -2.540  0.00  0.00    -0.002 C 
ATOM     24  C   UNL     1       2.619   6.854  -3.017  0.00  0.00    -0.002 C 
ATOM     25  C   UNL     1       3.252   6.134  -1.809  0.00  0.00    -0.016 C 
ENDBRANCH  18  21
ENDBRANCH   1  18
TORSDOF 4
