REMARK  Name = ZINC40392454
REMARK  13 active torsions:
REMARK  status: ('A' for Active; 'I' for Inactive)
REMARK    1  A    between atoms: C_1  and  C_2
REMARK    2  A    between atoms: C_2  and  N_3
REMARK    3  A    between atoms: C_4  and  C_23
REMARK    4  A    between atoms: C_5  and  C_18
REMARK    5  A    between atoms: C_6  and  C_11
REMARK    6  A    between atoms: C_16  and  C_17
REMARK    7  A    between atoms: C_18  and  O_20
REMARK    8  A    between atoms: O_20  and  C_21
REMARK    9  A    between atoms: C_21  and  C_22
REMARK   10  A    between atoms: C_23  and  N_24
REMARK   11  A    between atoms: C_31  and  C_33
REMARK   12  A    between atoms: C_37  and  O_39
REMARK   13  A    between atoms: O_39  and  C_40
REMARK                            x       y       z     vdW  Elec       q    Type
REMARK                         _______ _______ _______ _____ _____    ______ ____
ROOT
ATOM      1  N   UNL     1       1.028  -0.110  -1.147  0.00  0.00    -0.261 N 
ATOM      2  C   UNL     1       0.258  -0.665  -2.129  0.00  0.00    +0.010 C 
ATOM      3  C   UNL     1       0.818  -1.352  -3.148  0.00  0.00    +0.076 C 
ATOM      4  C   UNL     1       2.327  -1.485  -3.165  0.00  0.00    +0.144 C 
ATOM      5  N   UNL     1       3.065  -0.849  -2.060  0.00  0.00    -0.288 N 
ATOM      6  C   UNL     1       2.364  -0.192  -1.115  0.00  0.00    +0.307 C 
ATOM      7  O   UNL     1       2.964   0.339  -0.201  0.00  0.00    -0.252 OA
ATOM      8  H   UNL     1       4.033  -0.899  -2.016  0.00  0.00    +0.151 HD
ENDROOT
BRANCH   4   9
ATOM      9  C   UNL     1       2.664  -2.954  -3.164  0.00  0.00    -0.020 A 
ATOM     10  C   UNL     1       1.721  -3.879  -2.759  0.00  0.00    +0.006 A 
ATOM     11  C   UNL     1       2.030  -5.226  -2.757  0.00  0.00    +0.000 A 
ATOM     12  C   UNL     1       3.283  -5.648  -3.162  0.00  0.00    +0.000 A 
ATOM     13  C   UNL     1       4.226  -4.723  -3.567  0.00  0.00    +0.004 A 
ATOM     14  C   UNL     1       3.916  -3.376  -3.573  0.00  0.00    -0.045 A 
ATOM     15  C   UNL     1       4.942  -2.367  -4.020  0.00  0.00    +0.044 C 
ENDBRANCH   4   9
BRANCH   1  17
ATOM     16  C   UNL     1       0.305   2.110  -0.420  0.00  0.00    +0.025 C 
ATOM     17  C   UNL     1       0.354   0.621  -0.071  0.00  0.00    +0.111 C 
ENDBRANCH   1  17
BRANCH   3  18
ATOM     18  C   UNL     1       0.022  -1.929  -4.166  0.00  0.00    +0.339 C 
ATOM     19  O   UNL     1      -1.182  -1.752  -4.170  0.00  0.00    -0.245 OA
BRANCH  18  20
ATOM     20  O   UNL     1       0.597  -2.675  -5.131  0.00  0.00    -0.462 OA
BRANCH  20  21
ATOM     21  C   UNL     1      -0.249  -3.134  -6.188  0.00  0.00    +0.229 C 
ATOM     22  C   UNL     1       0.546  -4.058  -7.112  0.00  0.00    +0.048 C 
ENDBRANCH  20  21
ENDBRANCH  18  20
ENDBRANCH   3  18
BRANCH   2  23
ATOM     23  C   UNL     1      -1.240  -0.510  -2.074  0.00  0.00    -0.026 C 
BRANCH  23  24
ATOM     24  N   UNL     1      -1.839  -1.734  -1.528  0.00  0.00    +0.384 N 
ATOM     25  C   UNL     1      -3.285  -1.668  -1.727  0.00  0.00    -0.077 C 
ATOM     26  C   UNL     1      -3.834  -3.070  -1.873  0.00  0.00    +0.000 C 
ATOM     27  C   UNL     1      -4.302  -3.582  -0.498  0.00  0.00    +0.106 C 
ATOM     28  N   UNL     1      -3.366  -3.173   0.568  0.00  0.00    -0.299 N 
ATOM     29  C   UNL     1      -1.928  -3.215   0.395  0.00  0.00    +0.089 C 
ATOM     30  C   UNL     1      -1.430  -1.870  -0.183  0.00  0.00    -0.059 C 
ATOM     31  C   UNL     1      -3.866  -2.745   1.744  0.00  0.00    +0.247 C 
ATOM     32  O   UNL     1      -3.122  -2.301   2.596  0.00  0.00    -0.270 OA
ATOM     33  H   UNL     1      -1.484  -2.521  -2.050  0.00  0.00    -0.081 HD
BRANCH  31  34
ATOM     34  C   UNL     1      -5.321  -2.815   1.997  0.00  0.00    +0.040 A 
ATOM     35  C   UNL     1      -6.067  -3.886   1.503  0.00  0.00    +0.013 A 
ATOM     36  C   UNL     1      -7.425  -3.949   1.741  0.00  0.00    +0.004 A 
ATOM     37  C   UNL     1      -8.050  -2.953   2.469  0.00  0.00    +0.045 A 
ATOM     38  C   UNL     1      -7.317  -1.883   2.964  0.00  0.00    +0.121 A 
ATOM     39  C   UNL     1      -5.952  -1.814   2.736  0.00  0.00    +0.058 A 
BRANCH  38  40
ATOM     40  O   UNL     1      -7.936  -0.907   3.678  0.00  0.00    -0.495 OA
ATOM     41  C   UNL     1      -9.344  -1.045   3.879  0.00  0.00    +0.277 C 
ENDBRANCH  38  40
ENDBRANCH  31  34
ENDBRANCH  23  24
ENDBRANCH   2  23
TORSDOF 9
