REMARK  Name = ZINC08429617
REMARK  6 active torsions:
REMARK  status: ('A' for Active; 'I' for Inactive)
REMARK    1  A    between atoms: C_1  and  S_2
REMARK    2  A    between atoms: S_2  and  C_5
REMARK    3  A    between atoms: C_5  and  C_6
REMARK    4  A    between atoms: C_9  and  C_12
REMARK    5  A    between atoms: N_14  and  C_15
REMARK    6  A    between atoms: C_20  and  C_21
REMARK                            x       y       z     vdW  Elec       q    Type
REMARK                         _______ _______ _______ _____ _____    ______ ____
ROOT
ATOM      1  C   UNL     1      -1.099   7.894   2.292  0.00  0.00    +0.248 C 
ATOM      2  O   UNL     1      -2.093   8.485   1.916  0.00  0.00    -0.270 OA
ATOM      3  N   UNL     1      -0.077   8.579   2.842  0.00  0.00    -0.281 N 
ATOM      4  H   UNL     1       0.688   8.102   3.201  0.00  0.00    +0.155 HD
ENDROOT
BRANCH   1   8
ATOM      5  C   UNL     1      -0.850   3.675   1.872  0.00  0.00    -0.027 A 
ATOM      6  C   UNL     1       0.200   4.374   2.442  0.00  0.00    +0.006 A 
ATOM      7  C   UNL     1       0.127   5.745   2.576  0.00  0.00    +0.013 A 
ATOM      8  C   UNL     1      -1.012   6.426   2.146  0.00  0.00    +0.037 A 
ATOM      9  C   UNL     1      -2.070   5.715   1.577  0.00  0.00    +0.013 A 
ATOM     10  C   UNL     1      -1.982   4.344   1.443  0.00  0.00    +0.006 A 
BRANCH   5  11
ATOM     11  C   UNL     1      -0.761   2.178   1.723  0.00  0.00    +0.200 C 
BRANCH  11  13
ATOM     12  C   UNL     1      -0.005  -0.040   0.129  0.00  0.00    +0.194 C 
ATOM     13  S   UNL     1      -0.024   1.774   0.115  0.00  0.00    -0.030 S 
ATOM     14  O   UNL     1       1.319   2.237   0.107  0.00  0.00    -0.174 OA
ATOM     15  O   UNL     1      -0.911   2.206  -0.907  0.00  0.00    -0.174 OA
ENDBRANCH  11  13
ENDBRANCH   5  11
ENDBRANCH   1   8
BRANCH   3  16
ATOM     16  C   UNL     1      -0.118   9.969   2.895  0.00  0.00    +0.048 A 
ATOM     17  C   UNL     1      -1.325  10.624   3.099  0.00  0.00    +0.024 A 
ATOM     18  C   UNL     1      -1.363  12.002   3.156  0.00  0.00    +0.002 A 
ATOM     19  C   UNL     1      -0.203  12.743   3.000  0.00  0.00    +0.001 A 
ATOM     20  C   UNL     1       1.004  12.111   2.791  0.00  0.00    +0.017 A 
ATOM     21  C   UNL     1       1.059  10.716   2.736  0.00  0.00    +0.084 A 
BRANCH  21  22
ATOM     22  C   UNL     1       2.346  10.033   2.512  0.00  0.00    +0.388 C 
ATOM     23  O   UNL     1       2.377   8.827   2.367  0.00  0.00    -0.241 OA
ATOM     24  O   UNL     1       3.489  10.747   2.469  0.00  0.00    -0.241 OA
ENDBRANCH  21  22
ENDBRANCH   3  16
TORSDOF 5
