REMARK  Name = ZINC12934469
REMARK  10 active torsions:
REMARK  status: ('A' for Active; 'I' for Inactive)
REMARK    1  A    between atoms: C_1  and  C_2
REMARK    2  A    between atoms: C_4  and  S_26
REMARK    3  A    between atoms: C_6  and  N_9
REMARK    4  A    between atoms: C_7  and  C_8
REMARK    5  A    between atoms: C_10  and  C_12
REMARK    6  A    between atoms: C_12  and  N_54
REMARK    7  A    between atoms: C_13  and  N_54
REMARK    8  A    between atoms: C_14  and  C_15
REMARK    9  A    between atoms: C_14  and  N_54
REMARK   10  A    between atoms: S_26  and  N_29
REMARK                            x       y       z     vdW  Elec       q    Type
REMARK                         _______ _______ _______ _____ _____    ______ ____
ROOT
ATOM      1  N   UNL     1      -4.816   1.027   3.768  0.00  0.00    -0.287 N 
ATOM      2  C   UNL     1      -4.053   0.941   2.660  0.00  0.00    +0.201 C 
ATOM      3  O   UNL     1      -4.418   0.261   1.724  0.00  0.00    -0.278 OA
ATOM      4  H   UNL     1      -4.488   1.504   4.547  0.00  0.00    +0.155 HD
ENDROOT
BRANCH   1  10
ATOM      5  C   UNL     1      -8.507  -0.948   6.347  0.00  0.00    +0.044 C 
ATOM      6  C   UNL     1      -7.892  -0.540   5.033  0.00  0.00    -0.044 A 
ATOM      7  C   UNL     1      -8.578  -0.761   3.852  0.00  0.00    +0.032 A 
ATOM      8  C   UNL     1      -8.018  -0.389   2.644  0.00  0.00    +0.107 A 
ATOM      9  C   UNL     1      -6.770   0.204   2.613  0.00  0.00    +0.052 A 
ATOM     10  C   UNL     1      -6.079   0.426   3.796  0.00  0.00    +0.038 A 
ATOM     11  C   UNL     1      -6.643   0.046   5.008  0.00  0.00    -0.026 A 
ATOM     12  C   UNL     1      -5.893   0.280   6.294  0.00  0.00    +0.046 C 
BRANCH   8  13
ATOM     13  S   UNL     1      -8.896  -0.671   1.143  0.00  0.00    +0.056 S 
ATOM     14  O   UNL     1     -10.273  -0.742   1.484  0.00  0.00    -0.153 OA
ATOM     15  O   UNL     1      -8.392   0.262   0.196  0.00  0.00    -0.153 OA
BRANCH  13  16
ATOM     16  N   UNL     1      -8.465  -2.175   0.599  0.00  0.00    -0.204 NA
ATOM     17  H   UNL     1      -7.833  -2.711   1.104  0.00  0.00    +0.144 HD
ATOM     18  H   UNL     1      -8.845  -2.521  -0.224  0.00  0.00    +0.144 HD
ENDBRANCH  13  16
ENDBRANCH   8  13
ENDBRANCH   1  10
BRANCH   2  19
ATOM     19  C   UNL     1      -2.748   1.690   2.584  0.00  0.00    +0.019 C 
BRANCH  19  21
ATOM     20  C   UNL     1      -2.907   2.005   0.188  0.00  0.00    -0.095 C 
ATOM     21  N   UNL     1      -2.111   1.406   1.281  0.00  0.00    +0.386 N 
ATOM     22  H   UNL     1      -2.069   0.390   1.145  0.00  0.00    -0.081 HD
BRANCH  21  23
ATOM     23  C   UNL     1      -0.737   1.951   1.261  0.00  0.00    -0.030 C 
BRANCH  23  24
ATOM     24  C   UNL     1      -0.027   1.453   0.000  0.00  0.00    +0.194 C 
ATOM     25  C   UNL     1       1.420   1.964  -0.015  0.00  0.00    +0.271 C 
ATOM     26  O   UNL     1       2.057   1.470  -1.198  0.00  0.00    -0.485 OA
ATOM     27  C   UNL     1       1.876   0.152  -1.486  0.00  0.00    +0.162 A 
ATOM     28  C   UNL     1       2.727  -0.471  -2.385  0.00  0.00    +0.049 A 
ATOM     29  C   UNL     1       2.552  -1.808  -2.692  0.00  0.00    +0.004 A 
ATOM     30  C   UNL     1       1.528  -2.526  -2.103  0.00  0.00    +0.004 A 
ATOM     31  C   UNL     1       0.676  -1.910  -1.205  0.00  0.00    +0.049 A 
ATOM     32  C   UNL     1       0.848  -0.570  -0.892  0.00  0.00    +0.162 A 
ATOM     33  O   UNL     1       0.003   0.022  -0.004  0.00  0.00    -0.484 OA
ENDBRANCH  23  24
ENDBRANCH  21  23
ENDBRANCH  19  21
ENDBRANCH   2  19
TORSDOF 7
