REMARK  Name = ZINC13474009
REMARK  10 active torsions:
REMARK  status: ('A' for Active; 'I' for Inactive)
REMARK    1  A    between atoms: C_1  and  C_2
REMARK    2  A    between atoms: C_4  and  O_21
REMARK    3  A    between atoms: C_6  and  O_9
REMARK    4  A    between atoms: O_9  and  C_10
REMARK    5  A    between atoms: C_14  and  S_16
REMARK    6  A    between atoms: S_16  and  N_18
REMARK    7  A    between atoms: N_18  and  C_19
REMARK    8  A    between atoms: N_18  and  C_20
REMARK    9  A    between atoms: O_21  and  C_22
REMARK   10  A    between atoms: C_26  and  C_28
REMARK                            x       y       z     vdW  Elec       q    Type
REMARK                         _______ _______ _______ _____ _____    ______ ____
ROOT
ATOM      1  C   UNL     1       1.869   6.236   0.713  0.00  0.00    +0.050 C 
ATOM      2  C   UNL     1       1.139   4.961   0.375  0.00  0.00    +0.030 A 
ATOM      3  C   UNL     1       0.323   4.342   1.310  0.00  0.00    +0.191 A 
ATOM      4  C   UNL     1      -0.336   3.169   0.964  0.00  0.00    +0.260 A 
ATOM      5  N   UNL     1      -0.190   2.642  -0.241  0.00  0.00    -0.172 NA
ATOM      6  C   UNL     1       0.581   3.206  -1.156  0.00  0.00    +0.260 A 
ATOM      7  C   UNL     1       1.269   4.381  -0.879  0.00  0.00    +0.191 A 
ATOM      8  F   UNL     1       2.054   4.952  -1.818  0.00  0.00    -0.200 F 
ATOM      9  F   UNL     1       0.169   4.875   2.542  0.00  0.00    -0.200 F 
ENDROOT
BRANCH   6  10
ATOM     10  O   UNL     1       0.702   2.631  -2.380  0.00  0.00    -0.436 OA
BRANCH  10  11
ATOM     11  C   UNL     1      -0.094   1.567  -2.666  0.00  0.00    +0.132 A 
ATOM     12  C   UNL     1      -1.249   1.345  -1.929  0.00  0.00    +0.046 A 
ATOM     13  C   UNL     1      -2.059   0.267  -2.226  0.00  0.00    +0.005 A 
ATOM     14  C   UNL     1      -1.714  -0.598  -3.248  0.00  0.00    +0.019 A 
ATOM     15  C   UNL     1      -0.561  -0.383  -3.980  0.00  0.00    +0.058 A 
ATOM     16  C   UNL     1       0.250   0.698  -3.691  0.00  0.00    +0.064 A 
BRANCH  15  17
ATOM     17  S   UNL     1      -0.125  -1.487  -5.282  0.00  0.00    +0.128 S 
ATOM     18  O   UNL     1       0.804  -0.749  -6.062  0.00  0.00    -0.235 OA
BRANCH  17  19
ATOM     19  N   UNL     1       0.803  -2.639  -4.537  0.00  0.00    -0.226 NA
ATOM     20  C   UNL     1       1.067  -2.548  -3.099  0.00  0.00    +0.120 C 
ATOM     21  C   UNL     1       1.359  -3.748  -5.315  0.00  0.00    +0.120 C 
ENDBRANCH  17  19
ENDBRANCH  15  17
ENDBRANCH  10  11
ENDBRANCH   6  10
BRANCH   4  22
ATOM     22  O   UNL     1      -1.141   2.559   1.871  0.00  0.00    -0.436 OA
BRANCH  22  23
ATOM     23  C   UNL     1      -1.885   1.500   1.453  0.00  0.00    +0.131 A 
ATOM     24  C   UNL     1      -1.264   0.401   0.877  0.00  0.00    +0.046 A 
ATOM     25  C   UNL     1      -2.015  -0.678   0.451  0.00  0.00    +0.004 A 
ATOM     26  C   UNL     1      -3.388  -0.669   0.596  0.00  0.00    +0.011 A 
ATOM     27  C   UNL     1      -4.020   0.431   1.174  0.00  0.00    +0.016 A 
ATOM     28  C   UNL     1      -3.261   1.517   1.608  0.00  0.00    +0.057 A 
BRANCH  27  29
ATOM     29  C   UNL     1      -5.492   0.444   1.331  0.00  0.00    +0.094 C 
ATOM     30  N   UNL     1      -6.240  -0.632   0.907  0.00  0.00    -0.345 N 
ATOM     31  H   UNL     1      -7.040   1.575   2.018  0.00  0.00    +0.157 HD
ATOM     32  H   UNL     1      -5.802  -1.399   0.504  0.00  0.00    +0.144 HD
ATOM     33  H   UNL     1      -7.205  -0.624   1.010  0.00  0.00    +0.144 HD
ATOM     34  N   UNL     1      -6.029   1.519   1.888  0.00  0.00    -0.387 N 
ATOM     35  H   UNL     1      -5.429   2.296   2.188  0.00  0.00    +0.157 HD
ENDBRANCH  27  29
ENDBRANCH  22  23
ENDBRANCH   4  22
TORSDOF 7
