REMARK  Name = ZINC66244183
REMARK  4 active torsions:
REMARK  status: ('A' for Active; 'I' for Inactive)
REMARK    1  A    between atoms: C_4  and  N_7
REMARK    2  A    between atoms: N_10  and  C_11
REMARK    3  A    between atoms: C_11  and  C_12
REMARK    4  A    between atoms: C_12  and  C_13
REMARK                            x       y       z     vdW  Elec       q    Type
REMARK                         _______ _______ _______ _____ _____    ______ ____
ROOT
ATOM      1  N   UNL     1       3.621  -0.651  -0.034  0.00  0.00    -0.328 N 
ATOM      2  C   UNL     1       3.638  -2.022  -0.149  0.00  0.00    +0.173 C 
ATOM      3  N   UNL     1       2.518  -2.683  -0.239  0.00  0.00    -0.371 N 
ATOM      4  N   UNL     1       4.837  -2.696  -0.168  0.00  0.00    -0.357 N 
ATOM      5  H   UNL     1       2.783  -0.168  -0.111  0.00  0.00    +0.169 HD
ATOM      6  H   UNL     1       2.526  -3.653  -0.244  0.00  0.00    +0.159 HD
ATOM      7  H   UNL     1       5.670  -2.204  -0.101  0.00  0.00    +0.162 HD
ATOM      8  H   UNL     1       1.677  -2.204  -0.301  0.00  0.00    +0.159 HD
ENDROOT
BRANCH   1  12
ATOM      9  C   UNL     1       7.167   1.428   0.642  0.00  0.00    +0.000 A 
ATOM     10  C   UNL     1       6.228   1.933  -0.239  0.00  0.00    +0.002 A 
ATOM     11  C   UNL     1       5.052   1.247  -0.465  0.00  0.00    +0.026 A 
ATOM     12  C   UNL     1       4.812   0.047   0.193  0.00  0.00    +0.042 A 
ATOM     13  C   UNL     1       5.757  -0.458   1.076  0.00  0.00    +0.026 A 
ATOM     14  C   UNL     1       6.931   0.234   1.298  0.00  0.00    +0.002 A 
ENDBRANCH   1  12
BRANCH   4  15
ATOM     15  C   UNL     1       4.855  -4.155  -0.290  0.00  0.00    +0.120 C 
BRANCH  15  16
ATOM     16  C   UNL     1       6.303  -4.649  -0.287  0.00  0.00    +0.056 C 
BRANCH  16  17
ATOM     17  C   UNL     1       6.322  -6.151  -0.413  0.00  0.00    -0.041 A 
ATOM     18  C   UNL     1       6.288  -6.939   0.723  0.00  0.00    +0.053 A 
ATOM     19  C   UNL     1       6.304  -8.321   0.611  0.00  0.00    +0.164 A 
ATOM     20  C   UNL     1       6.353  -8.912  -0.646  0.00  0.00    +0.180 A 
ATOM     21  C   UNL     1       6.389  -8.116  -1.782  0.00  0.00    +0.086 A 
ATOM     22  C   UNL     1       6.367  -6.738  -1.663  0.00  0.00    +0.027 A 
ATOM     23 CL   UNL     1       6.455  -8.850  -3.354  0.00  0.00    -0.080 Cl
ATOM     24  O   UNL     1       6.362 -10.267  -0.779  0.00  0.00    -0.483 OA
ATOM     25  C   UNL     1       6.701 -11.026   0.387  0.00  0.00    +0.270 C 
ATOM     26  C   UNL     1       5.912 -10.459   1.575  0.00  0.00    +0.270 C 
ATOM     27  O   UNL     1       6.274  -9.083   1.738  0.00  0.00    -0.485 OA
ENDBRANCH  16  17
ENDBRANCH  15  16
ENDBRANCH   4  15
TORSDOF 4
