REMARK  Name = ZINC62390736
REMARK  6 active torsions:
REMARK  status: ('A' for Active; 'I' for Inactive)
REMARK    1  A    between atoms: C_1  and  C_2
REMARK    2  A    between atoms: C_2  and  C_3
REMARK    3  A    between atoms: C_2  and  N_12
REMARK    4  A    between atoms: N_5  and  C_6
REMARK    5  A    between atoms: C_6  and  C_7
REMARK    6  A    between atoms: N_15  and  C_16
REMARK                            x       y       z     vdW  Elec       q    Type
REMARK                         _______ _______ _______ _____ _____    ______ ____
ROOT
ATOM      1  N   UNL     1       0.713  -0.492   1.189  0.00  0.00    -0.288 N 
ATOM      2  C   UNL     1       0.056  -0.623   2.358  0.00  0.00    +0.304 C 
ATOM      3  O   UNL     1      -1.122  -0.328   2.430  0.00  0.00    -0.252 OA
ATOM      4  N   UNL     1       0.703  -1.081   3.447  0.00  0.00    -0.268 N 
ATOM      5  H   UNL     1       1.652  -0.727   1.131  0.00  0.00    +0.151 HD
ATOM      6  H   UNL     1       1.625  -1.376   3.376  0.00  0.00    +0.156 HD
ENDROOT
BRANCH   4   7
ATOM      7  C   UNL     1       0.045  -1.131   4.685  0.00  0.00    +0.051 A 
ATOM      8  C   UNL     1      -1.314  -1.433   4.749  0.00  0.00    +0.028 A 
ATOM      9  C   UNL     1      -1.922  -1.472   5.991  0.00  0.00    +0.043 A 
ATOM     10  C   UNL     1      -1.162  -1.210   7.126  0.00  0.00    +0.099 A 
ATOM     11  N   UNL     1       0.127  -0.926   7.027  0.00  0.00    -0.348 N 
ATOM     12  C   UNL     1       0.740  -0.886   5.859  0.00  0.00    +0.107 A 
ATOM     13  N   UNL     1      -1.764  -1.246   8.381  0.00  0.00    -0.317 N 
ATOM     14  C   UNL     1      -1.018  -0.846   9.582  0.00  0.00    +0.106 C 
ATOM     15  C   UNL     1      -1.821   0.224  10.327  0.00  0.00    +0.019 C 
ATOM     16  C   UNL     1      -3.229  -0.305  10.610  0.00  0.00    +0.003 C 
ATOM     17  C   UNL     1      -3.938  -0.606   9.287  0.00  0.00    +0.019 C 
ATOM     18  C   UNL     1      -3.160  -1.680   8.529  0.00  0.00    +0.106 C 
ATOM     19  H   UNL     1       0.635  -0.747   7.834  0.00  0.00    +0.167 HD
ENDBRANCH   4   7
BRANCH   1  21
ATOM     20  C   UNL     1       0.017   1.536   0.012  0.00  0.00    +0.038 C 
ATOM     21  C   UNL     1       0.009   0.006   0.004  0.00  0.00    +0.157 C 
BRANCH  21  22
ATOM     22  C   UNL     1       0.701  -0.494  -1.238  0.00  0.00    +0.233 C 
ATOM     23  O   UNL     1       1.684  -1.196  -1.143  0.00  0.00    -0.274 OA
ATOM     24  N   UNL     1       0.225  -0.159  -2.454  0.00  0.00    -0.307 N 
ATOM     25  H   UNL     1      -0.561   0.403  -2.530  0.00  0.00    +0.149 HD
BRANCH  24  26
ATOM     26  C   UNL     1       0.897  -0.645  -3.662  0.00  0.00    +0.178 C 
BRANCH  26  27
ATOM     27  C   UNL     1       0.173  -0.133  -4.880  0.00  0.00    +0.122 A 
ATOM     28  C   UNL     1       0.433   1.020  -5.523  0.00  0.00    +0.046 A 
ATOM     29  C   UNL     1      -0.478   1.102  -6.601  0.00  0.00    +0.041 A 
ATOM     30  C   UNL     1      -1.240  -0.005  -6.553  0.00  0.00    +0.195 A 
ATOM     31  O   UNL     1      -0.837  -0.752  -5.512  0.00  0.00    -0.466 OA
ENDBRANCH  26  27
ENDBRANCH  24  26
ENDBRANCH  21  22
ENDBRANCH   1  21
TORSDOF 5
