REMARK  Name = ZINC20695964
REMARK  4 active torsions:
REMARK  status: ('A' for Active; 'I' for Inactive)
REMARK    1  A    between atoms: C_6  and  S_7
REMARK    2  A    between atoms: S_7  and  N_10
REMARK    3  A    between atoms: C_23  and  C_26
REMARK    4  A    between atoms: C_31  and  O_32
REMARK                            x       y       z     vdW  Elec       q    Type
REMARK                         _______ _______ _______ _____ _____    ______ ____
ROOT
ATOM      1  C   UNL     1       7.165  -1.194  -0.826  0.00  0.00    +0.030 A 
ATOM      2  C   UNL     1       6.477  -0.360   0.033  0.00  0.00    +0.025 A 
ATOM      3  C   UNL     1       5.462   0.458  -0.448  0.00  0.00    +0.031 A 
ATOM      4  C   UNL     1       5.136   0.415  -1.808  0.00  0.00    -0.018 A 
ATOM      5  C   UNL     1       5.835  -0.414  -2.658  0.00  0.00    +0.034 A 
ATOM      6  C   UNL     1       6.848  -1.220  -2.171  0.00  0.00    +0.106 A 
ATOM      7  C   UNL     1       4.017   1.264  -2.269  0.00  0.00    +0.049 C 
ATOM      8  C   UNL     1       3.918   1.746  -3.670  0.00  0.00    -0.023 C 
ATOM      9  C   UNL     1       3.306   2.924  -3.671  0.00  0.00    -0.030 C 
ATOM     10  C   UNL     1       2.972   3.341  -2.238  0.00  0.00    +0.033 C 
ATOM     11  C   UNL     1       4.041   2.582  -1.439  0.00  0.00    +0.029 C 
ATOM     12  C   UNL     1       3.682   2.174  -0.021  0.00  0.00    +0.108 C 
ATOM     13  N   UNL     1       4.790   1.308   0.439  0.00  0.00    -0.336 N 
ATOM     14  H   UNL     1       5.100   1.326   1.494  0.00  0.00    +0.147 HD
ENDROOT
BRANCH  12  15
ATOM     15  C   UNL     1       2.385   1.406  -0.013  0.00  0.00    +0.015 A 
ATOM     16  C   UNL     1       2.399   0.025  -0.021  0.00  0.00    +0.024 A 
ATOM     17  C   UNL     1       1.209  -0.680  -0.014  0.00  0.00    +0.018 A 
ATOM     18  C   UNL     1       0.002  -0.004   0.002  0.00  0.00    +0.019 A 
ATOM     19  C   UNL     1      -0.017   1.377   0.010  0.00  0.00    +0.047 A 
ATOM     20  C   UNL     1       1.176   2.086   0.002  0.00  0.00    +0.122 A 
ATOM     21 BR   UNL     1       1.232  -2.571  -0.025  0.00  0.00    -0.050 Br
BRANCH  20  22
ATOM     22  O   UNL     1       1.160   3.445   0.009  0.00  0.00    -0.506 OA
ATOM     23  H   UNL     1       0.201   3.984   0.021  0.00  0.00    +0.292 HD
ENDBRANCH  20  22
ENDBRANCH  12  15
BRANCH   6  24
ATOM     24  S   UNL     1       7.735  -2.279  -3.265  0.00  0.00    +0.061 S 
ATOM     25  O   UNL     1       8.267  -3.330  -2.470  0.00  0.00    -0.153 OA
ATOM     26  O   UNL     1       6.883  -2.520  -4.377  0.00  0.00    -0.153 OA
BRANCH  24  27
ATOM     27  N   UNL     1       9.029  -1.418  -3.838  0.00  0.00    -0.172 NA
ATOM     28  C   UNL     1       8.921  -0.619  -5.069  0.00  0.00    +0.137 C 
ATOM     29  C   UNL     1       9.447   0.794  -4.770  0.00  0.00    +0.177 C 
ATOM     30  O   UNL     1      10.750   0.697  -4.189  0.00  0.00    -0.377 OA
ATOM     31  C   UNL     1      10.780   0.014  -2.933  0.00  0.00    +0.177 C 
ATOM     32  C   UNL     1      10.321  -1.434  -3.135  0.00  0.00    +0.137 C 
ENDBRANCH  24  27
ENDBRANCH   6  24
TORSDOF 4
