REMARK  Name = ZINC04073618
REMARK  8 active torsions:
REMARK  status: ('A' for Active; 'I' for Inactive)
REMARK    1  A    between atoms: C_4  and  C_7
REMARK    2  A    between atoms: C_16  and  O_18
REMARK    3  A    between atoms: O_18  and  C_19
REMARK    4  A    between atoms: C_21  and  O_34
REMARK    5  A    between atoms: C_23  and  O_33
REMARK    6  A    between atoms: C_25  and  O_32
REMARK    7  A    between atoms: C_27  and  C_30
REMARK    8  A    between atoms: C_30  and  O_31
REMARK                            x       y       z     vdW  Elec       q    Type
REMARK                         _______ _______ _______ _____ _____    ______ ____
ROOT
ATOM      1  C   UNL     1       1.196   3.296   0.008  0.00  0.00    -0.000 A 
ATOM      2  C   UNL     1       1.204   1.914   0.001  0.00  0.00    +0.101 A 
ATOM      3  C   UNL     1      -0.014   1.214   0.009  0.00  0.00    +0.338 A 
ATOM      4  O   UNL     1       0.002  -0.004   0.002  0.00  0.00    -0.245 OA
ATOM      5  O   UNL     1      -1.196   1.851   0.018  0.00  0.00    -0.422 OA
ATOM      6  C   UNL     1      -1.281   3.199   0.031  0.00  0.00    +0.143 A 
ATOM      7  C   UNL     1      -0.110   3.976   0.024  0.00  0.00    +0.026 A 
ATOM      8  C   UNL     1      -0.194   5.370   0.032  0.00  0.00    +0.016 A 
ATOM      9  C   UNL     1      -1.418   5.977   0.045  0.00  0.00    +0.046 A 
ATOM     10  C   UNL     1      -2.583   5.213   0.053  0.00  0.00    +0.128 A 
ATOM     11  C   UNL     1      -2.516   3.829   0.045  0.00  0.00    +0.092 A 
ENDROOT
BRANCH   1  15
ATOM     12  C   UNL     1       4.822   5.510  -0.014  0.00  0.00    +0.000 A 
ATOM     13  C   UNL     1       4.644   4.488   0.902  0.00  0.00    +0.001 A 
ATOM     14  C   UNL     1       3.469   3.766   0.914  0.00  0.00    +0.008 A 
ATOM     15  C   UNL     1       2.458   4.067   0.000  0.00  0.00    -0.017 A 
ATOM     16  C   UNL     1       2.646   5.096  -0.924  0.00  0.00    +0.008 A 
ATOM     17  C   UNL     1       3.824   5.814  -0.923  0.00  0.00    +0.001 A 
ENDBRANCH   1  15
BRANCH  10  18
ATOM     18  O   UNL     1      -3.792   5.829   0.067  0.00  0.00    -0.461 OA
BRANCH  18  19
ATOM     19  C   UNL     1      -3.792   7.258   0.075  0.00  0.00    +0.339 C 
ATOM     20  C   UNL     1      -5.231   7.769  -0.035  0.00  0.00    +0.214 C 
ATOM     21  C   UNL     1      -5.229   9.299   0.035  0.00  0.00    +0.180 C 
ATOM     22  C   UNL     1      -4.553   9.739   1.337  0.00  0.00    +0.177 C 
ATOM     23  C   UNL     1      -3.140   9.152   1.393  0.00  0.00    +0.179 C 
ATOM     24  O   UNL     1      -3.212   7.728   1.293  0.00  0.00    -0.331 OA
BRANCH  22  25
ATOM     25  O   UNL     1      -5.311   9.266   2.452  0.00  0.00    -0.386 OA
ATOM     26  H   UNL     1      -6.220   9.595   2.477  0.00  0.00    +0.210 HD
ENDBRANCH  22  25
BRANCH  21  27
ATOM     27  O   UNL     1      -6.573   9.781   0.007  0.00  0.00    -0.386 OA
ATOM     28  H   UNL     1      -7.064   9.533  -0.788  0.00  0.00    +0.210 HD
ENDBRANCH  21  27
BRANCH  20  29
ATOM     29  O   UNL     1      -5.795   7.347  -1.278  0.00  0.00    -0.383 OA
ATOM     30  H   UNL     1      -5.824   6.387  -1.391  0.00  0.00    +0.210 HD
ENDBRANCH  20  29
BRANCH  23  31
ATOM     31  C   UNL     1      -2.479   9.537   2.718  0.00  0.00    +0.190 C 
BRANCH  31  32
ATOM     32  O   UNL     1      -1.123   9.089   2.722  0.00  0.00    -0.392 OA
ATOM     33  H   UNL     1      -0.641   9.300   3.534  0.00  0.00    +0.210 HD
ENDBRANCH  31  32
ENDBRANCH  23  31
ENDBRANCH  18  19
ENDBRANCH  10  18
TORSDOF 8
