REMARK  Name = ZINC49151988
REMARK  9 active torsions:
REMARK  status: ('A' for Active; 'I' for Inactive)
REMARK    1  A    between atoms: C_1  and  C_2
REMARK    2  A    between atoms: C_5  and  C_7
REMARK    3  A    between atoms: C_7  and  C_9
REMARK    4  A    between atoms: C_7  and  N_10
REMARK    5  A    between atoms: N_10  and  S_11
REMARK    6  A    between atoms: S_11  and  C_14
REMARK    7  A    between atoms: C_16  and  N_22
REMARK    8  A    between atoms: C_19  and  O_20
REMARK    9  A    between atoms: O_20  and  C_21
REMARK                            x       y       z     vdW  Elec       q    Type
REMARK                         _______ _______ _______ _____ _____    ______ ____
ROOT
ATOM      1  S   UNL     1       2.350  -5.514  -1.828  0.00  0.00    +0.062 S 
ATOM      2  O   UNL     1       3.534  -5.475  -2.611  0.00  0.00    -0.153 OA
ATOM      3  O   UNL     1       2.102  -6.538  -0.873  0.00  0.00    -0.153 OA
ENDROOT
BRANCH   1   4
ATOM      4  C   UNL     1       0.999  -5.542  -2.958  0.00  0.00    +0.148 A 
ATOM      5  C   UNL     1       1.237  -5.559  -4.319  0.00  0.00    +0.055 A 
ATOM      6  C   UNL     1       0.172  -5.581  -5.209  0.00  0.00    +0.027 A 
ATOM      7  C   UNL     1      -1.132  -5.586  -4.731  0.00  0.00    +0.026 A 
ATOM      8  C   UNL     1      -1.369  -5.569  -3.370  0.00  0.00    +0.049 A 
ATOM      9  C   UNL     1      -0.304  -5.553  -2.481  0.00  0.00    +0.146 A 
BRANCH   6  10
ATOM     10  N   UNL     1       0.412  -5.597  -6.588  0.00  0.00    -0.358 N 
ATOM     11  H   UNL     1       1.323  -5.593  -6.921  0.00  0.00    +0.142 HD
ATOM     12  H   UNL     1      -0.332  -5.613  -7.209  0.00  0.00    +0.142 HD
ENDBRANCH   6  10
BRANCH   9  13
ATOM     13  O   UNL     1      -0.537  -5.542  -1.142  0.00  0.00    -0.493 OA
ATOM     14  C   UNL     1      -1.903  -5.554  -0.721  0.00  0.00    +0.277 C 
ENDBRANCH   9  13
ENDBRANCH   1   4
BRANCH   1  15
ATOM     15  N   UNL     1       2.275  -4.076  -1.010  0.00  0.00    -0.182 NA
ATOM     16  H   UNL     1       2.100  -4.069  -0.056  0.00  0.00    +0.149 HD
BRANCH  15  17
ATOM     17  C   UNL     1       2.473  -2.814  -1.728  0.00  0.00    +0.110 C 
ATOM     18  C   UNL     1       1.113  -2.226  -2.108  0.00  0.00    +0.031 C 
BRANCH  17  23
ATOM     19  C   UNL     1       4.675   0.476   2.324  0.00  0.00    +0.051 C 
ATOM     20  C   UNL     1       4.258  -0.276   1.086  0.00  0.00    -0.013 A 
ATOM     21  C   UNL     1       4.731  -0.166  -0.179  0.00  0.00    +0.011 A 
ATOM     22  C   UNL     1       4.194  -0.969  -1.168  0.00  0.00    +0.013 A 
ATOM     23  C   UNL     1       3.210  -1.843  -0.842  0.00  0.00    +0.008 A 
ATOM     24  S   UNL     1       3.021  -1.550   0.909  0.00  0.00    -0.097 S 
ENDBRANCH  17  23
ENDBRANCH  15  17
ENDBRANCH   1  15
TORSDOF 6
