REMARK  Name = ZINC54540184
REMARK  7 active torsions:
REMARK  status: ('A' for Active; 'I' for Inactive)
REMARK    1  A    between atoms: C_3  and  C_6
REMARK    2  A    between atoms: C_6  and  C_8
REMARK    3  A    between atoms: C_6  and  N_24
REMARK    4  A    between atoms: C_8  and  N_9
REMARK    5  A    between atoms: N_12  and  C_13
REMARK    6  A    between atoms: C_13  and  C_14
REMARK    7  A    between atoms: N_16  and  C_17
REMARK                            x       y       z     vdW  Elec       q    Type
REMARK                         _______ _______ _______ _____ _____    ______ ____
ROOT
ATOM      1  N   UNL     1       5.785   0.066   1.380  0.00  0.00    -0.301 N 
ATOM      2  C   UNL     1       6.615  -0.263   2.390  0.00  0.00    +0.300 C 
ATOM      3  O   UNL     1       6.181  -0.380   3.519  0.00  0.00    -0.253 OA
ATOM      4  N   UNL     1       7.926  -0.461   2.147  0.00  0.00    -0.291 N 
ATOM      5  H   UNL     1       6.131   0.160   0.479  0.00  0.00    +0.150 HD
ATOM      6  H   UNL     1       8.272  -0.367   1.246  0.00  0.00    +0.151 HD
ENDROOT
BRANCH   1   7
ATOM      7  C   UNL     1       4.360   0.282   1.644  0.00  0.00    +0.098 C 
BRANCH   7   8
ATOM      8  C   UNL     1       3.627   0.519   0.322  0.00  0.00    +0.016 C 
BRANCH   8   9
ATOM      9  N   UNL     1       2.183   0.608   0.572  0.00  0.00    +0.387 N 
ATOM     10  C   UNL     1       1.442   0.654  -0.715  0.00  0.00    -0.078 C 
ATOM     11  C   UNL     1       0.020   0.181  -0.322  0.00  0.00    -0.020 C 
ATOM     12  C   UNL     1       0.298  -0.915   0.731  0.00  0.00    -0.020 C 
ATOM     13  C   UNL     1       1.710  -0.610   1.266  0.00  0.00    -0.078 C 
ATOM     14  H   UNL     1       1.974   1.426   1.124  0.00  0.00    -0.081 HD
ENDBRANCH   8   9
BRANCH   8  17
ATOM     15  C   UNL     1       5.166   3.294  -1.554  0.00  0.00    +0.041 A 
ATOM     16  C   UNL     1       5.013   1.914  -1.287  0.00  0.00    +0.043 A 
ATOM     17  C   UNL     1       4.110   1.807  -0.296  0.00  0.00    +0.093 A 
ATOM     18  O   UNL     1       3.711   3.042   0.051  0.00  0.00    -0.469 OA
ATOM     19  C   UNL     1       4.348   3.947  -0.709  0.00  0.00    +0.195 A 
ENDBRANCH   8  17
ENDBRANCH   7   8
ENDBRANCH   1   7
BRANCH   4  20
ATOM     20  C   UNL     1       8.828  -0.819   3.245  0.00  0.00    +0.202 C 
BRANCH  20  21
ATOM     21  C   UNL     1      10.228  -0.983   2.712  0.00  0.00    +0.234 C 
ATOM     22  O   UNL     1      10.450  -0.817   1.531  0.00  0.00    -0.274 OA
ATOM     23  N   UNL     1      11.233  -1.313   3.547  0.00  0.00    -0.284 N 
ATOM     24  H   UNL     1      11.069  -1.377   4.501  0.00  0.00    +0.155 HD
BRANCH  23  25
ATOM     25  C   UNL     1      12.512  -1.564   3.037  0.00  0.00    +0.034 A 
ATOM     26  C   UNL     1      13.313  -2.540   3.617  0.00  0.00    +0.025 A 
ATOM     27  C   UNL     1      14.575  -2.785   3.112  0.00  0.00    +0.022 A 
ATOM     28  C   UNL     1      15.042  -2.060   2.030  0.00  0.00    +0.041 A 
ATOM     29  C   UNL     1      14.246  -1.087   1.451  0.00  0.00    +0.022 A 
ATOM     30  C   UNL     1      12.981  -0.842   1.948  0.00  0.00    +0.025 A 
ATOM     31 CL   UNL     1      16.629  -2.371   1.399  0.00  0.00    -0.084 Cl
ENDBRANCH  23  25
ENDBRANCH  20  21
ENDBRANCH   4  20
TORSDOF 7
