REMARK  Name = ZINC39440413
REMARK  5 active torsions:
REMARK  status: ('A' for Active; 'I' for Inactive)
REMARK    1  A    between atoms: C_6  and  C_7
REMARK    2  A    between atoms: C_10  and  C_35
REMARK    3  A    between atoms: C_17  and  C_20
REMARK    4  A    between atoms: N_22  and  C_23
REMARK    5  A    between atoms: C_23  and  C_24
REMARK                            x       y       z     vdW  Elec       q    Type
REMARK                         _______ _______ _______ _____ _____    ______ ____
ROOT
ATOM      1  C   UNL     1      -1.294  -0.774   0.010  0.00  0.00    -0.037 C 
ATOM      2  C   UNL     1      -1.846  -0.828   1.439  0.00  0.00    +0.018 C 
ATOM      3  C   UNL     1      -3.146  -1.646   1.457  0.00  0.00    +0.173 C 
ATOM      4  N   UNL     1      -4.008  -1.136   0.396  0.00  0.00    -0.245 NA
ATOM      5  C   UNL     1      -3.469   0.164  -0.088  0.00  0.00    +0.019 C 
ATOM      6  N   UNL     1      -2.269  -0.104  -0.873  0.00  0.00    +0.395 N 
ATOM      7  C   UNL     1      -4.632   0.729  -0.916  0.00  0.00    +0.030 C 
ATOM      8  C   UNL     1      -5.885   0.066  -0.292  0.00  0.00    +0.155 C 
ATOM      9  N   UNL     1      -5.374  -0.821   0.788  0.00  0.00    -0.243 NA
ATOM     10  H   UNL     1      -1.882   0.764  -1.214  0.00  0.00    -0.083 HD
ATOM     11  H   UNL     1      -5.932  -1.658   0.863  0.00  0.00    +0.142 HD
ATOM     12  H   UNL     1      -2.496  -0.706  -1.650  0.00  0.00    -0.083 HD
ENDROOT
BRANCH   1  18
ATOM     13  C   UNL     1      -0.017   1.378   0.010  0.00  0.00    +0.006 A 
ATOM     14  C   UNL     1       1.170   2.088   0.002  0.00  0.00    +0.050 A 
ATOM     15  C   UNL     1       2.380   1.416  -0.013  0.00  0.00    +0.166 A 
ATOM     16  C   UNL     1       2.399   0.023  -0.021  0.00  0.00    +0.166 A 
ATOM     17  C   UNL     1       1.207  -0.682  -0.014  0.00  0.00    +0.051 A 
ATOM     18  C   UNL     1       0.002  -0.004   0.002  0.00  0.00    -0.058 A 
ATOM     19  O   UNL     1       3.698  -0.395  -0.036  0.00  0.00    -0.453 OA
ATOM     20  C   UNL     1       4.466   0.750  -0.450  0.00  0.00    +0.466 C 
ATOM     21  O   UNL     1       3.668   1.870  -0.024  0.00  0.00    -0.453 OA
ENDBRANCH   1  18
BRANCH   8  22
ATOM     22  C   UNL     1      -6.798   1.118   0.283  0.00  0.00    +0.232 C 
ATOM     23  O   UNL     1      -6.793   1.340   1.475  0.00  0.00    -0.274 OA
ATOM     24  N   UNL     1      -7.622   1.812  -0.528  0.00  0.00    -0.308 N 
ATOM     25  H   UNL     1      -7.626   1.634  -1.482  0.00  0.00    +0.149 HD
BRANCH  24  26
ATOM     26  C   UNL     1      -8.509   2.834   0.031  0.00  0.00    +0.157 C 
BRANCH  26  27
ATOM     27  C   UNL     1      -9.319   3.457  -1.077  0.00  0.00    +0.034 A 
ATOM     28  H   UNL     1      -8.046   4.944  -1.790  0.00  0.00    +0.166 HD
ATOM     29  C   UNL     1     -10.555   3.077  -1.436  0.00  0.00    +0.032 A 
ATOM     30  C   UNL     1     -10.964   3.941  -2.546  0.00  0.00    +0.001 A 
ATOM     31  C   UNL     1     -12.116   4.034  -3.329  0.00  0.00    +0.030 A 
ATOM     32  C   UNL     1     -12.189   4.983  -4.324  0.00  0.00    +0.042 A 
ATOM     33  C   UNL     1     -11.124   5.846  -4.551  0.00  0.00    +0.022 A 
ATOM     34  C   UNL     1      -9.980   5.765  -3.787  0.00  0.00    +0.027 A 
ATOM     35  C   UNL     1      -9.886   4.814  -2.777  0.00  0.00    +0.047 A 
ATOM     36  N   UNL     1      -8.904   4.498  -1.863  0.00  0.00    -0.357 N 
ATOM     37 CL   UNL     1     -13.619   5.103  -5.301  0.00  0.00    -0.084 Cl
ENDBRANCH  26  27
ENDBRANCH  24  26
ENDBRANCH   8  22
BRANCH   3  38
ATOM     38  C   UNL     1      -3.840  -1.487   2.812  0.00  0.00    +0.406 C 
ATOM     39  F   UNL     1      -4.140  -0.138   3.026  0.00  0.00    -0.169 F 
ATOM     40  F   UNL     1      -5.022  -2.235   2.821  0.00  0.00    -0.169 F 
ATOM     41  F   UNL     1      -2.992  -1.943   3.827  0.00  0.00    -0.169 F 
ENDBRANCH   3  38
TORSDOF 5
