REMARK  Name = ZINC09331742
REMARK  5 active torsions:
REMARK  status: ('A' for Active; 'I' for Inactive)
REMARK    1  A    between atoms: C_1  and  N_49
REMARK    2  A    between atoms: C_14  and  C_16
REMARK    3  A    between atoms: C_17  and  O_31
REMARK    4  A    between atoms: C_19  and  O_30
REMARK    5  A    between atoms: N_20  and  C_23
REMARK                            x       y       z     vdW  Elec       q    Type
REMARK                         _______ _______ _______ _____ _____    ______ ____
ROOT
ATOM      1  C   UNL     1       2.275   5.574   0.110  0.00  0.00    +0.071 A 
ATOM      2  C   UNL     1       1.044   6.201   0.018  0.00  0.00    +0.224 A 
ATOM      3  N   UNL     1      -0.070   5.467  -0.074  0.00  0.00    -0.161 NA
ATOM      4  C   UNL     1      -0.022   4.154  -0.079  0.00  0.00    +0.306 A 
ATOM      5  N   UNL     1       1.161   3.487   0.009  0.00  0.00    -0.231 N 
ATOM      6  C   UNL     1       2.318   4.174   0.109  0.00  0.00    +0.267 A 
ATOM      7  O   UNL     1       3.384   3.586   0.194  0.00  0.00    -0.267 OA
ENDROOT
BRANCH   1  21
ATOM      8  C   UNL     1       3.570   6.240   2.633  0.00  0.00    -0.095 C 
ATOM      9  C   UNL     1       5.642   6.564   1.424  0.00  0.00    -0.073 C 
ATOM     10  C   UNL     1       6.514   5.939   0.327  0.00  0.00    +0.019 C 
ATOM     11  C   UNL     1       5.728   5.954  -0.960  0.00  0.00    -0.022 A 
ATOM     12  C   UNL     1       6.189   5.776  -2.318  0.00  0.00    +0.003 A 
ATOM     13  C   UNL     1       7.451   5.537  -2.871  0.00  0.00    +0.010 A 
ATOM     14  C   UNL     1       7.519   5.421  -4.237  0.00  0.00    +0.001 A 
ATOM     15  C   UNL     1       6.398   5.532  -5.043  0.00  0.00    +0.002 A 
ATOM     16  C   UNL     1       5.137   5.768  -4.523  0.00  0.00    +0.026 A 
ATOM     17  C   UNL     1       5.036   5.890  -3.139  0.00  0.00    +0.047 A 
ATOM     18  N   UNL     1       3.971   6.119  -2.316  0.00  0.00    -0.359 N 
ATOM     19  H   UNL     1       3.054   6.238  -2.610  0.00  0.00    +0.166 HD
ATOM     20  C   UNL     1       4.391   6.155  -1.014  0.00  0.00    +0.011 A 
ATOM     21  C   UNL     1       3.542   6.382   0.214  0.00  0.00    +0.021 C 
ATOM     22  N   UNL     1       4.310   5.920   1.395  0.00  0.00    +0.387 N 
ATOM     23  H   UNL     1       4.434   4.903   1.335  0.00  0.00    -0.081 HD
ENDBRANCH   1  21
BRANCH   5  24
ATOM     24  C   UNL     1       1.177   2.086   0.002  0.00  0.00    +0.054 A 
ATOM     25  C   UNL     1       1.281   1.398  -1.199  0.00  0.00    +0.027 A 
ATOM     26  C   UNL     1       1.297   0.017  -1.204  0.00  0.00    +0.017 A 
ATOM     27  C   UNL     1       1.210  -0.681  -0.012  0.00  0.00    +0.018 A 
ATOM     28  C   UNL     1       1.105   0.003   1.187  0.00  0.00    +0.017 A 
ATOM     29  C   UNL     1       1.088   1.383   1.196  0.00  0.00    +0.027 A 
ATOM     30 BR   UNL     1       1.232  -2.571  -0.022  0.00  0.00    -0.050 Br
ENDBRANCH   5  24
BRANCH   4  31
ATOM     31  O   UNL     1      -1.170   3.451  -0.173  0.00  0.00    -0.479 OA
ATOM     32  H   UNL     1      -1.991   3.959  -0.234  0.00  0.00    +0.295 HD
ENDBRANCH   4  31
BRANCH   2  33
ATOM     33  O   UNL     1       0.969   7.552   0.021  0.00  0.00    -0.492 OA
ATOM     34  H   UNL     1       0.067   7.896  -0.048  0.00  0.00    +0.294 HD
ENDBRANCH   2  33
TORSDOF 4
