REMARK  Name = ZINC26771951
REMARK  10 active torsions:
REMARK  status: ('A' for Active; 'I' for Inactive)
REMARK    1  A    between atoms: C_1  and  O_2
REMARK    2  A    between atoms: O_2  and  C_3
REMARK    3  A    between atoms: C_6  and  C_9
REMARK    4  A    between atoms: C_9  and  C_10
REMARK    5  A    between atoms: C_10  and  N_11
REMARK    6  A    between atoms: C_31  and  C_33
REMARK    7  A    between atoms: C_36  and  O_41
REMARK    8  A    between atoms: C_37  and  O_39
REMARK    9  A    between atoms: O_39  and  C_40
REMARK   10  A    between atoms: O_41  and  C_42
REMARK                            x       y       z     vdW  Elec       q    Type
REMARK                         _______ _______ _______ _____ _____    ______ ____
ROOT
ATOM      1  N   UNL     1       1.289   2.057  -0.161  0.00  0.00    -0.291 N 
ATOM      2  C   UNL     1      -0.046   1.483  -0.144  0.00  0.00    +0.203 C 
ATOM      3  C   UNL     1      -0.015  -0.010  -0.095  0.00  0.00    +0.234 C 
ATOM      4  O   UNL     1      -1.075  -0.599  -0.104  0.00  0.00    -0.274 OA
ATOM      5  N   UNL     1       1.101  -0.739  -0.040  0.00  0.00    -0.276 N 
ATOM      6  C   UNL     1       2.437  -0.152   0.052  0.00  0.00    +0.167 C 
ATOM      7  C   UNL     1       2.404   1.339  -0.059  0.00  0.00    +0.237 C 
ATOM      8  O   UNL     1       3.463   1.930  -0.088  0.00  0.00    -0.274 OA
ATOM      9  C   UNL     1       3.066  -0.539   1.398  0.00  0.00    +0.069 C 
ATOM     10  C   UNL     1       2.833  -2.009   1.640  0.00  0.00    -0.015 A 
ATOM     11  C   UNL     1       3.510  -2.883   2.576  0.00  0.00    +0.003 A 
ATOM     12  C   UNL     1       4.538  -2.668   3.499  0.00  0.00    +0.010 A 
ATOM     13  C   UNL     1       4.942  -3.751   4.241  0.00  0.00    +0.001 A 
ATOM     14  C   UNL     1       4.367  -5.002   4.089  0.00  0.00    +0.002 A 
ATOM     15  C   UNL     1       3.349  -5.243   3.182  0.00  0.00    +0.026 A 
ATOM     16  C   UNL     1       2.918  -4.162   2.416  0.00  0.00    +0.047 A 
ATOM     17  N   UNL     1       1.960  -4.048   1.451  0.00  0.00    -0.356 N 
ATOM     18  H   UNL     1       1.366  -4.927   1.159  0.00  0.00    +0.166 HD
ATOM     19  C   UNL     1       1.916  -2.759   0.992  0.00  0.00    +0.046 A 
ATOM     20  C   UNL     1       0.998  -2.214  -0.079  0.00  0.00    +0.154 C 
ENDROOT
BRANCH  20  21
ATOM     21  C   UNL     1      -0.422  -2.636   0.199  0.00  0.00    -0.018 A 
ATOM     22  C   UNL     1      -1.174  -3.227  -0.799  0.00  0.00    +0.009 A 
ATOM     23  C   UNL     1      -2.477  -3.615  -0.548  0.00  0.00    +0.050 A 
ATOM     24  C   UNL     1      -3.031  -3.413   0.705  0.00  0.00    +0.162 A 
ATOM     25  C   UNL     1      -2.274  -2.818   1.710  0.00  0.00    +0.162 A 
ATOM     26  C   UNL     1      -0.967  -2.436   1.454  0.00  0.00    +0.055 A 
BRANCH  25  27
ATOM     27  O   UNL     1      -2.814  -2.618   2.942  0.00  0.00    -0.491 OA
ATOM     28  C   UNL     1      -1.978  -2.002   3.924  0.00  0.00    +0.277 C 
ENDBRANCH  25  27
BRANCH  24  29
ATOM     29  O   UNL     1      -4.313  -3.795   0.953  0.00  0.00    -0.491 OA
ATOM     30  C   UNL     1      -5.030  -4.399  -0.125  0.00  0.00    +0.277 C 
ENDBRANCH  24  29
ENDBRANCH  20  21
BRANCH   1  31
ATOM     31  C   UNL     1       1.413   3.512  -0.276  0.00  0.00    +0.113 C 
BRANCH  31  32
ATOM     32  C   UNL     1       1.423   4.135   1.121  0.00  0.00    +0.054 C 
BRANCH  32  36
ATOM     33  C   UNL     1       1.784   8.380   0.785  0.00  0.00    +0.120 A 
ATOM     34  C   UNL     1       0.529   7.789   0.804  0.00  0.00    +0.046 A 
ATOM     35  C   UNL     1       0.415   6.417   0.913  0.00  0.00    +0.007 A 
ATOM     36  C   UNL     1       1.550   5.632   1.003  0.00  0.00    -0.046 A 
ATOM     37  C   UNL     1       2.802   6.220   0.989  0.00  0.00    +0.007 A 
ATOM     38  C   UNL     1       2.922   7.591   0.875  0.00  0.00    +0.046 A 
BRANCH  33  40
ATOM     39  C   UNL     1       3.222  10.270   0.664  0.00  0.00    +0.277 C 
ATOM     40  O   UNL     1       1.899   9.730   0.678  0.00  0.00    -0.495 OA
ENDBRANCH  33  40
ENDBRANCH  32  36
ENDBRANCH  31  32
ENDBRANCH   1  31
TORSDOF 7
