REMARK  Name = ZINC67401134
REMARK  9 active torsions:
REMARK  status: ('A' for Active; 'I' for Inactive)
REMARK    1  A    between atoms: C_1  and  O_2
REMARK    2  A    between atoms: O_2  and  C_3
REMARK    3  A    between atoms: C_6  and  C_9
REMARK    4  A    between atoms: C_9  and  C_11
REMARK    5  A    between atoms: C_9  and  O_28
REMARK    6  A    between atoms: C_11  and  N_12
REMARK    7  A    between atoms: C_15  and  C_18
REMARK    8  A    between atoms: C_18  and  C_20
REMARK    9  A    between atoms: C_18  and  O_27
REMARK                            x       y       z     vdW  Elec       q    Type
REMARK                         _______ _______ _______ _____ _____    ______ ____
ROOT
ATOM      1  N   UNL     1       1.999  -3.546  -6.612  0.00  0.00    +0.382 N 
ATOM      2  C   UNL     1       2.463  -4.881  -6.214  0.00  0.00    -0.078 C 
ATOM      3  C   UNL     1       3.104  -5.581  -7.414  0.00  0.00    -0.012 C 
ATOM      4  C   UNL     1       2.070  -5.712  -8.535  0.00  0.00    +0.019 C 
ATOM      5  C   UNL     1       1.539  -4.320  -8.891  0.00  0.00    -0.012 C 
ATOM      6  C   UNL     1       0.955  -3.667  -7.636  0.00  0.00    -0.078 C 
ATOM      7  H   UNL     1       2.775  -3.020  -6.984  0.00  0.00    -0.082 HD
ENDROOT
BRANCH   1   8
ATOM      8  C   UNL     1       1.454  -2.849  -5.439  0.00  0.00    -0.042 C 
BRANCH   8   9
ATOM      9  C   UNL     1       1.116  -1.405  -5.816  0.00  0.00    +0.128 C 
BRANCH   9  13
ATOM     10  C   UNL     1      -0.516   0.608  -2.418  0.00  0.00    +0.120 A 
ATOM     11  C   UNL     1      -1.360   0.025  -3.352  0.00  0.00    +0.046 A 
ATOM     12  C   UNL     1      -0.830  -0.625  -4.450  0.00  0.00    +0.009 A 
ATOM     13  C   UNL     1       0.540  -0.695  -4.618  0.00  0.00    -0.021 A 
ATOM     14  C   UNL     1       1.384  -0.116  -3.688  0.00  0.00    +0.009 A 
ATOM     15  C   UNL     1       0.859   0.541  -2.592  0.00  0.00    +0.046 A 
BRANCH  10  17
ATOM     16  C   UNL     1      -2.459   1.278  -1.223  0.00  0.00    +0.277 C 
ATOM     17  O   UNL     1      -1.035   1.248  -1.337  0.00  0.00    -0.495 OA
ENDBRANCH  10  17
ENDBRANCH   9  13
BRANCH   9  18
ATOM     18  O   UNL     1       2.303  -0.734  -6.243  0.00  0.00    -0.389 OA
ATOM     19  H   UNL     1       2.998  -0.698  -5.572  0.00  0.00    +0.210 HD
ENDBRANCH   9  18
ENDBRANCH   8   9
ENDBRANCH   1   8
BRANCH   4  20
ATOM     20  C   UNL     1       2.726  -6.339  -9.767  0.00  0.00    +0.147 C 
BRANCH  20  21
ATOM     21  C   UNL     1       1.707  -6.466 -10.869  0.00  0.00    -0.019 A 
ATOM     22  C   UNL     1       0.802  -7.511 -10.855  0.00  0.00    +0.007 A 
ATOM     23  C   UNL     1      -0.133  -7.629 -11.866  0.00  0.00    +0.020 A 
ATOM     24  C   UNL     1      -0.164  -6.701 -12.892  0.00  0.00    +0.041 A 
ATOM     25  C   UNL     1       0.742  -5.656 -12.905  0.00  0.00    +0.020 A 
ATOM     26  C   UNL     1       1.673  -5.536 -11.891  0.00  0.00    +0.007 A 
ATOM     27 CL   UNL     1      -1.338  -6.849 -14.162  0.00  0.00    -0.084 Cl
ENDBRANCH  20  21
BRANCH  20  28
ATOM     28  O   UNL     1       3.230  -7.633  -9.431  0.00  0.00    -0.387 OA
ATOM     29  H   UNL     1       2.552  -8.251  -9.123  0.00  0.00    +0.210 HD
ENDBRANCH  20  28
ENDBRANCH   4  20
TORSDOF 8
