REMARK  Name = ZINC05427141
REMARK  7 active torsions:
REMARK  status: ('A' for Active; 'I' for Inactive)
REMARK    1  A    between atoms: C_1  and  C_2
REMARK    2  A    between atoms: C_4  and  C_30
REMARK    3  A    between atoms: C_5  and  C_29
REMARK    4  A    between atoms: C_6  and  S_9
REMARK    5  A    between atoms: C_7  and  C_8
REMARK    6  A    between atoms: S_9  and  N_12
REMARK    7  A    between atoms: C_21  and  C_23
REMARK                            x       y       z     vdW  Elec       q    Type
REMARK                         _______ _______ _______ _____ _____    ______ ____
ROOT
ATOM      1  N   UNL     1      -3.213   2.933   0.329  0.00  0.00    -0.169 NA
ATOM      2  C   UNL     1      -3.606   1.769  -0.482  0.00  0.00    +0.115 C 
ATOM      3  C   UNL     1      -2.798   0.565  -0.001  0.00  0.00    +0.052 C 
ATOM      4  C   UNL     1      -1.339   0.916   0.130  0.00  0.00    -0.038 A 
ATOM      5  C   UNL     1      -0.425  -0.133   0.141  0.00  0.00    +0.053 A 
ATOM      6  C   UNL     1       0.926   0.120   0.279  0.00  0.00    +0.162 A 
ATOM      7  C   UNL     1       1.374   1.426   0.411  0.00  0.00    +0.162 A 
ATOM      8  C   UNL     1       0.467   2.468   0.400  0.00  0.00    +0.055 A 
ATOM      9  C   UNL     1      -0.891   2.212   0.257  0.00  0.00    -0.022 A 
ATOM     10  C   UNL     1      -1.827   3.395   0.227  0.00  0.00    +0.107 C 
ATOM     11  C   UNL     1      -1.654   4.148  -1.093  0.00  0.00    +0.031 C 
ATOM     12  O   UNL     1       2.709   1.671   0.548  0.00  0.00    -0.488 OA
ATOM     13  C   UNL     1       3.302   1.233   1.772  0.00  0.00    +0.232 C 
ATOM     14  C   UNL     1       3.692  -0.234   1.688  0.00  0.00    +0.082 C 
ATOM     15  C   UNL     1       2.486  -1.147   1.532  0.00  0.00    +0.232 C 
ATOM     16  O   UNL     1       1.826  -0.906   0.287  0.00  0.00    -0.488 OA
ENDROOT
BRANCH   1  17
ATOM     17  S   UNL     1      -4.294   3.689   1.330  0.00  0.00    +0.062 S 
ATOM     18  O   UNL     1      -3.808   5.009   1.530  0.00  0.00    -0.153 OA
ATOM     19  O   UNL     1      -5.588   3.425   0.805  0.00  0.00    -0.153 OA
BRANCH  17  25
ATOM     20  C   UNL     1      -2.627   3.424   6.277  0.00  0.00    +0.044 C 
ATOM     21  C   UNL     1      -3.418   2.809   5.152  0.00  0.00    -0.045 A 
ATOM     22  C   UNL     1      -4.080   1.611   5.346  0.00  0.00    +0.007 A 
ATOM     23  C   UNL     1      -4.806   1.047   4.314  0.00  0.00    -0.045 A 
ATOM     24  C   UNL     1      -4.871   1.682   3.087  0.00  0.00    -0.021 A 
ATOM     25  C   UNL     1      -4.211   2.880   2.893  0.00  0.00    +0.112 A 
ATOM     26  C   UNL     1      -3.480   3.442   3.924  0.00  0.00    -0.021 A 
ATOM     27  C   UNL     1      -2.755   4.745   3.711  0.00  0.00    +0.046 C 
ATOM     28  C   UNL     1      -5.663   1.067   1.962  0.00  0.00    +0.046 C 
ATOM     29  C   UNL     1      -5.527  -0.259   4.526  0.00  0.00    +0.044 C 
ENDBRANCH  17  25
ENDBRANCH   1  17
TORSDOF 2
