REMARK  Name = ZINC66702800
REMARK  13 active torsions:
REMARK  status: ('A' for Active; 'I' for Inactive)
REMARK    1  A    between atoms: C_1  and  C_2
REMARK    2  A    between atoms: C_2  and  C_3
REMARK    3  A    between atoms: C_3  and  C_4
REMARK    4  A    between atoms: C_4  and  N_5
REMARK    5  A    between atoms: C_10  and  C_12
REMARK    6  A    between atoms: C_12  and  N_13
REMARK    7  A    between atoms: N_16  and  C_17
REMARK    8  A    between atoms: C_17  and  C_18
REMARK    9  A    between atoms: C_18  and  C_19
REMARK   10  A    between atoms: C_19  and  N_20
REMARK   11  A    between atoms: C_24  and  C_26
REMARK   12  A    between atoms: N_28  and  C_29
REMARK   13  A    between atoms: N_28  and  C_30
REMARK                            x       y       z     vdW  Elec       q    Type
REMARK                         _______ _______ _______ _____ _____    ______ ____
ROOT
ATOM      1  N   UNL     1       1.319  -3.869   0.130  0.00  0.00    -0.301 N 
ATOM      2  C   UNL     1       1.723  -4.010   1.408  0.00  0.00    +0.300 C 
ATOM      3  O   UNL     1       2.799  -4.520   1.653  0.00  0.00    -0.253 OA
ATOM      4  N   UNL     1       0.933  -3.587   2.415  0.00  0.00    -0.299 N 
ATOM      5  H   UNL     1       0.461  -3.463  -0.065  0.00  0.00    +0.150 HD
ATOM      6  H   UNL     1       0.074  -3.181   2.219  0.00  0.00    +0.150 HD
ENDROOT
BRANCH   1   7
ATOM      7  C   UNL     1       2.178  -4.329  -0.964  0.00  0.00    +0.090 C 
BRANCH   7  13
ATOM      8  N   UNL     1       0.175  -4.468  -2.364  0.00  0.00    +0.383 N 
ATOM      9  C   UNL     1      -0.414  -4.172  -3.675  0.00  0.00    -0.078 C 
ATOM     10  C   UNL     1      -0.512  -2.657  -3.864  0.00  0.00    -0.019 C 
ATOM     11  C   UNL     1       0.889  -2.045  -3.782  0.00  0.00    -0.003 C 
ATOM     12  C   UNL     1       1.522  -2.423  -2.440  0.00  0.00    -0.014 C 
ATOM     13  C   UNL     1       1.546  -3.947  -2.304  0.00  0.00    -0.051 C 
ATOM     14  H   UNL     1      -0.381  -4.034  -1.642  0.00  0.00    -0.081 HD
BRANCH   8  15
ATOM     15  C   UNL     1       0.196  -5.922  -2.155  0.00  0.00    -0.078 C 
BRANCH  15  16
ATOM     16  C   UNL     1      -1.239  -6.447  -2.076  0.00  0.00    -0.019 C 
BRANCH  16  18
ATOM     17  C   UNL     1      -2.652  -8.486  -1.780  0.00  0.00    +0.004 C 
ATOM     18  C   UNL     1      -1.217  -7.961  -1.859  0.00  0.00    -0.005 C 
ENDBRANCH  16  18
ENDBRANCH  15  16
ENDBRANCH   8  15
ENDBRANCH   7  13
ENDBRANCH   1   7
BRANCH   4  19
ATOM     19  C   UNL     1       1.371  -3.741   3.804  0.00  0.00    +0.104 C 
BRANCH  19  20
ATOM     20  C   UNL     1       0.298  -3.184   4.742  0.00  0.00    +0.000 C 
BRANCH  20  21
ATOM     21  C   UNL     1       0.756  -3.344   6.193  0.00  0.00    -0.076 C 
BRANCH  21  22
ATOM     22  N   UNL     1      -0.274  -2.809   7.094  0.00  0.00    +0.387 N 
ATOM     23  C   UNL     1      -1.484  -3.669   7.055  0.00  0.00    -0.078 C 
ATOM     24  C   UNL     1      -2.195  -3.341   8.392  0.00  0.00    -0.020 C 
ATOM     25  C   UNL     1      -1.016  -3.169   9.377  0.00  0.00    -0.008 C 
ATOM     26  C   UNL     1       0.203  -2.846   8.493  0.00  0.00    +0.019 C 
ATOM     27  H   UNL     1      -0.509  -1.864   6.831  0.00  0.00    -0.081 HD
BRANCH  26  28
ATOM     28  C   UNL     1       0.775  -1.506   8.877  0.00  0.00    +0.202 C 
ATOM     29  O   UNL     1       0.790  -0.600   8.070  0.00  0.00    -0.277 OA
ATOM     30  N   UNL     1       1.271  -1.314  10.115  0.00  0.00    -0.309 N 
ATOM     31  C   UNL     1       1.827  -0.011  10.488  0.00  0.00    +0.131 C 
ATOM     32  C   UNL     1       1.253  -2.409  11.089  0.00  0.00    +0.131 C 
ENDBRANCH  26  28
ENDBRANCH  21  22
ENDBRANCH  20  21
ENDBRANCH  19  20
ENDBRANCH   4  19
TORSDOF 10
