REMARK  Name = ZINC02136231
REMARK  9 active torsions:
REMARK  status: ('A' for Active; 'I' for Inactive)
REMARK    1  A    between atoms: C_1  and  C_2
REMARK    2  A    between atoms: C_5  and  C_8
REMARK    3  A    between atoms: C_9  and  C_10
REMARK    4  A    between atoms: N_12  and  C_13
REMARK    5  A    between atoms: C_13  and  N_15
REMARK    6  A    between atoms: N_15  and  C_16
REMARK    7  A    between atoms: C_19  and  S_22
REMARK    8  A    between atoms: S_22  and  N_25
REMARK    9  A    between atoms: C_30  and  N_57
REMARK                            x       y       z     vdW  Elec       q    Type
REMARK                         _______ _______ _______ _____ _____    ______ ____
ROOT
ATOM      1  N   UNL     1       3.408   0.304   6.227  0.00  0.00    -0.297 N 
ATOM      2  H   UNL     1       4.319   0.362   5.899  0.00  0.00    +0.154 HD
ENDROOT
BRANCH   1   3
ATOM      3  C   UNL     1       2.336   0.365   5.331  0.00  0.00    +0.033 A 
ATOM      4  C   UNL     1       1.206   1.109   5.646  0.00  0.00    +0.025 A 
ATOM      5  C   UNL     1       0.150   1.167   4.758  0.00  0.00    +0.030 A 
ATOM      6  C   UNL     1       0.216   0.486   3.557  0.00  0.00    +0.106 A 
ATOM      7  C   UNL     1       1.337  -0.260   3.242  0.00  0.00    +0.030 A 
ATOM      8  C   UNL     1       2.399  -0.318   4.123  0.00  0.00    +0.025 A 
BRANCH   6   9
ATOM      9  S   UNL     1      -1.134   0.563   2.427  0.00  0.00    +0.061 S 
ATOM     10  O   UNL     1      -2.288   0.877   3.194  0.00  0.00    -0.153 OA
ATOM     11  O   UNL     1      -1.052  -0.601   1.616  0.00  0.00    -0.153 OA
BRANCH   9  12
ATOM     12  N   UNL     1      -0.863   1.856   1.428  0.00  0.00    -0.180 NA
ATOM     13  C   UNL     1      -0.113   1.697   0.173  0.00  0.00    +0.091 C 
ATOM     14  C   UNL     1      -0.930   2.311  -0.968  0.00  0.00    -0.062 C 
ATOM     15  C   UNL     1      -2.138   3.750   0.565  0.00  0.00    -0.062 C 
ATOM     16  C   UNL     1      -1.371   3.195   1.770  0.00  0.00    +0.091 C 
ATOM     17  C   UNL     1      -1.914   4.376  -1.763  0.00  0.00    -0.096 C 
ATOM     18  N   UNL     1      -1.254   3.712  -0.620  0.00  0.00    +0.380 N 
ATOM     19  H   UNL     1      -0.384   4.210  -0.402  0.00  0.00    -0.082 HD
ENDBRANCH   9  12
ENDBRANCH   6   9
ENDBRANCH   1   3
BRANCH   1  20
ATOM     20  C   UNL     1       3.175   0.165   7.547  0.00  0.00    +0.141 C 
ATOM     21  S   UNL     1       1.579  -0.081   8.114  0.00  0.00    -0.018 S 
BRANCH  20  24
ATOM     22  C   UNL     1       3.967   0.079   9.742  0.00  0.00    +0.242 C 
ATOM     23  O   UNL     1       2.832  -0.096  10.144  0.00  0.00    -0.270 OA
ATOM     24  N   UNL     1       4.200   0.218   8.421  0.00  0.00    -0.264 N 
ATOM     25  H   UNL     1       5.104   0.357   8.100  0.00  0.00    +0.157 HD
BRANCH  22  27
ATOM     26  C   UNL     1       4.846  -0.003  12.012  0.00  0.00    +0.013 C 
ATOM     27  C   UNL     1       5.079   0.137  10.690  0.00  0.00    +0.068 C 
BRANCH  26  32
ATOM     28  C   UNL     1       9.216   0.224  15.740  0.00  0.00    +0.044 C 
ATOM     29  C   UNL     1       8.071   0.165  14.763  0.00  0.00    -0.050 A 
ATOM     30  C   UNL     1       6.782  -0.034  15.225  0.00  0.00    +0.004 A 
ATOM     31  C   UNL     1       5.728  -0.089  14.337  0.00  0.00    +0.008 A 
ATOM     32  C   UNL     1       5.965   0.055  12.966  0.00  0.00    -0.025 A 
ATOM     33  C   UNL     1       7.272   0.250  12.507  0.00  0.00    +0.008 A 
ATOM     34  C   UNL     1       8.314   0.308  13.408  0.00  0.00    +0.004 A 
ENDBRANCH  26  32
ENDBRANCH  22  27
ENDBRANCH  20  24
ENDBRANCH   1  20
TORSDOF 7
