REMARK  Name = ZINC39205089
REMARK  11 active torsions:
REMARK  status: ('A' for Active; 'I' for Inactive)
REMARK    1  A    between atoms: C_1  and  C_2
REMARK    2  A    between atoms: C_2  and  C_3
REMARK    3  A    between atoms: C_3  and  S_4
REMARK    4  A    between atoms: S_4  and  C_7
REMARK    5  A    between atoms: C_14  and  C_22
REMARK    6  A    between atoms: C_15  and  S_16
REMARK    7  A    between atoms: S_16  and  C_19
REMARK    8  A    between atoms: C_19  and  C_20
REMARK    9  A    between atoms: C_20  and  C_21
REMARK   10  A    between atoms: N_24  and  N_25
REMARK   11  A    between atoms: C_26  and  C_27
REMARK                            x       y       z     vdW  Elec       q    Type
REMARK                         _______ _______ _______ _____ _____    ______ ____
ROOT
ATOM      1  C   UNL     1       1.605  -3.057   2.669  0.00  0.00    +0.139 A 
ATOM      2  C   UNL     1       2.994  -3.142   2.785  0.00  0.00    +0.074 A 
ATOM      3  C   UNL     1       4.014  -3.229   1.821  0.00  0.00    +0.028 A 
ATOM      4  C   UNL     1       5.313  -3.300   2.227  0.00  0.00    +0.003 A 
ATOM      5  C   UNL     1       5.611  -3.286   3.598  0.00  0.00    +0.018 A 
ATOM      6  C   UNL     1       4.619  -3.202   4.510  0.00  0.00    +0.092 A 
ATOM      7  N   UNL     1       3.314  -3.130   4.117  0.00  0.00    -0.309 N 
ATOM      8  C   UNL     1       2.143  -3.038   4.841  0.00  0.00    +0.138 A 
ATOM      9  C   UNL     1       1.081  -2.987   3.944  0.00  0.00    +0.144 A 
ENDROOT
BRANCH   8  10
ATOM     10  C   UNL     1       2.041  -2.999   6.250  0.00  0.00    +0.282 C 
ATOM     11  O   UNL     1       1.758  -4.009   6.869  0.00  0.00    -0.267 OA
ATOM     12  N   UNL     1       2.256  -1.843   6.909  0.00  0.00    -0.202 N 
ATOM     13  H   UNL     1       2.411  -1.024   6.414  0.00  0.00    +0.178 HD
BRANCH  12  14
ATOM     14  N   UNL     1       2.257  -1.825   8.310  0.00  0.00    -0.188 NA
ATOM     15  C   UNL     1       2.467  -0.701   8.951  0.00  0.00    +0.136 C 
BRANCH  15  16
ATOM     16  C   UNL     1       2.468  -0.683  10.351  0.00  0.00    +0.000 C 
ATOM     17  C   UNL     1       2.667   0.420  11.180  0.00  0.00    +0.004 A 
ATOM     18  C   UNL     1       2.917   1.784  10.910  0.00  0.00    +0.010 A 
ATOM     19  C   UNL     1       3.074   2.656  11.938  0.00  0.00    +0.001 A 
ATOM     20  C   UNL     1       2.997   2.239  13.270  0.00  0.00    +0.002 A 
ATOM     21  C   UNL     1       2.760   0.947  13.602  0.00  0.00    +0.026 A 
ATOM     22  C   UNL     1       2.584  -0.024  12.582  0.00  0.00    +0.043 A 
ATOM     23  N   UNL     1       2.348  -1.318  12.641  0.00  0.00    -0.380 N 
ATOM     24  C   UNL     1       2.246  -1.855  11.281  0.00  0.00    +0.150 C 
ATOM     25  H   UNL     1       2.253  -1.834  13.457  0.00  0.00    +0.160 HD
ENDBRANCH  15  16
ENDBRANCH  12  14
ENDBRANCH   8  10
BRANCH   1  26
ATOM     26  S   UNL     1       0.687  -3.035   1.165  0.00  0.00    +0.001 S 
ATOM     27  O   UNL     1      -0.593  -3.543   1.514  0.00  0.00    -0.169 OA
ATOM     28  O   UNL     1       1.508  -3.720   0.229  0.00  0.00    -0.169 OA
BRANCH  26  29
ATOM     29  C   UNL     1       0.563  -1.280   0.721  0.00  0.00    +0.172 C 
BRANCH  29  31
ATOM     30  C   UNL     1      -0.328   0.341  -0.959  0.00  0.00    +0.005 C 
ATOM     31  C   UNL     1      -0.223  -1.139  -0.584  0.00  0.00    +0.020 C 
ENDBRANCH  29  31
ENDBRANCH  26  29
ENDBRANCH   1  26
BRANCH   9  32
ATOM     32  S   UNL     1      -0.627  -2.861   4.361  0.00  0.00    +0.001 S 
ATOM     33  O   UNL     1      -0.638  -2.445   5.719  0.00  0.00    -0.169 OA
ATOM     34  O   UNL     1      -1.187  -2.038   3.346  0.00  0.00    -0.169 OA
BRANCH  32  35
ATOM     35  C   UNL     1      -1.268  -4.552   4.219  0.00  0.00    +0.172 C 
BRANCH  35  36
ATOM     36  C   UNL     1      -2.759  -4.562   4.561  0.00  0.00    +0.020 C 
ATOM     37  C   UNL     1      -3.300  -5.988   4.442  0.00  0.00    +0.005 C 
ENDBRANCH  35  36
ENDBRANCH  32  35
ENDBRANCH   9  32
TORSDOF 9
