REMARK  Name = ZINC41427987
REMARK  14 active torsions:
REMARK  status: ('A' for Active; 'I' for Inactive)
REMARK    1  A    between atoms: C_1  and  C_2
REMARK    2  A    between atoms: C_2  and  N_3
REMARK    3  A    between atoms: N_3  and  C_4
REMARK    4  A    between atoms: N_3  and  C_6
REMARK    5  A    between atoms: C_4  and  C_5
REMARK    6  A    between atoms: C_6  and  C_8
REMARK    7  A    between atoms: C_6  and  C_22
REMARK    8  A    between atoms: C_8  and  N_9
REMARK    9  A    between atoms: C_10  and  C_12
REMARK   10  A    between atoms: C_12  and  C_14
REMARK   11  A    between atoms: C_12  and  N_18
REMARK   12  A    between atoms: C_14  and  C_15
REMARK   13  A    between atoms: C_15  and  S_16
REMARK   14  A    between atoms: S_16  and  C_17
REMARK                            x       y       z     vdW  Elec       q    Type
REMARK                         _______ _______ _______ _____ _____    ______ ____
ROOT
ATOM      1  N   UNL     1       1.246  -2.456   3.401  0.00  0.00    -0.315 N 
ATOM      2  C   UNL     1       1.913  -2.752   4.534  0.00  0.00    +0.233 C 
ATOM      3  O   UNL     1       3.022  -3.240   4.475  0.00  0.00    -0.274 OA
ATOM      4  H   UNL     1       0.360  -2.065   3.447  0.00  0.00    +0.149 HD
ENDROOT
BRANCH   1   5
ATOM      5  C   UNL     1       1.861  -2.723   2.098  0.00  0.00    +0.093 C 
BRANCH   5   6
ATOM      6  C   UNL     1       0.976  -2.152   0.989  0.00  0.00    -0.020 C 
BRANCH   6   7
ATOM      7  C   UNL     1       1.495  -2.603  -0.352  0.00  0.00    -0.052 A 
ATOM      8  C   UNL     1       0.897  -3.658  -1.016  0.00  0.00    +0.009 A 
ATOM      9  C   UNL     1       1.389  -4.039  -2.220  0.00  0.00    +0.045 A 
ATOM     10  S   UNL     1       2.738  -2.892  -2.449  0.00  0.00    -0.105 S 
ATOM     11  C   UNL     1       2.551  -1.978  -0.926  0.00  0.00    +0.047 A 
ENDBRANCH   6   7
BRANCH   6  12
ATOM     12  N   UNL     1       0.997  -0.684   1.053  0.00  0.00    +0.385 N 
ATOM     13  H   UNL     1       1.952  -0.360   1.039  0.00  0.00    -0.081 HD
BRANCH  12  15
ATOM     14  C   UNL     1       0.417   1.390  -0.113  0.00  0.00    -0.017 C 
ATOM     15  C   UNL     1       0.276  -0.133  -0.102  0.00  0.00    -0.081 C 
ENDBRANCH  12  15
BRANCH  12  16
ATOM     16  C   UNL     1       0.347  -0.239   2.293  0.00  0.00    -0.081 C 
ATOM     17  C   UNL     1      -1.067  -0.818   2.364  0.00  0.00    -0.017 C 
ENDBRANCH  12  16
ENDBRANCH   6  12
ENDBRANCH   5   6
ENDBRANCH   1   5
BRANCH   2  18
ATOM     18  C   UNL     1       1.280  -2.477   5.874  0.00  0.00    +0.161 C 
BRANCH  18  19
ATOM     19  N   UNL     1       1.941  -3.287   6.901  0.00  0.00    -0.288 N 
ATOM     20  C   UNL     1       3.261  -3.141   7.128  0.00  0.00    +0.298 C 
ATOM     21  O   UNL     1       3.905  -2.338   6.481  0.00  0.00    -0.253 OA
ATOM     22  N   UNL     1       3.869  -3.886   8.073  0.00  0.00    -0.313 N 
ATOM     23  H   UNL     1       1.427  -3.928   7.417  0.00  0.00    +0.151 HD
ATOM     24  H   UNL     1       3.355  -4.527   8.589  0.00  0.00    +0.146 HD
ATOM     25  H   UNL     1       4.819  -3.781   8.236  0.00  0.00    +0.146 HD
ENDBRANCH  18  19
BRANCH  18  26
ATOM     26  C   UNL     1       1.435  -0.994   6.216  0.00  0.00    +0.042 C 
BRANCH  26  27
ATOM     27  C   UNL     1       0.686  -0.689   7.515  0.00  0.00    +0.071 C 
BRANCH  27  28
ATOM     28  S   UNL     1       0.870   1.069   7.920  0.00  0.00    -0.164 S 
ATOM     29  C   UNL     1      -0.062   1.263   9.464  0.00  0.00    +0.084 C 
ENDBRANCH  27  28
ENDBRANCH  26  27
ENDBRANCH  18  26
ENDBRANCH   2  18
TORSDOF 11
