REMARK  Name = ZINC03432012
REMARK  7 active torsions:
REMARK  status: ('A' for Active; 'I' for Inactive)
REMARK    1  A    between atoms: C_1  and  C_2
REMARK    2  A    between atoms: C_2  and  C_4
REMARK    3  A    between atoms: C_2  and  N_46
REMARK    4  A    between atoms: N_6  and  C_7
REMARK    5  A    between atoms: C_14  and  C_15
REMARK    6  A    between atoms: C_14  and  C_21
REMARK    7  A    between atoms: C_14  and  N_46
REMARK                            x       y       z     vdW  Elec       q    Type
REMARK                         _______ _______ _______ _____ _____    ______ ____
ROOT
ATOM      1  N   UNL     1      -2.183  -4.270  -0.317  0.00  0.00    +0.394 N 
ATOM      2  H   UNL     1      -1.354  -4.491   0.248  0.00  0.00    -0.083 HD
ATOM      3  H   UNL     1      -1.998  -4.503  -1.300  0.00  0.00    -0.083 HD
ENDROOT
BRANCH   1   5
ATOM      4  C   UNL     1      -3.243  -2.367  -1.448  0.00  0.00    -0.004 C 
ATOM      5  C   UNL     1      -2.478  -2.829  -0.206  0.00  0.00    +0.014 C 
BRANCH   5   6
ATOM      6  C   UNL     1      -1.183  -2.066  -0.100  0.00  0.00    +0.203 C 
ATOM      7  O   UNL     1      -0.126  -2.660  -0.113  0.00  0.00    -0.277 OA
ATOM      8  N   UNL     1      -1.200  -0.722   0.009  0.00  0.00    -0.285 N 
ATOM      9  H   UNL     1      -2.045  -0.254   0.101  0.00  0.00    +0.155 HD
BRANCH   8  10
ATOM     10  C   UNL     1       0.001  -0.003  -0.009  0.00  0.00    +0.069 A 
ATOM     11  C   UNL     1       1.122  -0.537  -0.630  0.00  0.00    +0.026 A 
ATOM     12  C   UNL     1       2.306   0.175  -0.647  0.00  0.00    +0.002 A 
ATOM     13  C   UNL     1       2.376   1.419  -0.047  0.00  0.00    +0.003 A 
ATOM     14  C   UNL     1       1.263   1.955   0.573  0.00  0.00    +0.040 A 
ATOM     15  C   UNL     1       0.074   1.248   0.594  0.00  0.00    +0.144 A 
ATOM     16  F   UNL     1      -1.016   1.774   1.194  0.00  0.00    -0.204 F 
ENDBRANCH   8  10
ENDBRANCH   5   6
ENDBRANCH   1   5
BRANCH   1  17
ATOM     17  C   UNL     1      -3.327  -5.066   0.165  0.00  0.00    -0.009 C 
BRANCH  17  18
ATOM     18  C   UNL     1      -4.321  -5.247  -0.953  0.00  0.00    -0.057 A 
ATOM     19  C   UNL     1      -3.878  -5.476  -2.242  0.00  0.00    +0.002 A 
ATOM     20  C   UNL     1      -4.790  -5.646  -3.267  0.00  0.00    +0.000 A 
ATOM     21  C   UNL     1      -6.145  -5.577  -3.004  0.00  0.00    +0.000 A 
ATOM     22  C   UNL     1      -6.588  -5.342  -1.716  0.00  0.00    +0.000 A 
ATOM     23  C   UNL     1      -5.676  -5.177  -0.691  0.00  0.00    +0.002 A 
ENDBRANCH  17  18
BRANCH  17  24
ATOM     24  C   UNL     1      -2.833  -6.415   0.621  0.00  0.00    -0.057 A 
ATOM     25  C   UNL     1      -1.857  -7.075  -0.102  0.00  0.00    +0.002 A 
ATOM     26  C   UNL     1      -1.401  -8.310   0.319  0.00  0.00    +0.000 A 
ATOM     27  C   UNL     1      -1.929  -8.891   1.457  0.00  0.00    +0.000 A 
ATOM     28  C   UNL     1      -2.909  -8.234   2.177  0.00  0.00    +0.000 A 
ATOM     29  C   UNL     1      -3.362  -6.996   1.759  0.00  0.00    +0.002 A 
ENDBRANCH  17  24
ENDBRANCH   1  17
TORSDOF 6
