REMARK  Name = ZINC39774392
REMARK  4 active torsions:
REMARK  status: ('A' for Active; 'I' for Inactive)
REMARK    1  A    between atoms: C_4  and  N_7
REMARK    2  A    between atoms: N_14  and  N_15
REMARK    3  A    between atoms: C_16  and  C_17
REMARK    4  A    between atoms: N_26  and  C_27
REMARK                            x       y       z     vdW  Elec       q    Type
REMARK                         _______ _______ _______ _____ _____    ______ ____
ROOT
ATOM      1  N   UNL     1       3.588  -0.653   0.265  0.00  0.00    -0.283 N 
ATOM      2  C   UNL     1       3.626  -2.030   0.366  0.00  0.00    +0.225 A 
ATOM      3  N   UNL     1       4.790  -2.670   0.305  0.00  0.00    -0.181 NA
ATOM      4  C   UNL     1       4.826  -3.995   0.402  0.00  0.00    +0.225 A 
ATOM      5  N   UNL     1       3.699  -4.681   0.562  0.00  0.00    -0.179 NA
ATOM      6  C   UNL     1       2.535  -4.042   0.624  0.00  0.00    +0.241 A 
ATOM      7  N   UNL     1       2.499  -2.716   0.531  0.00  0.00    -0.179 NA
ATOM      8  N   UNL     1       1.361  -4.756   0.789  0.00  0.00    -0.205 N 
ATOM      9  N   UNL     1       6.036  -4.659   0.338  0.00  0.00    -0.283 N 
ATOM     10  H   UNL     1       4.399  -0.159   0.070  0.00  0.00    +0.155 HD
ATOM     11  H   UNL     1       1.388  -5.723   0.861  0.00  0.00    +0.177 HD
ATOM     12  H   UNL     1       6.864  -4.156   0.298  0.00  0.00    +0.155 HD
ENDROOT
BRANCH   1  16
ATOM     13  C   UNL     1      -0.010   1.376   0.798  0.00  0.00    +0.000 A 
ATOM     14  C   UNL     1       0.240   0.217   1.509  0.00  0.00    +0.002 A 
ATOM     15  C   UNL     1       1.432  -0.459   1.334  0.00  0.00    +0.023 A 
ATOM     16  C   UNL     1       2.380   0.028   0.444  0.00  0.00    +0.034 A 
ATOM     17  C   UNL     1       2.126   1.193  -0.269  0.00  0.00    +0.023 A 
ATOM     18  C   UNL     1       0.932   1.863  -0.089  0.00  0.00    +0.002 A 
ENDBRANCH   1  16
BRANCH   9  19
ATOM     19  C   UNL     1       6.066  -6.057   0.330  0.00  0.00    +0.034 A 
ATOM     20  C   UNL     1       5.040  -6.772  -0.274  0.00  0.00    +0.023 A 
ATOM     21  C   UNL     1       5.073  -8.153  -0.280  0.00  0.00    +0.002 A 
ATOM     22  C   UNL     1       6.126  -8.824   0.315  0.00  0.00    +0.000 A 
ATOM     23  C   UNL     1       7.149  -8.115   0.917  0.00  0.00    +0.002 A 
ATOM     24  C   UNL     1       7.125  -6.734   0.922  0.00  0.00    +0.023 A 
ENDBRANCH   9  19
BRANCH   8  25
ATOM     25  N   UNL     1       0.135  -4.082   0.854  0.00  0.00    -0.188 NA
ATOM     26  C   UNL     1      -0.977  -4.759   1.012  0.00  0.00    +0.136 C 
BRANCH  26  27
ATOM     27  C   UNL     1      -2.203  -4.086   1.077  0.00  0.00    +0.000 C 
ATOM     28  C   UNL     1      -3.467  -4.650   1.245  0.00  0.00    +0.004 A 
ATOM     29  C   UNL     1      -3.904  -5.984   1.396  0.00  0.00    +0.010 A 
ATOM     30  C   UNL     1      -5.227  -6.246   1.546  0.00  0.00    +0.001 A 
ATOM     31  C   UNL     1      -6.179  -5.224   1.556  0.00  0.00    +0.002 A 
ATOM     32  C   UNL     1      -5.832  -3.922   1.416  0.00  0.00    +0.026 A 
ATOM     33  C   UNL     1      -4.466  -3.569   1.255  0.00  0.00    +0.043 A 
ATOM     34  N   UNL     1      -3.881  -2.398   1.104  0.00  0.00    -0.380 N 
ATOM     35  C   UNL     1      -2.433  -2.593   0.985  0.00  0.00    +0.150 C 
ATOM     36  H   UNL     1      -4.336  -1.542   1.079  0.00  0.00    +0.160 HD
ENDBRANCH  26  27
ENDBRANCH   8  25
TORSDOF 4
