REMARK  Name = ZINC53944317
REMARK  17 active torsions:
REMARK  status: ('A' for Active; 'I' for Inactive)
REMARK    1  A    between atoms: C_1  and  C_2
REMARK    2  A    between atoms: C_2  and  C_3
REMARK    3  A    between atoms: C_2  and  C_4
REMARK    4  A    between atoms: C_4  and  N_5
REMARK    5  A    between atoms: C_6  and  N_28
REMARK    6  A    between atoms: C_7  and  N_14
REMARK    7  A    between atoms: N_14  and  C_15
REMARK    8  A    between atoms: C_15  and  C_16
REMARK    9  A    between atoms: C_16  and  C_17
REMARK   10  A    between atoms: C_16  and  C_18
REMARK   11  A    between atoms: C_19  and  C_21
REMARK   12  A    between atoms: C_21  and  N_22
REMARK   13  A    between atoms: N_22  and  C_23
REMARK   14  A    between atoms: N_22  and  C_24
REMARK   15  A    between atoms: C_24  and  C_25
REMARK   16  A    between atoms: C_25  and  C_26
REMARK   17  A    between atoms: C_25  and  C_27
REMARK                            x       y       z     vdW  Elec       q    Type
REMARK                         _______ _______ _______ _____ _____    ______ ____
ROOT
ATOM      1  N   UNL     1       3.364   0.064   0.007  0.00  0.00    -0.280 N 
ATOM      2  C   UNL     1       3.906   1.247  -0.437  0.00  0.00    +0.127 A 
ATOM      3  C   UNL     1       3.684   1.643  -1.740  0.00  0.00    +0.140 A 
ATOM      4  C   UNL     1       2.907   0.820  -2.577  0.00  0.00    +0.277 A 
ATOM      5  O   UNL     1       2.696   1.145  -3.733  0.00  0.00    -0.266 OA
ATOM      6  N   UNL     1       2.399  -0.330  -2.092  0.00  0.00    -0.273 N 
ATOM      7  H   UNL     1       1.863  -0.898  -2.668  0.00  0.00    +0.173 HD
ATOM      8  C   UNL     1       2.630  -0.702  -0.821  0.00  0.00    +0.331 A 
ATOM      9  O   UNL     1       2.163  -1.747  -0.410  0.00  0.00    -0.246 OA
ENDROOT
BRANCH   3  10
ATOM     10  N   UNL     1       4.226   2.851  -2.226  0.00  0.00    -0.266 N 
ATOM     11  C   UNL     1       3.408   3.831  -2.662  0.00  0.00    +0.203 C 
ATOM     12  O   UNL     1       2.211   3.641  -2.720  0.00  0.00    -0.277 OA
BRANCH  10  13
ATOM     13  C   UNL     1       5.679   3.042  -2.256  0.00  0.00    +0.117 C 
BRANCH  13  14
ATOM     14  C   UNL     1       6.211   2.683  -3.645  0.00  0.00    +0.001 C 
ATOM     15  C   UNL     1       7.699   3.029  -3.726  0.00  0.00    +0.009 C 
ATOM     16  C   UNL     1       6.021   1.185  -3.892  0.00  0.00    +0.009 C 
ENDBRANCH  13  14
ENDBRANCH  10  13
BRANCH  11  17
ATOM     17  C   UNL     1       3.980   5.163  -3.076  0.00  0.00    +0.019 C 
BRANCH  17  18
ATOM     18  N   UNL     1       2.892   6.050  -3.507  0.00  0.00    +0.384 N 
ATOM     19  C   UNL     1       2.264   5.503  -4.718  0.00  0.00    -0.096 C 
ATOM     20  H   UNL     1       2.203   6.119  -2.773  0.00  0.00    -0.082 HD
BRANCH  18  21
ATOM     21  C   UNL     1       3.434   7.385  -3.797  0.00  0.00    -0.076 C 
BRANCH  21  22
ATOM     22  C   UNL     1       2.286   8.341  -4.125  0.00  0.00    -0.034 C 
ATOM     23  C   UNL     1       1.403   8.523  -2.889  0.00  0.00    +0.005 C 
ATOM     24  C   UNL     1       2.857   9.697  -4.548  0.00  0.00    +0.005 C 
ENDBRANCH  21  22
ENDBRANCH  18  21
ENDBRANCH  17  18
ENDBRANCH  11  17
ENDBRANCH   3  10
BRANCH   2  25
ATOM     25  N   UNL     1       4.660   2.027   0.407  0.00  0.00    -0.343 N 
ATOM     26  H   UNL     1       4.750   1.783   1.341  0.00  0.00    +0.144 HD
ATOM     27  H   UNL     1       5.101   2.822   0.069  0.00  0.00    +0.144 HD
ENDBRANCH   2  25
BRANCH   1  28
ATOM     28  C   UNL     1       3.591  -0.368   1.388  0.00  0.00    +0.131 C 
BRANCH  28  30
ATOM     29  C   UNL     1       6.072  -0.346   1.098  0.00  0.00    +0.009 C 
ATOM     30  C   UNL     1       4.864  -1.214   1.455  0.00  0.00    +0.003 C 
ATOM     31  C   UNL     1       5.034  -1.768   2.871  0.00  0.00    +0.009 C 
ENDBRANCH  28  30
ENDBRANCH   1  28
TORSDOF 10
