REMARK  Name = ZINC67412406
REMARK  13 active torsions:
REMARK  status: ('A' for Active; 'I' for Inactive)
REMARK    1  A    between atoms: C_1  and  C_2
REMARK    2  A    between atoms: C_2  and  C_4
REMARK    3  A    between atoms: C_2  and  N_9
REMARK    4  A    between atoms: C_4  and  C_5
REMARK    5  A    between atoms: C_5  and  N_6
REMARK    6  A    between atoms: N_6  and  C_7
REMARK    7  A    between atoms: N_6  and  C_8
REMARK    8  A    between atoms: N_12  and  C_13
REMARK    9  A    between atoms: C_13  and  C_15
REMARK   10  A    between atoms: C_13  and  C_16
REMARK   11  A    between atoms: C_20  and  S_22
REMARK   12  A    between atoms: S_22  and  N_25
REMARK   13  A    between atoms: N_25  and  C_26
REMARK                            x       y       z     vdW  Elec       q    Type
REMARK                         _______ _______ _______ _____ _____    ______ ____
ROOT
ATOM      1  N   UNL     1       0.711  -0.489   1.189  0.00  0.00    -0.297 N 
ATOM      2  C   UNL     1       0.051  -0.633   2.355  0.00  0.00    +0.300 C 
ATOM      3  O   UNL     1      -1.132  -0.361   2.423  0.00  0.00    -0.253 OA
ATOM      4  N   UNL     1       0.703  -1.080   3.447  0.00  0.00    -0.293 N 
ATOM      5  H   UNL     1       1.654  -0.707   1.135  0.00  0.00    +0.151 HD
ATOM      6  H   UNL     1       1.647  -1.298   3.394  0.00  0.00    +0.151 HD
ENDROOT
BRANCH   1   8
ATOM      7  C   UNL     1      -0.019   1.526   0.010  0.00  0.00    +0.028 C 
ATOM      8  C   UNL     1       0.002  -0.004   0.002  0.00  0.00    +0.070 C 
BRANCH   8   9
ATOM      9  C   UNL     1       0.718  -0.497  -1.257  0.00  0.00    +0.003 C 
BRANCH   9  10
ATOM     10  C   UNL     1       0.630  -2.023  -1.329  0.00  0.00    -0.078 C 
BRANCH  10  11
ATOM     11  N   UNL     1       1.318  -2.497  -2.537  0.00  0.00    +0.376 N 
ATOM     12  C   UNL     1       2.752  -2.195  -2.435  0.00  0.00    -0.097 C 
ATOM     13  C   UNL     1       1.132  -3.948  -2.670  0.00  0.00    -0.097 C 
ATOM     14  H   UNL     1       0.933  -2.033  -3.347  0.00  0.00    -0.083 HD
ENDBRANCH  10  11
ENDBRANCH   9  10
ENDBRANCH   8   9
ENDBRANCH   1   8
BRANCH   4  15
ATOM     15  C   UNL     1      -0.014  -1.237   4.715  0.00  0.00    +0.102 C 
ATOM     16  C   UNL     1      -0.701  -2.603   4.747  0.00  0.00    +0.033 C 
BRANCH  15  17
ATOM     17  C   UNL     1       0.962  -1.138   5.859  0.00  0.00    -0.026 A 
ATOM     18  C   UNL     1       2.210  -1.724   5.756  0.00  0.00    +0.005 A 
ATOM     19  C   UNL     1       3.105  -1.634   6.805  0.00  0.00    +0.002 A 
ATOM     20  C   UNL     1       2.753  -0.958   7.958  0.00  0.00    +0.028 A 
ATOM     21  C   UNL     1       1.505  -0.371   8.062  0.00  0.00    +0.106 A 
ATOM     22  C   UNL     1       0.612  -0.458   7.010  0.00  0.00    +0.034 A 
BRANCH  21  23
ATOM     23  S   UNL     1       1.056   0.490   9.531  0.00  0.00    +0.058 S 
ATOM     24  O   UNL     1      -0.364   0.480   9.590  0.00  0.00    -0.153 OA
ATOM     25  O   UNL     1       1.865  -0.036  10.574  0.00  0.00    -0.153 OA
BRANCH  23  26
ATOM     26  N   UNL     1       1.510   2.070   9.332  0.00  0.00    -0.193 NA
ATOM     27  C   UNL     1       0.871   2.891   8.300  0.00  0.00    +0.127 C 
ATOM     28  H   UNL     1       2.200   2.451   9.898  0.00  0.00    +0.148 HD
ENDBRANCH  23  26
ENDBRANCH  21  23
ENDBRANCH  15  17
ENDBRANCH   4  15
TORSDOF 8
