REMARK  Name = ZINC49596492
REMARK  9 active torsions:
REMARK  status: ('A' for Active; 'I' for Inactive)
REMARK    1  A    between atoms: C_1  and  C_2
REMARK    2  A    between atoms: C_2  and  N_3
REMARK    3  A    between atoms: N_3  and  C_4
REMARK    4  A    between atoms: N_3  and  C_14
REMARK    5  A    between atoms: C_4  and  C_5
REMARK    6  A    between atoms: C_5  and  O_6
REMARK    7  A    between atoms: O_6  and  C_7
REMARK    8  A    between atoms: C_14  and  C_15
REMARK    9  A    between atoms: C_19  and  N_21
REMARK                            x       y       z     vdW  Elec       q    Type
REMARK                         _______ _______ _______ _____ _____    ______ ____
ROOT
ATOM      1  N   UNL     1       0.769  -0.557   1.132  0.00  0.00    +0.384 N 
ATOM      2  H   UNL     1       1.653  -0.074   1.074  0.00  0.00    -0.081 HD
ENDROOT
BRANCH   1   4
ATOM      3  C   UNL     1      -0.206   1.371  -0.022  0.00  0.00    -0.017 C 
ATOM      4  C   UNL     1      -0.084  -0.154   0.005  0.00  0.00    -0.082 C 
ENDBRANCH   1   4
BRANCH   1   5
ATOM      5  C   UNL     1       0.105  -0.212   2.396  0.00  0.00    -0.037 C 
BRANCH   5   6
ATOM      6  C   UNL     1       1.053  -0.495   3.563  0.00  0.00    +0.210 C 
BRANCH   6   7
ATOM      7  O   UNL     1       2.196   0.357   3.465  0.00  0.00    -0.494 OA
BRANCH   7   8
ATOM      8  C   UNL     1       3.185   0.169   4.378  0.00  0.00    +0.120 A 
ATOM      9  C   UNL     1       3.061  -0.819   5.344  0.00  0.00    +0.047 A 
ATOM     10  C   UNL     1       4.067  -1.008   6.271  0.00  0.00    +0.019 A 
ATOM     11  C   UNL     1       5.200  -0.213   6.236  0.00  0.00    +0.018 A 
ATOM     12  C   UNL     1       5.326   0.772   5.273  0.00  0.00    +0.019 A 
ATOM     13  C   UNL     1       4.324   0.961   4.341  0.00  0.00    +0.047 A 
ATOM     14 BR   UNL     1       6.576  -0.475   7.506  0.00  0.00    -0.050 Br
ENDBRANCH   7   8
ENDBRANCH   6   7
ENDBRANCH   5   6
ENDBRANCH   1   5
BRANCH   1  15
ATOM     15  C   UNL     1       0.998  -2.007   1.079  0.00  0.00    -0.043 C 
BRANCH  15  16
ATOM     16  C   UNL     1       1.788  -2.345  -0.160  0.00  0.00    -0.062 A 
ATOM     17  C   UNL     1       1.129  -2.634  -1.341  0.00  0.00    +0.002 A 
ATOM     18  C   UNL     1       1.849  -2.945  -2.480  0.00  0.00    +0.002 A 
ATOM     19  C   UNL     1       3.230  -2.969  -2.440  0.00  0.00    +0.023 A 
ATOM     20  C   UNL     1       3.894  -2.679  -1.256  0.00  0.00    +0.025 A 
ATOM     21  C   UNL     1       3.168  -2.361  -0.115  0.00  0.00    +0.024 A 
BRANCH  20  22
ATOM     22  N   UNL     1       5.290  -2.702  -1.212  0.00  0.00    -0.358 N 
ATOM     23  H   UNL     1       5.797  -2.920  -2.010  0.00  0.00    +0.142 HD
ATOM     24  H   UNL     1       5.753  -2.499  -0.384  0.00  0.00    +0.142 HD
ENDBRANCH  20  22
ENDBRANCH  15  16
ENDBRANCH   1  15
TORSDOF 8
