REMARK  Name = ZINC58584198
REMARK  3 active torsions:
REMARK  status: ('A' for Active; 'I' for Inactive)
REMARK    1  A    between atoms: C_1  and  C_2
REMARK    2  A    between atoms: N_7  and  C_9
REMARK    3  A    between atoms: C_9  and  N_10
REMARK                            x       y       z     vdW  Elec       q    Type
REMARK                         _______ _______ _______ _____ _____    ______ ____
ROOT
ATOM      1  N   UNL     1       0.869  -3.864   2.698  0.00  0.00    -0.228 N 
ATOM      2  C   UNL     1      -0.252  -4.126   3.397  0.00  0.00    +0.227 C 
ATOM      3  O   UNL     1      -1.089  -3.319   3.741  0.00  0.00    -0.275 OA
ATOM      4  C   UNL     1      -0.272  -5.638   3.678  0.00  0.00    +0.091 C 
ATOM      5  C   UNL     1       0.499  -5.803   4.990  0.00  0.00    +0.040 C 
ATOM      6  C   UNL     1       1.294  -7.060   5.053  0.00  0.00    -0.030 C 
ATOM      7  C   UNL     1       1.617  -7.782   4.032  0.00  0.00    -0.030 C 
ATOM      8  C   UNL     1       1.186  -7.468   2.635  0.00  0.00    +0.040 C 
ATOM      9  C   UNL     1       0.553  -6.117   2.472  0.00  0.00    +0.091 C 
ATOM     10  C   UNL     1       1.490  -4.969   2.228  0.00  0.00    +0.227 C 
ATOM     11  O   UNL     1       2.587  -5.024   1.714  0.00  0.00    -0.275 OA
ENDROOT
BRANCH   1  12
ATOM     12  C   UNL     1       1.366  -2.507   2.463  0.00  0.00    +0.203 C 
BRANCH  12  18
ATOM     13  C   UNL     1      -0.019   1.526   0.010  0.00  0.00    +0.009 C 
ATOM     14  C   UNL     1       0.002  -0.004   0.002  0.00  0.00    +0.000 C 
ATOM     15  C   UNL     1       0.720  -0.499  -1.256  0.00  0.00    +0.006 C 
ATOM     16  C   UNL     1       0.790  -2.028  -1.227  0.00  0.00    +0.016 C 
ATOM     17  C   UNL     1       1.509  -2.477   0.046  0.00  0.00    +0.086 C 
ATOM     18  N   UNL     1       0.783  -1.980   1.222  0.00  0.00    -0.286 NA
ATOM     19  C   UNL     1       0.744  -0.512   1.241  0.00  0.00    +0.089 C 
ENDBRANCH  12  18
ENDBRANCH   1  12
TORSDOF 2
