REMARK  Name = ZINC01168663
REMARK  6 active torsions:
REMARK  status: ('A' for Active; 'I' for Inactive)
REMARK    1  A    between atoms: C_1  and  C_2
REMARK    2  A    between atoms: N_7  and  C_8
REMARK    3  A    between atoms: C_8  and  C_10
REMARK    4  A    between atoms: C_8  and  C_17
REMARK    5  A    between atoms: C_23  and  C_28
REMARK    6  A    between atoms: C_26  and  O_27
REMARK                            x       y       z     vdW  Elec       q    Type
REMARK                         _______ _______ _______ _____ _____    ______ ____
ROOT
ATOM      1  C   UNL     1       4.796   4.115  -0.022  0.00  0.00    +0.136 C 
ENDROOT
BRANCH   1   2
ATOM      2  C   UNL     1       3.501   3.349  -0.102  0.00  0.00    +0.021 A 
ATOM      3  C   UNL     1       3.521   1.959  -0.024  0.00  0.00    +0.010 A 
ATOM      4  C   UNL     1       2.368   1.238  -0.092  0.00  0.00    +0.010 A 
ATOM      5  C   UNL     1       1.139   1.901  -0.243  0.00  0.00    +0.004 A 
ATOM      6  C   UNL     1      -0.073   1.189  -0.318  0.00  0.00    +0.012 A 
ATOM      7  C   UNL     1      -1.229   1.900  -0.471  0.00  0.00    +0.023 A 
ATOM      8  C   UNL     1      -1.186   3.291  -0.539  0.00  0.00    +0.039 A 
ATOM      9  N   UNL     1      -0.055   3.950  -0.468  0.00  0.00    -0.248 NA
ATOM     10  C   UNL     1       1.111   3.314  -0.324  0.00  0.00    +0.113 A 
ATOM     11  C   UNL     1       2.325   4.029  -0.249  0.00  0.00    +0.148 A 
ATOM     12  C   UNL     1      -2.473   4.058  -0.703  0.00  0.00    +0.065 C 
BRANCH  11  13
ATOM     13  O   UNL     1       2.326   5.385  -0.323  0.00  0.00    -0.504 OA
ATOM     14  H   UNL     1       2.408   5.730  -1.222  0.00  0.00    +0.292 HD
ENDBRANCH  11  13
ENDBRANCH   1   2
BRANCH   1  21
ATOM     15  C   UNL     1      10.253   2.695  -2.397  0.00  0.00    +0.063 C 
ATOM     16  C   UNL     1       9.159   3.610  -1.910  0.00  0.00    +0.014 A 
ATOM     17  C   UNL     1       9.341   4.978  -1.964  0.00  0.00    +0.021 A 
ATOM     18  C   UNL     1       8.330   5.816  -1.514  0.00  0.00    +0.005 A 
ATOM     19  C   UNL     1       7.168   5.246  -1.024  0.00  0.00    +0.041 A 
ATOM     20  C   UNL     1       7.053   3.860  -0.999  0.00  0.00    +0.097 A 
ATOM     21  N   UNL     1       5.892   3.274  -0.509  0.00  0.00    -0.320 N 
ATOM     22  H   UNL     1       5.807   2.308  -0.490  0.00  0.00    +0.148 HD
ATOM     23  N   UNL     1       8.034   3.015  -1.431  0.00  0.00    -0.347 N 
ATOM     24  H   UNL     1       7.930   1.994  -1.395  0.00  0.00    +0.167 HD
ENDBRANCH   1  21
BRANCH   1  25
ATOM     25  C   UNL     1       5.061   4.506   1.409  0.00  0.00    -0.020 A 
ATOM     26  C   UNL     1       5.588   3.581   2.292  0.00  0.00    +0.006 A 
ATOM     27  C   UNL     1       5.836   3.940   3.604  0.00  0.00    +0.003 A 
ATOM     28  C   UNL     1       5.548   5.221   4.037  0.00  0.00    +0.038 A 
ATOM     29  C   UNL     1       5.016   6.146   3.155  0.00  0.00    +0.124 A 
ATOM     30  C   UNL     1       4.773   5.787   1.840  0.00  0.00    +0.044 A 
ATOM     31  F   UNL     1       4.734   7.398   3.578  0.00  0.00    -0.205 F 
ENDBRANCH   1  25
TORSDOF 4
