REMARK  Name = ZINC02568224
REMARK  2 active torsions:
REMARK  status: ('A' for Active; 'I' for Inactive)
REMARK    1  A    between atoms: C_6  and  N_7
REMARK    2  A    between atoms: N_10  and  C_11
REMARK                            x       y       z     vdW  Elec       q    Type
REMARK                         _______ _______ _______ _____ _____    ______ ____
ROOT
ATOM      1  N   UNL     1      -1.199  -0.722   0.003  0.00  0.00    -0.328 N 
ATOM      2  C   UNL     1      -1.176  -2.094   0.106  0.00  0.00    +0.173 C 
ATOM      3  N   UNL     1      -0.036  -2.722   0.190  0.00  0.00    -0.371 N 
ATOM      4  N   UNL     1      -2.354  -2.803   0.121  0.00  0.00    -0.354 N 
ATOM      5  H   UNL     1      -0.370  -0.229  -0.099  0.00  0.00    +0.169 HD
ATOM      6  H   UNL     1      -0.016  -3.692   0.185  0.00  0.00    +0.159 HD
ATOM      7  H   UNL     1      -3.202  -2.335   0.059  0.00  0.00    +0.163 HD
ATOM      8  H   UNL     1       0.790  -2.220   0.257  0.00  0.00    +0.159 HD
ENDROOT
BRANCH   4   9
ATOM      9  C   UNL     1      -2.329  -4.263   0.231  0.00  0.00    +0.088 C 
ATOM     10  C   UNL     1      -2.149  -4.876  -1.159  0.00  0.00    +0.012 C 
ATOM     11  C   UNL     1      -2.123  -6.402  -1.044  0.00  0.00    +0.009 C 
ATOM     12  C   UNL     1      -3.441  -6.890  -0.439  0.00  0.00    -0.010 C 
ATOM     13  C   UNL     1      -4.604  -6.466  -1.338  0.00  0.00    +0.007 C 
ATOM     14  C   UNL     1      -4.629  -4.940  -1.452  0.00  0.00    -0.010 C 
ATOM     15  C   UNL     1      -3.312  -4.452  -2.058  0.00  0.00    +0.009 C 
ATOM     16  C   UNL     1      -4.810  -4.327  -0.062  0.00  0.00    +0.009 C 
ATOM     17  C   UNL     1      -3.647  -4.752   0.837  0.00  0.00    +0.012 C 
ATOM     18  C   UNL     1      -3.621  -6.277   0.952  0.00  0.00    +0.009 C 
ENDBRANCH   4   9
BRANCH   1  24
ATOM     19  C   UNL     1      -3.406  -0.431   0.940  0.00  0.00    +0.027 A 
ATOM     20  C   UNL     1      -4.609   0.247   0.980  0.00  0.00    +0.016 A 
ATOM     21  C   UNL     1      -4.830   1.316   0.131  0.00  0.00    +0.014 A 
ATOM     22  C   UNL     1      -3.849   1.710  -0.760  0.00  0.00    +0.016 A 
ATOM     23  C   UNL     1      -2.644   1.036  -0.805  0.00  0.00    +0.027 A 
ATOM     24  C   UNL     1      -2.418  -0.038   0.046  0.00  0.00    +0.042 A 
ATOM     25  I   UNL     1      -6.657   2.340   0.195  0.00  0.00    -0.044 I 
ENDBRANCH   1  24
TORSDOF 2
