REMARK  Name = ZINC24215045
REMARK  8 active torsions:
REMARK  status: ('A' for Active; 'I' for Inactive)
REMARK    1  A    between atoms: C_1  and  C_2
REMARK    2  A    between atoms: C_3  and  C_14
REMARK    3  A    between atoms: C_4  and  C_13
REMARK    4  A    between atoms: N_5  and  C_7
REMARK    5  A    between atoms: N_21  and  C_22
REMARK    6  A    between atoms: C_22  and  C_23
REMARK    7  A    between atoms: N_28  and  C_29
REMARK    8  A    between atoms: C_29  and  C_30
REMARK                            x       y       z     vdW  Elec       q    Type
REMARK                         _______ _______ _______ _____ _____    ______ ____
ROOT
ATOM      1  C   UNL     1       3.966   0.524   0.001  0.00  0.00    +0.054 C 
ATOM      2  C   UNL     1       4.672   0.015   1.226  0.00  0.00    +0.204 C 
ATOM      3  O   UNL     1       4.311   0.416   2.313  0.00  0.00    -0.277 OA
ATOM      4  N   UNL     1       5.681  -0.858   1.171  0.00  0.00    -0.318 N 
ATOM      5  C   UNL     1       6.167  -1.429  -0.082  0.00  0.00    +0.085 C 
ATOM      6  C   UNL     1       5.699  -0.578  -1.263  0.00  0.00    -0.058 C 
ATOM      7  N   UNL     1       4.249  -0.356  -1.141  0.00  0.00    +0.397 N 
ATOM      8  H   UNL     1       6.150  -1.143   2.124  0.00  0.00    +0.149 HD
ATOM      9  H   UNL     1       3.760  -1.325  -0.962  0.00  0.00    -0.079 HD
ENDROOT
BRANCH   1  12
ATOM     10  C   UNL     1       2.040  -1.991   0.067  0.00  0.00    +0.068 C 
ATOM     11  C   UNL     1       1.629  -0.557   0.284  0.00  0.00    +0.063 A 
ATOM     12  C   UNL     1       2.481   0.553   0.255  0.00  0.00    -0.009 A 
ATOM     13  C   UNL     1       1.735   1.656   0.495  0.00  0.00    +0.044 A 
ATOM     14  N   UNL     1       0.455   1.257   0.670  0.00  0.00    -0.237 N 
ATOM     15  N   UNL     1       0.416  -0.136   0.532  0.00  0.00    -0.171 NA
ATOM     16  C   UNL     1       2.241   3.074   0.556  0.00  0.00    +0.066 C 
BRANCH  14  17
ATOM     17  C   UNL     1      -0.640   2.091   0.936  0.00  0.00    +0.066 A 
ATOM     18  C   UNL     1      -0.479   3.217   1.732  0.00  0.00    +0.028 A 
ATOM     19  C   UNL     1      -1.559   4.040   1.988  0.00  0.00    +0.002 A 
ATOM     20  C   UNL     1      -2.801   3.738   1.461  0.00  0.00    +0.000 A 
ATOM     21  C   UNL     1      -2.965   2.614   0.672  0.00  0.00    +0.002 A 
ATOM     22  C   UNL     1      -1.888   1.790   0.408  0.00  0.00    +0.028 A 
ENDBRANCH  14  17
ENDBRANCH   1  12
BRANCH   7  23
ATOM     23  C   UNL     1       3.695   0.199  -2.383  0.00  0.00    +0.021 C 
BRANCH  23  24
ATOM     24  C   UNL     1       4.408   1.482  -2.722  0.00  0.00    +0.204 C 
ATOM     25  O   UNL     1       5.214   1.950  -1.948  0.00  0.00    -0.277 OA
ATOM     26  N   UNL     1       4.149   2.109  -3.887  0.00  0.00    -0.242 N 
ATOM     27  C   UNL     1       4.787   3.257  -4.191  0.00  0.00    +0.306 C 
ATOM     28  O   UNL     1       5.595   3.726  -3.414  0.00  0.00    -0.252 OA
ATOM     29  N   UNL     1       4.528   3.884  -5.355  0.00  0.00    -0.292 N 
ATOM     30  H   UNL     1       3.417   1.684  -4.590  0.00  0.00    +0.159 HD
ATOM     31  H   UNL     1       3.796   3.459  -6.058  0.00  0.00    +0.151 HD
BRANCH  29  32
ATOM     32  C   UNL     1       5.221   5.131  -5.685  0.00  0.00    +0.180 C 
BRANCH  32  33
ATOM     33  C   UNL     1       4.756   5.624  -7.032  0.00  0.00    +0.122 A 
ATOM     34  C   UNL     1       3.717   6.451  -7.251  0.00  0.00    +0.046 A 
ATOM     35  C   UNL     1       3.639   6.648  -8.648  0.00  0.00    +0.041 A 
ATOM     36  C   UNL     1       4.634   5.930  -9.200  0.00  0.00    +0.195 A 
ATOM     37  O   UNL     1       5.310   5.316  -8.215  0.00  0.00    -0.466 OA
ENDBRANCH  32  33
ENDBRANCH  29  32
ENDBRANCH  23  24
ENDBRANCH   7  23
TORSDOF 6
