REMARK  Name = ZINC04321409
REMARK  7 active torsions:
REMARK  status: ('A' for Active; 'I' for Inactive)
REMARK    1  A    between atoms: C_1  and  C_2
REMARK    2  A    between atoms: C_5  and  N_9
REMARK    3  A    between atoms: C_6  and  C_8
REMARK    4  A    between atoms: C_10  and  C_12
REMARK    5  A    between atoms: C_12  and  S_13
REMARK    6  A    between atoms: S_13  and  C_14
REMARK    7  A    between atoms: C_18  and  N_20
REMARK                            x       y       z     vdW  Elec       q    Type
REMARK                         _______ _______ _______ _____ _____    ______ ____
ROOT
ATOM      1  C   UNL     1       2.806   4.171  -0.018  0.00  0.00    +0.173 C 
ENDROOT
BRANCH   1   3
ATOM      2  N   UNL     1       4.231   6.192  -0.006  0.00  0.00    -0.285 N 
ATOM      3  C   UNL     1       2.990   5.666  -0.000  0.00  0.00    +0.227 C 
ATOM      4  O   UNL     1       2.022   6.396   0.019  0.00  0.00    -0.275 OA
ATOM      5  H   UNL     1       5.005   5.611   0.060  0.00  0.00    +0.155 HD
BRANCH   2  10
ATOM      6  C   UNL     1       4.929  11.808  -0.412  0.00  0.00    +0.044 C 
ATOM      7  C   UNL     1       4.744  10.316  -0.304  0.00  0.00    -0.050 A 
ATOM      8  C   UNL     1       3.594   9.726  -0.796  0.00  0.00    +0.005 A 
ATOM      9  C   UNL     1       3.421   8.360  -0.699  0.00  0.00    +0.024 A 
ATOM     10  C   UNL     1       4.403   7.577  -0.106  0.00  0.00    +0.036 A 
ATOM     11  C   UNL     1       5.554   8.173   0.392  0.00  0.00    -0.029 A 
ATOM     12  C   UNL     1       5.724   9.540   0.287  0.00  0.00    +0.008 A 
ATOM     13  C   UNL     1       6.620   7.329   1.042  0.00  0.00    +0.045 C 
ENDBRANCH   2  10
ENDBRANCH   1   3
BRANCH   1  14
ATOM     14  S   UNL     1       1.038   3.780  -0.005  0.00  0.00    -0.077 S 
BRANCH  14  15
ATOM     15  C   UNL     1       1.113   2.020  -0.029  0.00  0.00    +0.192 A 
ATOM     16  N   UNL     1      -0.015   1.326  -0.026  0.00  0.00    -0.207 NA
ATOM     17  C   UNL     1       0.003  -0.005  -0.044  0.00  0.00    +0.122 A 
ATOM     18  C   UNL     1       1.228  -0.665  -0.066  0.00  0.00    +0.086 A 
ATOM     19  C   UNL     1       2.392   0.098  -0.068  0.00  0.00    +0.122 A 
ATOM     20  N   UNL     1       2.297   1.425  -0.049  0.00  0.00    -0.207 NA
ATOM     21  N   UNL     1      -1.182  -0.723  -0.041  0.00  0.00    -0.343 N 
ATOM     22  H   UNL     1      -2.033  -0.256  -0.026  0.00  0.00    +0.144 HD
ATOM     23  H   UNL     1      -1.162  -1.693  -0.054  0.00  0.00    +0.144 HD
BRANCH  19  24
ATOM     24  N   UNL     1       3.635  -0.517  -0.088  0.00  0.00    -0.343 N 
ATOM     25  H   UNL     1       3.696  -1.485  -0.102  0.00  0.00    +0.144 HD
ATOM     26  H   UNL     1       4.442   0.021  -0.089  0.00  0.00    +0.144 HD
ENDBRANCH  19  24
ENDBRANCH  14  15
ENDBRANCH   1  14
TORSDOF 5
