REMARK  Name = ZINC44179982
REMARK  10 active torsions:
REMARK  status: ('A' for Active; 'I' for Inactive)
REMARK    1  A    between atoms: C_1  and  N_2
REMARK    2  A    between atoms: C_3  and  C_5
REMARK    3  A    between atoms: C_5  and  C_6
REMARK    4  A    between atoms: C_11  and  N_12
REMARK    5  A    between atoms: N_15  and  C_16
REMARK    6  A    between atoms: C_16  and  C_17
REMARK    7  A    between atoms: C_17  and  C_19
REMARK    8  A    between atoms: C_17  and  N_24
REMARK    9  A    between atoms: N_24  and  C_25
REMARK   10  A    between atoms: N_24  and  C_26
REMARK                            x       y       z     vdW  Elec       q    Type
REMARK                         _______ _______ _______ _____ _____    ______ ____
ROOT
ATOM      1  N   UNL     1      -2.787  -2.333  -2.419  0.00  0.00    -0.269 N 
ATOM      2  C   UNL     1      -3.376  -2.649  -3.590  0.00  0.00    +0.304 C 
ATOM      3  O   UNL     1      -4.486  -3.146  -3.597  0.00  0.00    -0.253 OA
ATOM      4  N   UNL     1      -2.736  -2.414  -4.752  0.00  0.00    -0.300 N 
ATOM      5  H   UNL     1      -1.935  -1.870  -2.415  0.00  0.00    +0.156 HD
ATOM      6  H   UNL     1      -1.850  -2.017  -4.746  0.00  0.00    +0.150 HD
ENDROOT
BRANCH   1  12
ATOM      7  C   UNL     1      -2.635  -3.026  -0.111  0.00  0.00    -0.017 A 
ATOM      8  C   UNL     1      -3.248  -3.355   1.083  0.00  0.00    +0.006 A 
ATOM      9  C   UNL     1      -4.627  -3.338   1.181  0.00  0.00    +0.000 A 
ATOM     10  C   UNL     1      -5.397  -2.992   0.086  0.00  0.00    +0.002 A 
ATOM     11  C   UNL     1      -4.790  -2.662  -1.110  0.00  0.00    +0.023 A 
ATOM     12  C   UNL     1      -3.405  -2.672  -1.210  0.00  0.00    +0.038 A 
BRANCH   7  13
ATOM     13  C   UNL     1      -1.132  -3.045  -0.217  0.00  0.00    +0.132 C 
BRANCH  13  16
ATOM     14  C   UNL     1       1.259  -0.090   0.233  0.00  0.00    +0.128 C 
ATOM     15  N   UNL     1       0.735  -1.436  -0.011  0.00  0.00    -0.318 N 
ATOM     16  C   UNL     1      -0.593  -1.661   0.033  0.00  0.00    +0.217 C 
ATOM     17  O   UNL     1      -1.355  -0.748   0.274  0.00  0.00    -0.275 OA
ATOM     18  H   UNL     1       1.344  -2.166  -0.203  0.00  0.00    +0.148 HD
ENDBRANCH  13  16
ENDBRANCH   7  13
ENDBRANCH   1  12
BRANCH   4  19
ATOM     19  C   UNL     1      -3.376  -2.758  -6.024  0.00  0.00    +0.098 C 
BRANCH  19  20
ATOM     20  C   UNL     1      -2.395  -2.512  -7.171  0.00  0.00    +0.016 C 
BRANCH  20  21
ATOM     21  C   UNL     1      -2.093  -1.039  -7.268  0.00  0.00    +0.093 A 
ATOM     22  C   UNL     1      -2.648  -0.177  -8.139  0.00  0.00    +0.043 A 
ATOM     23  C   UNL     1      -2.081   1.091  -7.880  0.00  0.00    +0.041 A 
ATOM     24  C   UNL     1      -1.213   0.929  -6.865  0.00  0.00    +0.195 A 
ATOM     25  O   UNL     1      -1.229  -0.361  -6.495  0.00  0.00    -0.469 OA
ENDBRANCH  20  21
BRANCH  20  26
ATOM     26  N   UNL     1      -1.150  -3.251  -6.919  0.00  0.00    +0.384 N 
ATOM     27  C   UNL     1      -1.428  -4.693  -6.924  0.00  0.00    -0.096 C 
ATOM     28  C   UNL     1      -0.172  -2.937  -7.968  0.00  0.00    -0.096 C 
ATOM     29  H   UNL     1      -0.777  -2.983  -6.020  0.00  0.00    -0.082 HD
ENDBRANCH  20  26
ENDBRANCH  19  20
ENDBRANCH   4  19
TORSDOF 7
