REMARK  Name = ZINC08273030
REMARK  3 active torsions:
REMARK  status: ('A' for Active; 'I' for Inactive)
REMARK    1  A    between atoms: C_1  and  C_2
REMARK    2  A    between atoms: N_10  and  C_14
REMARK    3  A    between atoms: C_14  and  C_15
REMARK                            x       y       z     vdW  Elec       q    Type
REMARK                         _______ _______ _______ _____ _____    ______ ____
ROOT
ATOM      1  C   UNL     1      -2.883   1.551   2.532  0.00  0.00    +0.007 C 
ATOM      2  C   UNL     1      -2.170   1.067   1.268  0.00  0.00    -0.014 C 
ATOM      3  C   UNL     1      -0.729   1.579   1.268  0.00  0.00    +0.006 C 
ATOM      4  C   UNL     1      -0.013   1.086   0.008  0.00  0.00    +0.035 C 
ATOM      5  C   UNL     1      -0.750   1.591  -1.228  0.00  0.00    +0.113 C 
ATOM      6  C   UNL     1      -2.195   1.105  -1.230  0.00  0.00    +0.035 C 
ATOM      7  C   UNL     1      -2.903   1.598   0.034  0.00  0.00    +0.006 C 
ATOM      8  C   UNL     1      -0.040   1.144  -2.485  0.00  0.00    +0.247 C 
ATOM      9  O   UNL     1       0.158   0.005  -2.850  0.00  0.00    -0.273 OA
ATOM     10  N   UNL     1       0.327   2.279  -3.115  0.00  0.00    -0.215 N 
ATOM     11  C   UNL     1      -0.052   3.366  -2.431  0.00  0.00    +0.310 C 
ATOM     12  O   UNL     1       0.166   4.505  -2.797  0.00  0.00    -0.252 OA
ATOM     13  N   UNL     1      -0.701   3.057  -1.292  0.00  0.00    -0.285 N 
ATOM     14  H   UNL     1      -1.064   3.680  -0.643  0.00  0.00    +0.151 HD
ENDROOT
BRANCH  10  15
ATOM     15  C   UNL     1       1.050   2.318  -4.388  0.00  0.00    +0.213 C 
BRANCH  15  16
ATOM     16  C   UNL     1       2.534   2.321  -4.123  0.00  0.00    +0.234 C 
ATOM     17  O   UNL     1       2.946   2.293  -2.983  0.00  0.00    -0.274 OA
ATOM     18  N   UNL     1       3.402   2.353  -5.153  0.00  0.00    -0.297 N 
ATOM     19  C   UNL     1       2.921   2.387  -6.541  0.00  0.00    +0.108 C 
ATOM     20  C   UNL     1       3.557   3.581  -7.259  0.00  0.00    +0.019 C 
ATOM     21  C   UNL     1       5.080   3.508  -7.119  0.00  0.00    +0.007 C 
ATOM     22  C   UNL     1       5.457   3.563  -5.639  0.00  0.00    +0.010 C 
ATOM     23  C   UNL     1       4.854   2.363  -4.914  0.00  0.00    +0.079 C 
ATOM     24  C   UNL     1       5.447   1.067  -5.487  0.00  0.00    +0.023 C 
ATOM     25  C   UNL     1       6.966   1.075  -5.311  0.00  0.00    +0.002 C 
ATOM     26  C   UNL     1       7.556   2.271  -6.061  0.00  0.00    +0.000 C 
ATOM     27  C   UNL     1       6.976   3.564  -5.484  0.00  0.00    +0.005 C 
ENDBRANCH  15  16
ENDBRANCH  10  15
TORSDOF 2
