REMARK  Name = ZINC16022181
REMARK  8 active torsions:
REMARK  status: ('A' for Active; 'I' for Inactive)
REMARK    1  A    between atoms: C_1  and  C_2
REMARK    2  A    between atoms: C_2  and  C_3
REMARK    3  A    between atoms: C_3  and  C_4
REMARK    4  A    between atoms: C_4  and  N_5
REMARK    5  A    between atoms: C_10  and  C_28
REMARK    6  A    between atoms: C_28  and  C_29
REMARK    7  A    between atoms: C_29  and  C_30
REMARK    8  A    between atoms: C_29  and  C_31
REMARK                            x       y       z     vdW  Elec       q    Type
REMARK                         _______ _______ _______ _____ _____    ______ ____
ROOT
ATOM      1  N   UNL     1       1.425  -2.500  -2.470  0.00  0.00    -0.242 N 
ATOM      2  C   UNL     1       0.784  -2.738  -3.621  0.00  0.00    +0.227 C 
ATOM      3  O   UNL     1      -0.407  -2.600  -3.801  0.00  0.00    -0.275 OA
ATOM      4  C   UNL     1       1.777  -3.205  -4.661  0.00  0.00    +0.107 C 
ATOM      5  C   UNL     1       1.495  -4.682  -5.009  0.00  0.00    +0.068 C 
ATOM      6  N   UNL     1       2.256  -5.464  -4.000  0.00  0.00    -0.295 NA
ATOM      7  C   UNL     1       3.512  -4.710  -3.830  0.00  0.00    +0.136 C 
ATOM      8  C   UNL     1       3.127  -3.211  -3.892  0.00  0.00    +0.122 C 
ATOM      9  C   UNL     1       2.743  -2.723  -2.512  0.00  0.00    +0.228 C 
ATOM     10  O   UNL     1       3.510  -2.561  -1.588  0.00  0.00    -0.275 OA
ATOM     11  C   UNL     1       4.514  -5.061  -4.893  0.00  0.00    +0.004 A 
ATOM     12  C   UNL     1       4.504  -4.985  -6.268  0.00  0.00    +0.023 A 
ATOM     13  C   UNL     1       5.610  -5.394  -6.992  0.00  0.00    +0.018 A 
ATOM     14  C   UNL     1       6.725  -5.879  -6.331  0.00  0.00    +0.017 A 
ATOM     15  C   UNL     1       6.739  -5.956  -4.954  0.00  0.00    +0.025 A 
ATOM     16  C   UNL     1       5.630  -5.546  -4.218  0.00  0.00    +0.039 A 
ATOM     17  N   UNL     1       5.407  -5.528  -2.839  0.00  0.00    -0.283 N 
ATOM     18  C   UNL     1       4.186  -5.051  -2.529  0.00  0.00    +0.243 C 
ATOM     19  O   UNL     1       3.720  -4.923  -1.417  0.00  0.00    -0.273 OA
ATOM     20 BR   UNL     1       5.598  -5.292  -8.880  0.00  0.00    -0.050 Br
ATOM     21  H   UNL     1       1.749  -5.523  -3.130  0.00  0.00    +0.123 HD
ATOM     22  H   UNL     1       6.055  -5.824  -2.181  0.00  0.00    +0.155 HD
ENDROOT
BRANCH   1  23
ATOM     23  C   UNL     1       0.739  -2.027  -1.265  0.00  0.00    +0.116 C 
BRANCH  23  24
ATOM     24  C   UNL     1       0.718  -0.497  -1.257  0.00  0.00    +0.019 C 
BRANCH  24  26
ATOM     25  C   UNL     1      -0.019   1.526   0.010  0.00  0.00    +0.004 C 
ATOM     26  C   UNL     1       0.002  -0.004   0.002  0.00  0.00    -0.002 C 
ENDBRANCH  24  26
ENDBRANCH  23  24
ENDBRANCH   1  23
BRANCH   5  27
ATOM     27  C   UNL     1      -0.002  -4.979  -4.897  0.00  0.00    +0.022 C 
BRANCH  27  28
ATOM     28  C   UNL     1      -0.275  -6.409  -5.366  0.00  0.00    -0.016 C 
ATOM     29  C   UNL     1      -1.749  -6.748  -5.137  0.00  0.00    +0.007 C 
ATOM     30  C   UNL     1       0.051  -6.529  -6.856  0.00  0.00    +0.007 C 
ENDBRANCH  27  28
ENDBRANCH   5  27
TORSDOF 5
