REMARK  Name = ZINC54945948
REMARK  11 active torsions:
REMARK  status: ('A' for Active; 'I' for Inactive)
REMARK    1  A    between atoms: C_1  and  C_2
REMARK    2  A    between atoms: C_5  and  C_30
REMARK    3  A    between atoms: N_8  and  C_10
REMARK    4  A    between atoms: C_10  and  C_11
REMARK    5  A    between atoms: C_10  and  C_12
REMARK    6  A    between atoms: C_10  and  C_13
REMARK    7  A    between atoms: C_13  and  N_14
REMARK    8  A    between atoms: C_15  and  C_17
REMARK    9  A    between atoms: N_19  and  C_20
REMARK   10  A    between atoms: C_25  and  C_26
REMARK   11  A    between atoms: C_26  and  C_27
REMARK                            x       y       z     vdW  Elec       q    Type
REMARK                         _______ _______ _______ _____ _____    ______ ____
ROOT
ATOM      1  N   UNL     1       2.023   1.663   3.446  0.00  0.00    -0.309 N 
ATOM      2  C   UNL     1       1.542   2.462   4.419  0.00  0.00    +0.299 C 
ATOM      3  O   UNL     1       1.225   1.988   5.491  0.00  0.00    -0.265 OA
ATOM      4  H   UNL     1       2.276   2.041   2.589  0.00  0.00    +0.149 HD
ENDROOT
BRANCH   2   5
ATOM      5  C   UNL     1       1.397   3.928   4.178  0.00  0.00    +0.303 C 
ATOM      6  O   UNL     1       1.713   4.402   3.106  0.00  0.00    -0.265 OA
ATOM      7  N   UNL     1       0.915   4.727   5.152  0.00  0.00    -0.277 N 
ATOM      8  H   UNL     1       0.590   4.340   5.980  0.00  0.00    +0.155 HD
BRANCH   7   9
ATOM      9  C   UNL     1       0.885   6.112   4.968  0.00  0.00    +0.037 A 
ATOM     10  C   UNL     1       1.765   6.716   4.079  0.00  0.00    +0.023 A 
ATOM     11  C   UNL     1       1.732   8.085   3.900  0.00  0.00    +0.002 A 
ATOM     12  C   UNL     1       0.824   8.854   4.604  0.00  0.00    +0.000 A 
ATOM     13  C   UNL     1      -0.054   8.256   5.490  0.00  0.00    +0.006 A 
ATOM     14  C   UNL     1      -0.030   6.886   5.669  0.00  0.00    -0.017 A 
BRANCH  14  15
ATOM     15  C   UNL     1      -0.992   6.235   6.630  0.00  0.00    +0.132 C 
BRANCH  15  16
ATOM     16  C   UNL     1      -0.326   6.066   7.971  0.00  0.00    +0.215 C 
ATOM     17  O   UNL     1       0.818   6.438   8.131  0.00  0.00    -0.276 OA
ATOM     18  N   UNL     1      -1.000   5.501   8.992  0.00  0.00    -0.329 N 
ATOM     19  H   UNL     1      -1.914   5.204   8.864  0.00  0.00    +0.145 HD
ATOM     20  H   UNL     1      -0.571   5.393   9.855  0.00  0.00    +0.145 HD
ENDBRANCH  15  16
ENDBRANCH  14  15
ENDBRANCH   7   9
ENDBRANCH   2   5
BRANCH   1  21
ATOM     21  C   UNL     1       2.165   0.224   3.681  0.00  0.00    +0.092 C 
BRANCH  21  22
ATOM     22  C   UNL     1       2.841  -0.426   2.473  0.00  0.00    -0.055 C 
ATOM     23  C   UNL     1       2.895  -1.942   2.674  0.00  0.00    -0.008 C 
ATOM     24  C   UNL     1       4.263   0.120   2.329  0.00  0.00    -0.008 C 
BRANCH  22  30
ATOM     25  C   UNL     1      -0.231   1.177   0.065  0.00  0.00    +0.005 C 
ATOM     26  C   UNL     1      -0.091  -0.345   0.132  0.00  0.00    -0.031 C 
ATOM     27  C   UNL     1       0.610  -0.851  -1.132  0.00  0.00    +0.003 C 
ATOM     28  C   UNL     1       2.025  -0.269  -1.187  0.00  0.00    -0.031 C 
ATOM     29  C   UNL     1       2.779  -0.655   0.088  0.00  0.00    -0.075 C 
ATOM     30  N   UNL     1       2.073  -0.120   1.259  0.00  0.00    +0.384 N 
ATOM     31  C   UNL     1       0.740  -0.728   1.358  0.00  0.00    -0.075 C 
ATOM     32  C   UNL     1       2.761  -0.828  -2.406  0.00  0.00    +0.005 C 
ATOM     33  H   UNL     1       1.979   0.880   1.166  0.00  0.00    -0.081 HD
ENDBRANCH  22  30
ENDBRANCH  21  22
ENDBRANCH   1  21
TORSDOF 7
