REMARK  Name = ZINC06945957
REMARK  7 active torsions:
REMARK  status: ('A' for Active; 'I' for Inactive)
REMARK    1  A    between atoms: C_1  and  C_2
REMARK    2  A    between atoms: C_7  and  C_10
REMARK    3  A    between atoms: C_11  and  C_13
REMARK    4  A    between atoms: C_13  and  S_14
REMARK    5  A    between atoms: S_14  and  C_15
REMARK    6  A    between atoms: C_18  and  C_21
REMARK    7  A    between atoms: N_19  and  N_20
REMARK                            x       y       z     vdW  Elec       q    Type
REMARK                         _______ _______ _______ _____ _____    ______ ____
ROOT
ATOM      1  C   UNL     1      -2.843  -6.851  -1.308  0.00  0.00    +0.209 A 
ATOM      2  N   UNL     1      -2.135  -7.367  -0.330  0.00  0.00    -0.121 NA
ATOM      3  N   UNL     1      -2.225  -8.649  -0.347  0.00  0.00    -0.126 NA
ATOM      4  C   UNL     1      -2.999  -9.031  -1.339  0.00  0.00    +0.188 A 
ATOM      5  N   UNL     1      -3.423  -7.889  -1.982  0.00  0.00    -0.223 N 
ENDROOT
BRANCH   4   6
ATOM      6  C   UNL     1      -3.350 -10.416  -1.692  0.00  0.00    +0.058 A 
ATOM      7  C   UNL     1      -3.210 -11.560  -0.948  0.00  0.00    +0.019 A 
ATOM      8  C   UNL     1      -3.614 -12.757  -1.494  0.00  0.00    +0.008 A 
ATOM      9  C   UNL     1      -4.137 -12.771  -2.748  0.00  0.00    +0.046 A 
ATOM     10  S   UNL     1      -4.075 -11.044  -3.198  0.00  0.00    -0.093 S 
ENDBRANCH   4   6
BRANCH   5  11
ATOM     11  N   UNL     1      -4.248  -7.811  -3.068  0.00  0.00    -0.295 N 
ATOM     12  H   UNL     1      -3.719  -7.837  -3.927  0.00  0.00    +0.163 HD
ATOM     13  H   UNL     1      -4.942  -8.543  -3.048  0.00  0.00    +0.163 HD
ENDBRANCH   5  11
BRANCH   1  14
ATOM     14  S   UNL     1      -3.018  -5.137  -1.679  0.00  0.00    -0.075 S 
BRANCH  14  15
ATOM     15  C   UNL     1      -2.006  -4.310  -0.421  0.00  0.00    +0.173 C 
BRANCH  15  24
ATOM     16  C   UNL     1      -0.019   1.526   0.010  0.00  0.00    +0.039 C 
ATOM     17  C   UNL     1       0.002  -0.004   0.002  0.00  0.00    +0.133 C 
ATOM     18  C   UNL     1      -1.436  -0.536   0.015  0.00  0.00    +0.139 C 
ATOM     19  N   UNL     1      -1.389  -1.995   0.196  0.00  0.00    -0.296 N 
ATOM     20  C   UNL     1      -0.578  -2.530   1.302  0.00  0.00    +0.139 C 
ATOM     21  C   UNL     1       0.818  -1.901   1.226  0.00  0.00    +0.133 C 
ATOM     22  O   UNL     1       0.691  -0.479   1.161  0.00  0.00    -0.371 OA
ATOM     23  C   UNL     1       1.539  -2.407  -0.025  0.00  0.00    +0.039 C 
ATOM     24  C   UNL     1      -2.069  -2.818  -0.627  0.00  0.00    +0.226 C 
ATOM     25  O   UNL     1      -2.732  -2.358  -1.532  0.00  0.00    -0.275 OA
ENDBRANCH  15  24
ENDBRANCH  14  15
ENDBRANCH   1  14
TORSDOF 5
