REMARK  Name = ZINC39631579
REMARK  15 active torsions:
REMARK  status: ('A' for Active; 'I' for Inactive)
REMARK    1  A    between atoms: C_1  and  C_2
REMARK    2  A    between atoms: C_2  and  C_3
REMARK    3  A    between atoms: C_3  and  C_4
REMARK    4  A    between atoms: C_3  and  C_6
REMARK    5  A    between atoms: C_4  and  C_5
REMARK    6  A    between atoms: C_10  and  C_19
REMARK    7  A    between atoms: N_21  and  C_22
REMARK    8  A    between atoms: C_22  and  C_24
REMARK    9  A    between atoms: C_22  and  C_25
REMARK   10  A    between atoms: C_25  and  C_26
REMARK   11  A    between atoms: C_26  and  C_27
REMARK   12  A    between atoms: C_27  and  C_28
REMARK   13  A    between atoms: C_28  and  C_29
REMARK   14  A    between atoms: C_28  and  C_30
REMARK   15  A    between atoms: C_28  and  O_31
REMARK                            x       y       z     vdW  Elec       q    Type
REMARK                         _______ _______ _______ _____ _____    ______ ____
ROOT
ATOM      1  C   UNL     1       0.564  -2.020  -1.693  0.00  0.00    +0.219 C 
ATOM      2  O   UNL     1       1.484  -2.781  -1.911  0.00  0.00    -0.275 OA
ATOM      3  N   UNL     1      -0.690  -2.497  -1.572  0.00  0.00    -0.300 N 
ATOM      4  C   UNL     1      -1.933  -1.731  -1.315  0.00  0.00    +0.121 C 
ATOM      5  C   UNL     1      -3.000  -2.408  -2.203  0.00  0.00    +0.100 C 
ATOM      6  C   UNL     1      -2.475  -3.836  -2.428  0.00  0.00    -0.004 C 
ATOM      7  C   UNL     1      -1.141  -3.906  -1.671  0.00  0.00    +0.115 C 
ATOM      8  C   UNL     1      -2.245  -4.086  -3.915  0.00  0.00    -0.010 C 
ATOM      9  C   UNL     1      -1.777  -5.530  -4.119  0.00  0.00    -0.082 C 
ATOM     10  N   UNL     1      -2.793  -6.453  -3.598  0.00  0.00    +0.379 N 
ATOM     11  C   UNL     1      -2.942  -6.269  -2.150  0.00  0.00    -0.082 C 
ATOM     12  C   UNL     1      -3.458  -4.856  -1.863  0.00  0.00    -0.010 C 
ATOM     13  H   UNL     1      -3.676  -6.270  -4.051  0.00  0.00    -0.086 HD
ATOM     14  H   UNL     1      -2.512  -7.403  -3.788  0.00  0.00    -0.086 HD
ENDROOT
BRANCH   5  15
ATOM     15  C   UNL     1      -4.329  -2.441  -1.494  0.00  0.00    +0.218 C 
ATOM     16  O   UNL     1      -4.370  -2.419  -0.282  0.00  0.00    -0.275 OA
ATOM     17  N   UNL     1      -5.472  -2.496  -2.206  0.00  0.00    -0.312 N 
ATOM     18  H   UNL     1      -5.439  -2.514  -3.175  0.00  0.00    +0.149 HD
BRANCH  17  19
ATOM     19  C   UNL     1      -6.764  -2.528  -1.516  0.00  0.00    +0.070 C 
ATOM     20  C   UNL     1      -7.104  -3.970  -1.137  0.00  0.00    +0.028 C 
BRANCH  19  21
ATOM     21  C   UNL     1      -7.850  -1.974  -2.442  0.00  0.00    +0.022 C 
BRANCH  21  22
ATOM     22  C   UNL     1      -7.577  -0.495  -2.721  0.00  0.00    +0.005 C 
BRANCH  22  23
ATOM     23  C   UNL     1      -8.662   0.059  -3.646  0.00  0.00    +0.034 C 
BRANCH  23  24
ATOM     24  C   UNL     1      -8.389   1.538  -3.925  0.00  0.00    +0.061 C 
ATOM     25  C   UNL     1      -9.539   2.123  -4.747  0.00  0.00    +0.041 C 
ATOM     26  C   UNL     1      -8.273   2.294  -2.600  0.00  0.00    +0.041 C 
BRANCH  24  27
ATOM     27  O   UNL     1      -7.168   1.667  -4.656  0.00  0.00    -0.389 OA
ATOM     28  H   UNL     1      -6.931   2.580  -4.868  0.00  0.00    +0.210 HD
ENDBRANCH  24  27
ENDBRANCH  23  24
ENDBRANCH  22  23
ENDBRANCH  21  22
ENDBRANCH  19  21
ENDBRANCH  17  19
ENDBRANCH   5  15
BRANCH   1  29
ATOM     29  C   UNL     1       0.825  -0.542  -1.558  0.00  0.00    +0.075 C 
BRANCH  29  31
ATOM     30  C   UNL     1       0.515   1.451  -0.084  0.00  0.00    +0.004 C 
ATOM     31  C   UNL     1       0.383  -0.071  -0.172  0.00  0.00    +0.009 C 
ENDBRANCH  29  31
BRANCH  29  32
ATOM     32  C   UNL     1       2.320  -0.269  -1.737  0.00  0.00    +0.009 C 
ATOM     33  C   UNL     1       2.727  -0.588  -3.177  0.00  0.00    +0.004 C 
ENDBRANCH  29  32
ENDBRANCH   1  29
TORSDOF 10
