REMARK  Name = ZINC12566679
REMARK  14 active torsions:
REMARK  status: ('A' for Active; 'I' for Inactive)
REMARK    1  A    between atoms: C_1  and  C_2
REMARK    2  A    between atoms: C_5  and  N_9
REMARK    3  A    between atoms: C_6  and  C_8
REMARK    4  A    between atoms: N_9  and  C_10
REMARK    5  A    between atoms: C_10  and  N_12
REMARK    6  A    between atoms: N_12  and  C_13
REMARK    7  A    between atoms: N_12  and  C_17
REMARK    8  A    between atoms: C_13  and  C_14
REMARK    9  A    between atoms: C_14  and  N_63
REMARK   10  A    between atoms: C_15  and  N_63
REMARK   11  A    between atoms: C_16  and  N_63
REMARK   12  A    between atoms: C_17  and  C_18
REMARK   13  A    between atoms: C_22  and  C_31
REMARK   14  A    between atoms: C_24  and  C_30
REMARK                            x       y       z     vdW  Elec       q    Type
REMARK                         _______ _______ _______ _____ _____    ______ ____
ROOT
ATOM      1  N   UNL     1      -1.606   8.182  -1.236  0.00  0.00    -0.310 N 
ENDROOT
BRANCH   1   2
ATOM      2  C   UNL     1      -2.872   8.370  -1.657  0.00  0.00    +0.137 C 
ATOM      3  S   UNL     1      -4.143   8.497  -0.517  0.00  0.00    -0.018 S 
BRANCH   2   4
ATOM      4  N   UNL     1      -3.138   8.458  -2.976  0.00  0.00    -0.297 N 
ATOM      5  H   UNL     1      -2.412   8.449  -3.619  0.00  0.00    +0.154 HD
BRANCH   4  10
ATOM      6  C   UNL     1      -8.504   8.884  -4.765  0.00  0.00    +0.044 C 
ATOM      7  C   UNL     1      -7.079   8.771  -4.290  0.00  0.00    -0.050 A 
ATOM      8  C   UNL     1      -6.772   7.956  -3.215  0.00  0.00    +0.005 A 
ATOM      9  C   UNL     1      -5.467   7.850  -2.777  0.00  0.00    +0.024 A 
ATOM     10  C   UNL     1      -4.461   8.563  -3.417  0.00  0.00    +0.036 A 
ATOM     11  C   UNL     1      -4.773   9.385  -4.492  0.00  0.00    -0.029 A 
ATOM     12  C   UNL     1      -6.080   9.482  -4.929  0.00  0.00    +0.008 A 
ATOM     13  C   UNL     1      -3.686  10.165  -5.186  0.00  0.00    +0.045 C 
ENDBRANCH   4  10
ENDBRANCH   2   4
ENDBRANCH   1   2
BRANCH   1  14
ATOM     14  C   UNL     1      -0.505   8.179  -2.203  0.00  0.00    +0.088 C 
BRANCH  14  15
ATOM     15  C   UNL     1      -0.276   6.754  -2.711  0.00  0.00    -0.060 C 
BRANCH  15  18
ATOM     16  C   UNL     1       2.099   7.099  -3.033  0.00  0.00    -0.097 C 
ATOM     17  C   UNL     1       0.923   5.454  -4.365  0.00  0.00    -0.097 C 
ATOM     18  N   UNL     1       0.822   6.771  -3.701  0.00  0.00    +0.377 N 
ATOM     19  H   UNL     1       0.622   7.487  -4.408  0.00  0.00    -0.083 HD
ENDBRANCH  15  18
ENDBRANCH  14  15
ENDBRANCH   1  14
BRANCH   1  20
ATOM     20  C   UNL     1      -1.329   7.981   0.188  0.00  0.00    +0.147 C 
BRANCH  20  21
ATOM     21  C   UNL     1      -1.145   9.318   0.858  0.00  0.00    +0.035 A 
ATOM     22  C   UNL     1      -2.202   9.929   1.448  0.00  0.00    +0.020 A 
ATOM     23  C   UNL     1      -1.989  11.228   2.090  0.00  0.00    -0.001 A 
ATOM     24  C   UNL     1      -3.041  11.907   2.716  0.00  0.00    +0.013 A 
ATOM     25  C   UNL     1      -2.809  13.117   3.306  0.00  0.00    -0.050 A 
ATOM     26  C   UNL     1      -1.540  13.679   3.291  0.00  0.00    +0.008 A 
ATOM     27  C   UNL     1      -0.491  13.031   2.676  0.00  0.00    -0.026 A 
ATOM     28  C   UNL     1      -0.701  11.795   2.073  0.00  0.00    +0.052 A 
ATOM     29  N   UNL     1       0.331  11.122   1.455  0.00  0.00    -0.322 N 
ATOM     30  H   UNL     1       1.218  11.515   1.444  0.00  0.00    +0.169 HD
ATOM     31  C   UNL     1       0.127   9.930   0.868  0.00  0.00    +0.254 A 
ATOM     32  O   UNL     1       1.063   9.364   0.331  0.00  0.00    -0.268 OA
ATOM     33  C   UNL     1       0.880  13.656   2.662  0.00  0.00    +0.046 C 
ATOM     34  C   UNL     1      -3.942  13.847   3.980  0.00  0.00    +0.044 C 
ENDBRANCH  20  21
ENDBRANCH   1  20
TORSDOF 8
