REMARK  Name = ZINC20220573
REMARK  7 active torsions:
REMARK  status: ('A' for Active; 'I' for Inactive)
REMARK    1  A    between atoms: C_1  and  O_2
REMARK    2  A    between atoms: O_2  and  C_3
REMARK    3  A    between atoms: C_3  and  C_5
REMARK    4  A    between atoms: C_6  and  N_34
REMARK    5  A    between atoms: C_8  and  C_9
REMARK    6  A    between atoms: C_17  and  C_31
REMARK    7  A    between atoms: C_19  and  C_24
REMARK                            x       y       z     vdW  Elec       q    Type
REMARK                         _______ _______ _______ _____ _____    ______ ____
ROOT
ATOM      1  C   UNL     1      -1.732   2.334   0.554  0.00  0.00    +0.155 A 
ATOM      2  C   UNL     1      -2.521   1.515  -0.223  0.00  0.00    +0.065 A 
ATOM      3  C   UNL     1      -1.665   0.420  -0.712  0.00  0.00    +0.024 A 
ATOM      4  C   UNL     1      -2.024  -0.609  -1.559  0.00  0.00    +0.022 C 
ATOM      5  C   UNL     1      -0.349   0.658  -0.108  0.00  0.00    +0.077 A 
ATOM      6  C   UNL     1       0.757  -0.169  -0.171  0.00  0.00    +0.095 C 
ATOM      7  S   UNL     1       2.184   0.298   0.765  0.00  0.00    -0.100 S 
ATOM      8  C   UNL     1       2.047   2.107   0.844  0.00  0.00    +0.173 C 
ATOM      9  C   UNL     1       0.626   2.494   1.157  0.00  0.00    +0.250 C 
ATOM     10  O   UNL     1       0.413   3.396   1.940  0.00  0.00    -0.271 OA
ATOM     11  N   UNL     1      -0.415   1.858   0.583  0.00  0.00    -0.270 N 
ENDROOT
BRANCH   4  12
ATOM     12  C   UNL     1      -3.329  -0.590  -2.223  0.00  0.00    +0.011 A 
ATOM     13  C   UNL     1      -3.820   0.599  -2.781  0.00  0.00    +0.011 A 
ATOM     14  C   UNL     1      -5.046   0.607  -3.407  0.00  0.00    +0.001 A 
ATOM     15  C   UNL     1      -5.801  -0.553  -3.479  0.00  0.00    +0.003 A 
ATOM     16  C   UNL     1      -5.330  -1.731  -2.928  0.00  0.00    +0.039 A 
ATOM     17  C   UNL     1      -4.100  -1.761  -2.300  0.00  0.00    +0.131 A 
ATOM     18  F   UNL     1      -3.641  -2.912  -1.761  0.00  0.00    -0.205 F 
ENDBRANCH   4  12
BRANCH   8  19
ATOM     19  C   UNL     1       2.448   2.699  -0.483  0.00  0.00    +0.010 A 
ATOM     20  C   UNL     1       2.448   1.912  -1.619  0.00  0.00    +0.008 A 
ATOM     21  C   UNL     1       2.814   2.454  -2.836  0.00  0.00    +0.000 A 
ATOM     22  C   UNL     1       3.181   3.785  -2.919  0.00  0.00    +0.003 A 
ATOM     23  C   UNL     1       3.180   4.574  -1.785  0.00  0.00    +0.038 A 
ATOM     24  C   UNL     1       2.809   4.033  -0.565  0.00  0.00    +0.128 A 
ATOM     25  F   UNL     1       2.804   4.805   0.543  0.00  0.00    -0.205 F 
ENDBRANCH   8  19
BRANCH   6  26
ATOM     26  C   UNL     1       0.747  -1.348  -0.956  0.00  0.00    +0.250 C 
ATOM     27  O   UNL     1       1.172  -1.323  -2.098  0.00  0.00    -0.270 OA
ATOM     28  N   UNL     1       0.269  -2.498  -0.440  0.00  0.00    -0.325 N 
ATOM     29  H   UNL     1       0.262  -3.413  -1.050  0.00  0.00    +0.145 HD
ATOM     30  H   UNL     1      -0.114  -2.520   0.591  0.00  0.00    +0.145 HD
ENDBRANCH   6  26
BRANCH   2  31
ATOM     31  N   UNL     1      -3.866   1.688  -0.493  0.00  0.00    -0.356 N 
ATOM     32  H   UNL     1      -4.396   0.966  -1.131  0.00  0.00    +0.142 HD
ATOM     33  H   UNL     1      -4.406   2.549  -0.071  0.00  0.00    +0.142 HD
ENDBRANCH   2  31
BRANCH   1  34
ATOM     34  C   UNL     1      -2.186   3.489   1.227  0.00  0.00    +0.358 C 
ATOM     35  O   UNL     1      -1.490   4.487   1.261  0.00  0.00    -0.243 OA
BRANCH  34  37
ATOM     36  C   UNL     1      -3.789   4.691   2.494  0.00  0.00    +0.280 C 
ATOM     37  O   UNL     1      -3.393   3.487   1.832  0.00  0.00    -0.463 OA
ENDBRANCH  34  37
ENDBRANCH   1  34
TORSDOF 6
