REMARK  Name = ZINC50962783
REMARK  11 active torsions:
REMARK  status: ('A' for Active; 'I' for Inactive)
REMARK    1  A    between atoms: C_1  and  C_2
REMARK    2  A    between atoms: C_2  and  C_3
REMARK    3  A    between atoms: C_2  and  C_4
REMARK    4  A    between atoms: C_2  and  O_5
REMARK    5  A    between atoms: O_5  and  C_6
REMARK    6  A    between atoms: N_8  and  C_9
REMARK    7  A    between atoms: C_9  and  C_10
REMARK    8  A    between atoms: N_16  and  C_17
REMARK    9  A    between atoms: C_17  and  C_18
REMARK   10  A    between atoms: N_23  and  C_24
REMARK   11  A    between atoms: C_24  and  C_25
REMARK                            x       y       z     vdW  Elec       q    Type
REMARK                         _______ _______ _______ _____ _____    ______ ____
ROOT
ATOM      1  C   UNL     1       4.662  -0.563  -3.974  0.00  0.00    -0.050 C 
ATOM      2  C   UNL     1       6.157  -0.236  -3.970  0.00  0.00    -0.014 C 
ATOM      3  C   UNL     1       6.801  -0.797  -5.241  0.00  0.00    -0.003 C 
ATOM      4  C   UNL     1       6.537  -2.304  -5.313  0.00  0.00    -0.019 C 
ATOM      5  C   UNL     1       5.028  -2.554  -5.268  0.00  0.00    -0.078 C 
ATOM      6  N   UNL     1       4.477  -2.019  -4.017  0.00  0.00    +0.388 N 
ATOM      7  H   UNL     1       4.952  -2.440  -3.233  0.00  0.00    -0.081 HD
ENDROOT
BRANCH   1   8
ATOM      8  C   UNL     1       4.015  -0.004  -2.706  0.00  0.00    +0.092 C 
BRANCH   8  11
ATOM      9  C   UNL     1       4.207  -0.301  -0.295  0.00  0.00    +0.401 C 
ATOM     10  O   UNL     1       3.439   0.630  -0.149  0.00  0.00    -0.226 OA
ATOM     11  N   UNL     1       4.558  -0.696  -1.534  0.00  0.00    -0.283 N 
ATOM     12  H   UNL     1       5.171  -1.439  -1.651  0.00  0.00    +0.152 HD
BRANCH   9  13
ATOM     13  O   UNL     1       4.706  -0.937   0.782  0.00  0.00    -0.445 OA
BRANCH  13  15
ATOM     14  C   UNL     1       2.770  -0.585   2.185  0.00  0.00    +0.055 C 
ATOM     15  C   UNL     1       4.291  -0.465   2.065  0.00  0.00    +0.107 C 
ATOM     16  C   UNL     1       4.700   1.001   2.226  0.00  0.00    +0.055 C 
ATOM     17  C   UNL     1       4.957  -1.304   3.157  0.00  0.00    +0.055 C 
ENDBRANCH  13  15
ENDBRANCH   9  13
ENDBRANCH   8  11
ENDBRANCH   1   8
BRANCH   6  18
ATOM     18  C   UNL     1       3.044  -2.331  -3.942  0.00  0.00    +0.019 C 
BRANCH  18  19
ATOM     19  C   UNL     1       2.860  -3.821  -3.811  0.00  0.00    +0.204 C 
ATOM     20  O   UNL     1       3.828  -4.551  -3.783  0.00  0.00    -0.277 OA
ATOM     21  N   UNL     1       1.620  -4.342  -3.725  0.00  0.00    -0.242 N 
ATOM     22  C   UNL     1       1.456  -5.675  -3.608  0.00  0.00    +0.306 C 
ATOM     23  O   UNL     1       2.426  -6.406  -3.580  0.00  0.00    -0.252 OA
ATOM     24  N   UNL     1       0.216  -6.196  -3.522  0.00  0.00    -0.294 N 
ATOM     25  H   UNL     1       0.846  -3.758  -3.748  0.00  0.00    +0.159 HD
ATOM     26  H   UNL     1      -0.558  -5.612  -3.545  0.00  0.00    +0.151 HD
BRANCH  24  27
ATOM     27  C   UNL     1       0.038  -7.644  -3.395  0.00  0.00    +0.148 C 
BRANCH  27  28
ATOM     28  C   UNL     1      -1.433  -7.965  -3.318  0.00  0.00    +0.007 A 
ATOM     29  C   UNL     1      -2.300  -8.239  -4.323  0.00  0.00    +0.013 A 
ATOM     30  C   UNL     1      -3.620  -8.508  -4.014  0.00  0.00    +0.008 A 
ATOM     31  C   UNL     1      -4.009  -8.489  -2.716  0.00  0.00    +0.045 A 
ATOM     32  S   UNL     1      -2.483  -8.088  -1.880  0.00  0.00    -0.100 S 
ENDBRANCH  27  28
ENDBRANCH  24  27
ENDBRANCH  18  19
ENDBRANCH   6  18
TORSDOF 8
