REMARK  Name = ZINC65062974
REMARK  9 active torsions:
REMARK  status: ('A' for Active; 'I' for Inactive)
REMARK    1  A    between atoms: C_1  and  C_2
REMARK    2  A    between atoms: C_5  and  C_8
REMARK    3  A    between atoms: C_10  and  C_13
REMARK    4  A    between atoms: C_16  and  C_18
REMARK    5  A    between atoms: N_20  and  C_21
REMARK    6  A    between atoms: C_21  and  C_22
REMARK    7  A    between atoms: C_22  and  C_23
REMARK    8  A    between atoms: C_23  and  N_24
REMARK    9  A    between atoms: N_27  and  C_30
REMARK                            x       y       z     vdW  Elec       q    Type
REMARK                         _______ _______ _______ _____ _____    ______ ____
ROOT
ATOM      1  C   UNL     1       0.127 -10.038   4.844  0.00  0.00    +0.251 C 
ATOM      2  O   UNL     1       0.146 -11.254   4.812  0.00  0.00    -0.270 OA
ATOM      3  N   UNL     1       0.113  -9.395   6.028  0.00  0.00    -0.311 N 
ATOM      4  H   UNL     1       0.098  -8.425   6.053  0.00  0.00    +0.149 HD
ENDROOT
BRANCH   1   8
ATOM      5  C   UNL     1       0.099  -7.479   1.576  0.00  0.00    +0.060 A 
ATOM      6  C   UNL     1       0.121  -8.828   1.266  0.00  0.00    +0.020 A 
ATOM      7  C   UNL     1       0.132  -9.737   2.286  0.00  0.00    +0.021 A 
ATOM      8  C   UNL     1       0.120  -9.272   3.592  0.00  0.00    +0.074 A 
ATOM      9  S   UNL     1       0.101  -7.502   3.361  0.00  0.00    -0.080 S 
BRANCH   5  12
ATOM     10  C   UNL     1       0.058  -4.251  -0.021  0.00  0.00    +0.259 A 
ATOM     11  N   UNL     1       0.068  -5.026   1.038  0.00  0.00    -0.187 NA
ATOM     12  C   UNL     1       0.084  -6.316   0.662  0.00  0.00    +0.209 A 
ATOM     13  N   UNL     1       0.084  -6.374  -0.649  0.00  0.00    -0.055 NA
ATOM     14  O   UNL     1       0.062  -5.033  -1.115  0.00  0.00    -0.332 OA
BRANCH  10  19
ATOM     15  C   UNL     1      -0.018   1.503   0.010  0.00  0.00    +0.044 C 
ATOM     16  C   UNL     1       0.002  -0.004   0.002  0.00  0.00    -0.050 A 
ATOM     17  C   UNL     1       0.006  -0.686  -1.202  0.00  0.00    +0.004 A 
ATOM     18  C   UNL     1       0.024  -2.066  -1.216  0.00  0.00    +0.013 A 
ATOM     19  C   UNL     1       0.039  -2.773  -0.013  0.00  0.00    +0.039 A 
ATOM     20  C   UNL     1       0.036  -2.079   1.198  0.00  0.00    +0.013 A 
ATOM     21  C   UNL     1       0.023  -0.699   1.198  0.00  0.00    +0.004 A 
ENDBRANCH  10  19
ENDBRANCH   5  12
ENDBRANCH   1   8
BRANCH   3  22
ATOM     22  C   UNL     1       0.120 -10.159   7.277  0.00  0.00    +0.106 C 
BRANCH  22  23
ATOM     23  C   UNL     1       0.101  -9.195   8.465  0.00  0.00    +0.034 C 
BRANCH  23  24
ATOM     24  C   UNL     1       0.109  -9.994   9.770  0.00  0.00    +0.086 C 
BRANCH  24  25
ATOM     25  N   UNL     1       0.090  -9.069  10.911  0.00  0.00    -0.306 NA
ATOM     26  C   UNL     1       1.334  -8.289  10.977  0.00  0.00    +0.066 C 
ATOM     27  C   UNL     1       1.250  -7.298  12.140  0.00  0.00    -0.063 C 
ATOM     28  N   UNL     1       1.045  -8.032  13.395  0.00  0.00    +0.383 N 
ATOM     29  C   UNL     1      -0.213  -8.786  13.324  0.00  0.00    -0.063 C 
ATOM     30  C   UNL     1      -0.141  -9.790  12.171  0.00  0.00    +0.066 C 
ATOM     31  H   UNL     1       1.812  -8.671  13.540  0.00  0.00    -0.081 HD
BRANCH  28  32
ATOM     32  C   UNL     1       0.983  -7.081  14.514  0.00  0.00    -0.068 C 
ATOM     33  C   UNL     1       2.295  -6.297  14.590  0.00  0.00    -0.015 C 
ATOM     34  C   UNL     1       2.230  -5.307  15.755  0.00  0.00    -0.002 C 
ATOM     35  C   UNL     1       2.016  -6.071  17.062  0.00  0.00    -0.000 C 
ATOM     36  C   UNL     1       0.705  -6.856  16.986  0.00  0.00    -0.002 C 
ATOM     37  C   UNL     1       0.769  -7.846  15.822  0.00  0.00    -0.015 C 
ENDBRANCH  28  32
ENDBRANCH  24  25
ENDBRANCH  23  24
ENDBRANCH  22  23
ENDBRANCH   3  22
TORSDOF 8
