REMARK  Name = ZINC40661786
REMARK  13 active torsions:
REMARK  status: ('A' for Active; 'I' for Inactive)
REMARK    1  A    between atoms: C_1  and  C_2
REMARK    2  A    between atoms: C_2  and  N_3
REMARK    3  A    between atoms: N_3  and  C_4
REMARK    4  A    between atoms: N_3  and  S_6
REMARK    5  A    between atoms: C_4  and  C_5
REMARK    6  A    between atoms: S_6  and  C_9
REMARK    7  A    between atoms: C_12  and  N_15
REMARK    8  A    between atoms: C_17  and  N_32
REMARK    9  A    between atoms: C_18  and  N_22
REMARK   10  A    between atoms: N_22  and  C_23
REMARK   11  A    between atoms: N_22  and  C_25
REMARK   12  A    between atoms: C_23  and  C_24
REMARK   13  A    between atoms: C_29  and  C_31
REMARK                            x       y       z     vdW  Elec       q    Type
REMARK                         _______ _______ _______ _____ _____    ______ ____
ROOT
ATOM      1  N   UNL     1      -4.833   3.889   3.474  0.00  0.00    -0.299 N 
ATOM      2  C   UNL     1      -6.115   4.219   3.050  0.00  0.00    +0.126 A 
ATOM      3  C   UNL     1      -6.706   5.420   3.448  0.00  0.00    +0.104 A 
ATOM      4  C   UNL     1      -7.995   5.702   2.993  0.00  0.00    +0.151 A 
ATOM      5  N   UNL     1      -8.607   4.823   2.203  0.00  0.00    -0.220 NA
ATOM      6  C   UNL     1      -8.014   3.701   1.851  0.00  0.00    +0.200 A 
ATOM      7  N   UNL     1      -6.796   3.398   2.254  0.00  0.00    -0.333 N 
ATOM      8  H   UNL     1      -4.380   4.445   4.127  0.00  0.00    +0.154 HD
ATOM      9  H   UNL     1      -6.391   2.564   1.969  0.00  0.00    +0.168 HD
ENDROOT
BRANCH   1  13
ATOM     10  C   UNL     1      -2.939   0.511   1.942  0.00  0.00    +0.106 A 
ATOM     11  C   UNL     1      -2.817   0.821   3.284  0.00  0.00    +0.030 A 
ATOM     12  C   UNL     1      -3.444   1.940   3.795  0.00  0.00    +0.025 A 
ATOM     13  C   UNL     1      -4.197   2.756   2.960  0.00  0.00    +0.032 A 
ATOM     14  C   UNL     1      -4.317   2.442   1.612  0.00  0.00    +0.025 A 
ATOM     15  C   UNL     1      -3.683   1.324   1.106  0.00  0.00    +0.030 A 
BRANCH  10  16
ATOM     16  S   UNL     1      -2.137  -0.917   1.293  0.00  0.00    +0.061 S 
ATOM     17  O   UNL     1      -2.848  -1.284   0.119  0.00  0.00    -0.153 OA
ATOM     18  O   UNL     1      -1.954  -1.810   2.383  0.00  0.00    -0.153 OA
BRANCH  16  19
ATOM     19  N   UNL     1      -0.625  -0.451   0.804  0.00  0.00    -0.177 NA
BRANCH  19  21
ATOM     20  C   UNL     1       0.689   0.855   2.401  0.00  0.00    +0.022 C 
ATOM     21  C   UNL     1       0.499  -0.513   1.741  0.00  0.00    +0.106 C 
ENDBRANCH  19  21
BRANCH  19  22
ATOM     22  C   UNL     1      -0.412   0.023  -0.566  0.00  0.00    +0.106 C 
ATOM     23  C   UNL     1       0.063  -1.139  -1.440  0.00  0.00    +0.022 C 
ENDBRANCH  19  22
ENDBRANCH  16  19
ENDBRANCH  10  16
ENDBRANCH   1  13
BRANCH   3  24
ATOM     24  N   UNL     1      -6.023   6.318   4.283  0.00  0.00    -0.353 N 
ATOM     25  H   UNL     1      -5.101   6.145   4.530  0.00  0.00    +0.143 HD
ATOM     26  H   UNL     1      -6.473   7.112   4.612  0.00  0.00    +0.143 HD
ENDBRANCH   3  24
BRANCH   4  27
ATOM     27  N   UNL     1      -8.630   6.884   3.360  0.00  0.00    -0.284 N 
BRANCH  27  28
ATOM     28  C   UNL     1      -9.496   6.901   4.457  0.00  0.00    +0.035 A 
ATOM     29  C   UNL     1     -10.223   8.047   4.753  0.00  0.00    +0.023 A 
ATOM     30  C   UNL     1     -11.078   8.060   5.837  0.00  0.00    +0.002 A 
ATOM     31  C   UNL     1     -11.210   6.933   6.629  0.00  0.00    +0.003 A 
ATOM     32  C   UNL     1     -10.488   5.791   6.337  0.00  0.00    -0.049 A 
ATOM     33  C   UNL     1      -9.636   5.769   5.251  0.00  0.00    +0.026 A 
ATOM     34  C   UNL     1     -10.636   4.566   7.202  0.00  0.00    +0.044 C 
ENDBRANCH  27  28
BRANCH  27  35
ATOM     35  C   UNL     1      -8.392   8.111   2.596  0.00  0.00    +0.109 C 
ATOM     36  C   UNL     1      -9.484   8.273   1.537  0.00  0.00    +0.025 C 
ENDBRANCH  27  35
ENDBRANCH   4  27
TORSDOF 9
