REMARK  Name = ZINC12278795
REMARK  9 active torsions:
REMARK  status: ('A' for Active; 'I' for Inactive)
REMARK    1  A    between atoms: C_1  and  C_2
REMARK    2  A    between atoms: C_2  and  O_3
REMARK    3  A    between atoms: O_3  and  C_4
REMARK    4  A    between atoms: C_9  and  N_68
REMARK    5  A    between atoms: C_12  and  N_68
REMARK    6  A    between atoms: N_23  and  C_26
REMARK    7  A    between atoms: C_26  and  C_27
REMARK    8  A    between atoms: C_27  and  C_28
REMARK    9  A    between atoms: C_28  and  C_29
REMARK                            x       y       z     vdW  Elec       q    Type
REMARK                         _______ _______ _______ _____ _____    ______ ____
ROOT
ATOM      1  C   UNL     1      -1.047   0.917  -3.537  0.00  0.00    -0.066 C 
ATOM      2  C   UNL     1      -0.577  -0.215  -4.455  0.00  0.00    -0.011 C 
ATOM      3  C   UNL     1      -1.680  -0.569  -5.452  0.00  0.00    +0.035 C 
ATOM      4  C   UNL     1      -2.139   0.703  -6.159  0.00  0.00    -0.023 A 
ATOM      5  C   UNL     1      -1.871   1.920  -5.628  0.00  0.00    -0.006 A 
ATOM      6  S   UNL     1      -2.577   3.087  -6.764  0.00  0.00    -0.073 S 
ATOM      7  C   UNL     1      -3.227   1.947  -7.943  0.00  0.00    +0.116 A 
ATOM      8  C   UNL     1      -2.871   0.687  -7.412  0.00  0.00    +0.076 A 
ATOM      9  C   UNL     1      -3.268  -0.471  -8.162  0.00  0.00    +0.262 A 
ATOM     10  O   UNL     1      -3.010  -1.603  -7.791  0.00  0.00    -0.267 OA
ATOM     11  N   UNL     1      -3.948  -0.226  -9.307  0.00  0.00    -0.299 N 
ATOM     12  C   UNL     1      -4.245   1.024  -9.736  0.00  0.00    +0.203 A 
ATOM     13  N   UNL     1      -3.899   2.109  -9.079  0.00  0.00    -0.230 NA
ATOM     14  C   UNL     1      -1.137   2.213  -4.356  0.00  0.00    +0.027 C 
ENDROOT
BRANCH   1  15
ATOM     15  N   UNL     1      -0.076   1.091  -2.441  0.00  0.00    +0.383 N 
ATOM     16  H   UNL     1       0.310   0.175  -2.182  0.00  0.00    -0.085 HD
ATOM     17  H   UNL     1       0.684   1.706  -2.755  0.00  0.00    -0.085 HD
BRANCH  15  23
ATOM     18  C   UNL     1      -0.884   1.902   2.835  0.00  0.00    +0.403 C 
ATOM     19  O   UNL     1      -0.087   2.612   3.415  0.00  0.00    -0.226 OA
ATOM     20  N   UNL     1      -1.098   2.068   1.515  0.00  0.00    -0.268 N 
ATOM     21  C   UNL     1      -2.058   1.216   0.799  0.00  0.00    +0.109 C 
ATOM     22  C   UNL     1      -1.355   0.587  -0.407  0.00  0.00    +0.003 C 
ATOM     23  C   UNL     1      -0.734   1.692  -1.265  0.00  0.00    -0.069 C 
ATOM     24  C   UNL     1       0.308   2.454  -0.442  0.00  0.00    +0.003 C 
ATOM     25  C   UNL     1      -0.377   3.105   0.764  0.00  0.00    +0.109 C 
BRANCH  18  26
ATOM     26  O   UNL     1      -1.552   0.948   3.510  0.00  0.00    -0.451 OA
BRANCH  26  28
ATOM     27  C   UNL     1      -2.118  -0.302   5.522  0.00  0.00    +0.048 C 
ATOM     28  C   UNL     1      -1.271   0.826   4.930  0.00  0.00    +0.230 C 
ENDBRANCH  26  28
ENDBRANCH  18  26
ENDBRANCH  15  23
ENDBRANCH   1  15
BRANCH  11  29
ATOM     29  C   UNL     1      -4.382  -1.365 -10.119  0.00  0.00    +0.126 C 
BRANCH  29  30
ATOM     30  C   UNL     1      -3.289  -1.716 -11.130  0.00  0.00    +0.026 C 
BRANCH  30  31
ATOM     31  C   UNL     1      -3.742  -2.905 -11.979  0.00  0.00    +0.037 C 
BRANCH  31  32
ATOM     32  C   UNL     1      -2.665  -3.251 -12.975  0.00  0.00    -0.047 A 
ATOM     33  C   UNL     1      -2.665  -2.662 -14.225  0.00  0.00    +0.003 A 
ATOM     34  C   UNL     1      -1.674  -2.976 -15.137  0.00  0.00    +0.000 A 
ATOM     35  C   UNL     1      -0.689  -3.886 -14.802  0.00  0.00    +0.000 A 
ATOM     36  C   UNL     1      -0.693  -4.480 -13.553  0.00  0.00    +0.000 A 
ATOM     37  C   UNL     1      -1.680  -4.162 -12.639  0.00  0.00    +0.003 A 
ENDBRANCH  31  32
ENDBRANCH  30  31
ENDBRANCH  29  30
ENDBRANCH  11  29
TORSDOF 8
