REMARK  Name = ZINC24985068
REMARK  9 active torsions:
REMARK  status: ('A' for Active; 'I' for Inactive)
REMARK    1  A    between atoms: C_1  and  C_2
REMARK    2  A    between atoms: C_2  and  C_4
REMARK    3  A    between atoms: C_2  and  N_14
REMARK    4  A    between atoms: C_7  and  S_10
REMARK    5  A    between atoms: S_10  and  C_13
REMARK    6  A    between atoms: N_14  and  C_15
REMARK    7  A    between atoms: C_15  and  C_16
REMARK    8  A    between atoms: C_19  and  C_33
REMARK    9  A    between atoms: C_22  and  C_24
REMARK                            x       y       z     vdW  Elec       q    Type
REMARK                         _______ _______ _______ _____ _____    ______ ____
ROOT
ATOM      1  C   UNL     1      -3.311  -1.115   1.354  0.00  0.00    +0.218 C 
ATOM      2  O   UNL     1      -3.831  -1.396   0.295  0.00  0.00    -0.276 OA
ATOM      3  N   UNL     1      -3.996  -1.271   2.504  0.00  0.00    -0.184 N 
ATOM      4  C   UNL     1      -5.377  -1.765   2.617  0.00  0.00    +0.173 C 
ATOM      5  C   UNL     1      -5.647  -1.742   4.134  0.00  0.00    +0.093 C 
ATOM      6  C   UNL     1      -4.360  -1.216   4.727  0.00  0.00    +0.104 C 
ATOM      7  N   UNL     1      -3.513  -0.984   3.780  0.00  0.00    -0.178 NA
ENDROOT
BRANCH   6   8
ATOM      8  C   UNL     1      -4.110  -1.002   6.156  0.00  0.00    +0.152 A 
ATOM      9  C   UNL     1      -2.950  -0.534   6.686  0.00  0.00    +0.059 A 
ATOM     10  C   UNL     1      -3.157  -0.483   8.134  0.00  0.00    +0.021 A 
ATOM     11  C   UNL     1      -2.365  -0.098   9.218  0.00  0.00    +0.011 A 
ATOM     12  C   UNL     1      -2.868  -0.176  10.486  0.00  0.00    +0.001 A 
ATOM     13  C   UNL     1      -4.160  -0.635  10.703  0.00  0.00    +0.004 A 
ATOM     14  C   UNL     1      -4.957  -1.019   9.646  0.00  0.00    +0.047 A 
ATOM     15  C   UNL     1      -4.468  -0.949   8.348  0.00  0.00    +0.136 A 
ATOM     16  O   UNL     1      -4.996  -1.246   7.143  0.00  0.00    -0.454 OA
ENDBRANCH   6   8
BRANCH   4  17
ATOM     17  C   UNL     1      -5.482  -3.171   2.083  0.00  0.00    +0.128 A 
ATOM     18  C   UNL     1      -6.509  -3.666   1.369  0.00  0.00    +0.046 A 
ATOM     19  C   UNL     1      -6.193  -5.013   1.079  0.00  0.00    +0.041 A 
ATOM     20  C   UNL     1      -4.992  -5.261   1.633  0.00  0.00    +0.195 A 
ATOM     21  O   UNL     1      -4.564  -4.139   2.235  0.00  0.00    -0.466 OA
ENDBRANCH   4  17
BRANCH   1  22
ATOM     22  C   UNL     1      -1.898  -0.590   1.383  0.00  0.00    +0.018 C 
BRANCH  22  23
ATOM     23  N   UNL     1      -1.376  -0.512   0.012  0.00  0.00    +0.389 N 
ATOM     24  H   UNL     1      -2.020   0.161  -0.573  0.00  0.00    -0.084 HD
ATOM     25  H   UNL     1      -1.399  -1.519  -0.431  0.00  0.00    -0.084 HD
BRANCH  23  27
ATOM     26  C   UNL     1      -0.019   1.526   0.010  0.00  0.00    -0.009 C 
ATOM     27  C   UNL     1       0.002  -0.004   0.002  0.00  0.00    -0.043 C 
BRANCH  27  28
ATOM     28  C   UNL     1       0.707  -0.490  -1.238  0.00  0.00    -0.062 A 
ATOM     29  C   UNL     1       0.034  -0.532  -2.444  0.00  0.00    +0.004 A 
ATOM     30  C   UNL     1       0.683  -0.974  -3.583  0.00  0.00    +0.027 A 
ATOM     31  C   UNL     1       2.001  -1.382  -3.512  0.00  0.00    +0.088 A 
ATOM     32  C   UNL     1       2.673  -1.345  -2.305  0.00  0.00    +0.027 A 
ATOM     33  C   UNL     1       2.026  -0.899  -1.167  0.00  0.00    +0.004 A 
BRANCH  31  34
ATOM     34  S   UNL     1       2.826  -1.950  -4.962  0.00  0.00    -0.006 S 
ATOM     35  O   UNL     1       2.151  -1.312  -6.037  0.00  0.00    -0.170 OA
ATOM     36  O   UNL     1       4.203  -1.696  -4.719  0.00  0.00    -0.170 OA
ATOM     37  C   UNL     1       2.518  -3.737  -5.003  0.00  0.00    +0.200 C 
ENDBRANCH  31  34
ENDBRANCH  27  28
ENDBRANCH  23  27
ENDBRANCH  22  23
ENDBRANCH   1  22
TORSDOF 7
