REMARK  Name = ZINC61172926
REMARK  5 active torsions:
REMARK  status: ('A' for Active; 'I' for Inactive)
REMARK    1  A    between atoms: C_1  and  C_2
REMARK    2  A    between atoms: C_2  and  C_3
REMARK    3  A    between atoms: C_2  and  O_4
REMARK    4  A    between atoms: O_4  and  C_5
REMARK    5  A    between atoms: C_10  and  C_11
REMARK                            x       y       z     vdW  Elec       q    Type
REMARK                         _______ _______ _______ _____ _____    ______ ____
ROOT
ATOM      1  C   UNL     1      -3.855  -1.319   0.061  0.00  0.00    +0.212 C 
ATOM      2  N   UNL     1      -4.933  -2.265   0.403  0.00  0.00    -0.294 N 
ATOM      3  C   UNL     1      -5.802  -2.650  -0.608  0.00  0.00    +0.159 C 
ATOM      4  N   UNL     1      -6.398  -1.621  -1.339  0.00  0.00    -0.259 N 
ATOM      5  C   UNL     1      -5.603  -0.495  -1.532  0.00  0.00    +0.205 A 
ATOM      6  N   UNL     1      -4.404  -0.330  -0.874  0.00  0.00    -0.288 N 
ATOM      7  C   UNL     1      -3.888   0.870  -1.270  0.00  0.00    +0.072 A 
ATOM      8  C   UNL     1      -2.725   1.554  -0.939  0.00  0.00    +0.028 A 
ATOM      9  C   UNL     1      -2.518   2.780  -1.551  0.00  0.00    +0.002 A 
ATOM     10  C   UNL     1      -3.422   3.312  -2.454  0.00  0.00    +0.002 A 
ATOM     11  C   UNL     1      -4.587   2.651  -2.800  0.00  0.00    +0.030 A 
ATOM     12  C   UNL     1      -4.817   1.411  -2.195  0.00  0.00    +0.091 A 
ATOM     13  N   UNL     1      -5.832   0.530  -2.307  0.00  0.00    -0.214 NA
ATOM     14  N   UNL     1      -6.048  -3.904  -0.861  0.00  0.00    -0.375 N 
ATOM     15  H   UNL     1      -5.032  -2.607   1.305  0.00  0.00    +0.151 HD
ATOM     16  H   UNL     1      -5.619  -4.598  -0.337  0.00  0.00    +0.158 HD
ATOM     17  H   UNL     1      -7.301  -1.686  -1.688  0.00  0.00    +0.158 HD
ATOM     18  H   UNL     1      -6.661  -4.143  -1.574  0.00  0.00    +0.158 HD
ENDROOT
BRANCH   1  24
ATOM     19  C   UNL     1      -1.824  -2.784   0.189  0.00  0.00    +0.128 A 
ATOM     20  C   UNL     1      -0.778  -3.468  -0.414  0.00  0.00    +0.046 A 
ATOM     21  C   UNL     1      -0.622  -3.420  -1.785  0.00  0.00    +0.004 A 
ATOM     22  C   UNL     1      -1.508  -2.691  -2.558  0.00  0.00    +0.001 A 
ATOM     23  C   UNL     1      -2.551  -2.009  -1.960  0.00  0.00    +0.011 A 
ATOM     24  C   UNL     1      -2.714  -2.058  -0.589  0.00  0.00    +0.035 A 
BRANCH  19  25
ATOM     25  O   UNL     1      -1.980  -2.830   1.538  0.00  0.00    -0.489 OA
BRANCH  25  27
ATOM     26  C   UNL     1      -0.803  -2.826   3.649  0.00  0.00    +0.051 C 
ATOM     27  C   UNL     1      -0.965  -3.502   2.286  0.00  0.00    +0.167 C 
ATOM     28  C   UNL     1      -1.363  -4.965   2.486  0.00  0.00    +0.051 C 
ENDBRANCH  25  27
ENDBRANCH  19  25
ENDBRANCH   1  24
TORSDOF 3
