REMARK  Name = ZINC61690214
REMARK  10 active torsions:
REMARK  status: ('A' for Active; 'I' for Inactive)
REMARK    1  A    between atoms: C_1  and  C_2
REMARK    2  A    between atoms: C_2  and  N_3
REMARK    3  A    between atoms: N_3  and  C_4
REMARK    4  A    between atoms: C_4  and  C_5
REMARK    5  A    between atoms: C_5  and  C_6
REMARK    6  A    between atoms: C_6  and  N_7
REMARK    7  A    between atoms: N_7  and  C_8
REMARK    8  A    between atoms: C_8  and  C_9
REMARK    9  A    between atoms: C_8  and  C_10
REMARK   10  A    between atoms: C_8  and  C_18
REMARK                            x       y       z     vdW  Elec       q    Type
REMARK                         _______ _______ _______ _____ _____    ______ ____
ROOT
ATOM      1  C   UNL     1      -4.132  -6.013  -0.112  0.00  0.00    +0.058 C 
ATOM      2  C   UNL     1      -3.385  -6.460  -1.370  0.00  0.00    +0.006 C 
ENDROOT
BRANCH   1   3
ATOM      3  C   UNL     1      -5.565  -6.472  -0.188  0.00  0.00    -0.047 A 
ATOM      4  C   UNL     1      -6.590  -5.544  -0.165  0.00  0.00    +0.005 A 
ATOM      5  C   UNL     1      -7.905  -5.963  -0.235  0.00  0.00    +0.040 A 
ATOM      6  C   UNL     1      -8.197  -7.313  -0.329  0.00  0.00    +0.137 A 
ATOM      7  C   UNL     1      -7.169  -8.242  -0.352  0.00  0.00    +0.053 A 
ATOM      8  C   UNL     1      -5.854  -7.820  -0.287  0.00  0.00    +0.021 A 
ATOM      9 BR   UNL     1      -7.565 -10.087  -0.480  0.00  0.00    -0.047 Br
ATOM     10  F   UNL     1      -9.482  -7.724  -0.397  0.00  0.00    -0.204 F 
ENDBRANCH   1   3
BRANCH   1  11
ATOM     11  N   UNL     1      -4.092  -4.547  -0.013  0.00  0.00    +0.392 N 
ATOM     12  H   UNL     1      -4.505  -4.258   0.861  0.00  0.00    -0.084 HD
ATOM     13  H   UNL     1      -4.609  -4.144  -0.779  0.00  0.00    -0.084 HD
BRANCH  11  14
ATOM     14  C   UNL     1      -2.697  -4.091  -0.070  0.00  0.00    -0.082 C 
BRANCH  14  15
ATOM     15  C   UNL     1      -2.659  -2.562  -0.039  0.00  0.00    -0.038 C 
BRANCH  15  16
ATOM     16  C   UNL     1      -1.206  -2.086  -0.098  0.00  0.00    -0.084 C 
BRANCH  16  17
ATOM     17  N   UNL     1      -1.169  -0.618  -0.068  0.00  0.00    +0.379 N 
ATOM     18  H   UNL     1      -1.597  -0.288   0.784  0.00  0.00    -0.086 HD
ATOM     19  H   UNL     1      -1.676  -0.253  -0.861  0.00  0.00    -0.086 HD
BRANCH  17  21
ATOM     20  C   UNL     1       0.264   1.368  -0.094  0.00  0.00    -0.017 C 
ATOM     21  C   UNL     1       0.226  -0.161  -0.126  0.00  0.00    -0.086 C 
ENDBRANCH  17  21
ENDBRANCH  16  17
ENDBRANCH  15  16
ENDBRANCH  14  15
ENDBRANCH  11  14
ENDBRANCH   1  11
BRANCH   1  22
ATOM     22  C   UNL     1      -3.475  -6.616   1.103  0.00  0.00    +0.349 C 
ATOM     23  O   UNL     1      -3.142  -5.902   2.034  0.00  0.00    -0.248 OA
ATOM     24  O   UNL     1      -3.277  -7.818   1.155  0.00  0.00    -0.248 OA
ENDBRANCH   1  22
TORSDOF 8
