REMARK  Name = ZINC20079685
REMARK  4 active torsions:
REMARK  status: ('A' for Active; 'I' for Inactive)
REMARK    1  A    between atoms: C_1  and  C_2
REMARK    2  A    between atoms: C_5  and  C_9
REMARK    3  A    between atoms: C_6  and  O_8
REMARK    4  A    between atoms: N_18  and  C_21
REMARK                            x       y       z     vdW  Elec       q    Type
REMARK                         _______ _______ _______ _____ _____    ______ ____
ROOT
ATOM      1  C   UNL     1       1.147   1.522  -2.508  0.00  0.00    +0.194 C 
ATOM      2  N   UNL     1       1.696   2.390  -3.565  0.00  0.00    -0.316 N 
ATOM      3  C   UNL     1       1.174   3.655  -3.656  0.00  0.00    +0.080 A 
ATOM      4  C   UNL     1      -0.101   3.991  -3.174  0.00  0.00    +0.068 A 
ATOM      5  C   UNL     1      -0.501   5.375  -3.360  0.00  0.00    -0.027 A 
ATOM      6  C   UNL     1       0.406   6.171  -3.973  0.00  0.00    -0.021 A 
ATOM      7  S   UNL     1       1.788   5.113  -4.309  0.00  0.00    -0.080 S 
ATOM      8  C   UNL     1       0.246   7.625  -4.287  0.00  0.00    -0.036 C 
ATOM      9  N   UNL     1      -1.181   7.973  -4.150  0.00  0.00    +0.381 N 
ATOM     10  C   UNL     1      -1.715   7.477  -2.874  0.00  0.00    -0.074 C 
ATOM     11  C   UNL     1      -1.840   5.951  -2.913  0.00  0.00    +0.018 C 
ATOM     12  C   UNL     1      -1.383   9.422  -4.278  0.00  0.00    -0.096 C 
ATOM     13  C   UNL     1      -0.896   2.918  -2.534  0.00  0.00    +0.248 C 
ATOM     14  O   UNL     1      -2.050   3.101  -2.193  0.00  0.00    -0.270 OA
ATOM     15  N   UNL     1      -0.288   1.728  -2.344  0.00  0.00    -0.289 N 
ATOM     16  H   UNL     1       2.484   2.013  -4.233  0.00  0.00    +0.149 HD
ATOM     17  H   UNL     1      -0.934   0.888  -2.050  0.00  0.00    +0.151 HD
ATOM     18  H   UNL     1      -1.736   7.485  -4.964  0.00  0.00    -0.082 HD
ENDROOT
BRANCH   1  23
ATOM     19  C   UNL     1       3.818   2.705   2.483  0.00  0.00    +0.044 C 
ATOM     20  C   UNL     1       3.119   2.396   1.183  0.00  0.00    -0.047 A 
ATOM     21  C   UNL     1       3.735   2.692  -0.019  0.00  0.00    +0.004 A 
ATOM     22  C   UNL     1       3.096   2.409  -1.212  0.00  0.00    +0.011 A 
ATOM     23  C   UNL     1       1.842   1.830  -1.206  0.00  0.00    +0.032 A 
ATOM     24  C   UNL     1       1.223   1.532  -0.001  0.00  0.00    +0.124 A 
ATOM     25  C   UNL     1       1.863   1.822   1.195  0.00  0.00    +0.049 A 
BRANCH  24  26
ATOM     26  O   UNL     1      -0.011   0.963   0.007  0.00  0.00    -0.506 OA
ATOM     27  H   UNL     1      -0.501   0.727   0.963  0.00  0.00    +0.292 HD
ENDBRANCH  24  26
ENDBRANCH   1  23
TORSDOF 2
