REMARK  Name = ZINC67081753
REMARK  8 active torsions:
REMARK  status: ('A' for Active; 'I' for Inactive)
REMARK    1  A    between atoms: C_1  and  C_2
REMARK    2  A    between atoms: C_6  and  C_7
REMARK    3  A    between atoms: N_9  and  N_10
REMARK    4  A    between atoms: N_13  and  C_14
REMARK    5  A    between atoms: C_14  and  C_15
REMARK    6  A    between atoms: C_15  and  C_17
REMARK    7  A    between atoms: C_15  and  N_23
REMARK    8  A    between atoms: C_20  and  C_22
REMARK                            x       y       z     vdW  Elec       q    Type
REMARK                         _______ _______ _______ _____ _____    ______ ____
ROOT
ATOM      1  N   UNL     1      -2.330  -2.426   9.041  0.00  0.00    -0.218 N 
ATOM      2  C   UNL     1      -1.180  -2.635   8.371  0.00  0.00    +0.316 C 
ATOM      3  O   UNL     1      -0.283  -1.816   8.432  0.00  0.00    -0.251 OA
ATOM      4  N   UNL     1      -1.023  -3.752   7.633  0.00  0.00    -0.299 N 
ATOM      5  H   UNL     1      -2.443  -1.622   9.571  0.00  0.00    +0.174 HD
ATOM      6  H   UNL     1      -1.738  -4.406   7.585  0.00  0.00    +0.150 HD
ENDROOT
BRANCH   1   9
ATOM      7  C   UNL     1      -4.514  -3.160   9.640  0.00  0.00    +0.267 C 
ATOM      8  O   UNL     1      -4.656  -2.151  10.306  0.00  0.00    -0.268 OA
ATOM      9  N   UNL     1      -3.364  -3.369   8.970  0.00  0.00    -0.229 N 
ATOM     10  H   UNL     1      -3.251  -4.173   8.440  0.00  0.00    +0.173 HD
BRANCH   7  16
ATOM     11  C   UNL     1      -7.283  -2.986  11.056  0.00  0.00    +0.045 C 
ATOM     12  C   UNL     1      -6.843  -4.124  10.172  0.00  0.00    -0.031 A 
ATOM     13  C   UNL     1      -7.654  -5.202   9.909  0.00  0.00    +0.011 A 
ATOM     14  C   UNL     1      -7.194  -6.191   9.104  0.00  0.00    +0.046 A 
ATOM     15  S   UNL     1      -5.648  -5.691   8.678  0.00  0.00    -0.092 S 
ATOM     16  C   UNL     1      -5.595  -4.147   9.567  0.00  0.00    +0.078 A 
ENDBRANCH   7  16
ENDBRANCH   1   9
BRANCH   4  17
ATOM     17  C   UNL     1       0.228  -3.980   6.905  0.00  0.00    +0.098 C 
BRANCH  17  18
ATOM     18  C   UNL     1       0.199  -5.369   6.264  0.00  0.00    +0.016 C 
BRANCH  18  19
ATOM     19  C   UNL     1       0.181  -6.420   7.344  0.00  0.00    +0.093 A 
ATOM     20  C   UNL     1      -0.905  -7.088   7.774  0.00  0.00    +0.043 A 
ATOM     21  C   UNL     1      -0.468  -7.971   8.788  0.00  0.00    +0.044 A 
ATOM     22  C   UNL     1       0.859  -7.790   8.916  0.00  0.00    +0.102 A 
ATOM     23  O   UNL     1       1.248  -6.854   8.035  0.00  0.00    -0.466 OA
ATOM     24  C   UNL     1       1.758  -8.519   9.882  0.00  0.00    +0.086 C 
ENDBRANCH  18  19
BRANCH  18  25
ATOM     25  N   UNL     1       1.393  -5.547   5.427  0.00  0.00    +0.387 N 
ATOM     26  C   UNL     1       1.378  -6.889   4.792  0.00  0.00    -0.078 C 
ATOM     27  C   UNL     1       2.317  -6.715   3.572  0.00  0.00    -0.020 C 
ATOM     28  C   UNL     1       1.996  -5.281   3.090  0.00  0.00    -0.020 C 
ATOM     29  C   UNL     1       1.385  -4.573   4.314  0.00  0.00    -0.078 C 
ATOM     30  H   UNL     1       2.228  -5.433   5.982  0.00  0.00    -0.081 HD
ENDBRANCH  18  25
ENDBRANCH  17  18
ENDBRANCH   4  17
TORSDOF 6
