REMARK  Name = ZINC22426693
REMARK  12 active torsions:
REMARK  status: ('A' for Active; 'I' for Inactive)
REMARK    1  A    between atoms: C_1  and  C_2
REMARK    2  A    between atoms: C_2  and  C_38
REMARK    3  A    between atoms: C_4  and  N_15
REMARK    4  A    between atoms: C_8  and  O_13
REMARK    5  A    between atoms: O_13  and  C_14
REMARK    6  A    between atoms: C_16  and  C_18
REMARK    7  A    between atoms: C_18  and  N_19
REMARK    8  A    between atoms: N_19  and  C_20
REMARK    9  A    between atoms: N_19  and  S_27
REMARK   10  A    between atoms: S_27  and  C_30
REMARK   11  A    between atoms: C_33  and  O_36
REMARK   12  A    between atoms: O_36  and  C_37
REMARK                            x       y       z     vdW  Elec       q    Type
REMARK                         _______ _______ _______ _____ _____    ______ ____
ROOT
ATOM      1  C   UNL     1      -3.929  -0.346  -1.409  0.00  0.00    +0.227 C 
ENDROOT
BRANCH   1   3
ATOM      2  N   UNL     1      -2.273   1.415  -0.884  0.00  0.00    -0.307 N 
ATOM      3  C   UNL     1      -2.978   0.345  -0.466  0.00  0.00    +0.233 C 
ATOM      4  O   UNL     1      -2.848  -0.061   0.669  0.00  0.00    -0.274 OA
ATOM      5  H   UNL     1      -2.391   1.783  -1.914  0.00  0.00    +0.149 HD
BRANCH   2   9
ATOM      6  C   UNL     1      -0.229   3.963   1.880  0.00  0.00    +0.055 C 
ATOM      7  C   UNL     1       0.010   4.138   0.379  0.00  0.00    +0.107 C 
ATOM      8  C   UNL     1      -1.167   3.543  -0.405  0.00  0.00    +0.074 C 
ATOM      9  C   UNL     1      -1.349   2.087   0.032  0.00  0.00    +0.111 C 
ATOM     10  C   UNL     1      -0.017   1.381   0.010  0.00  0.00    +0.018 A 
ATOM     11  C   UNL     1       0.002  -0.004   0.002  0.00  0.00    +0.054 A 
ATOM     12  C   UNL     1       1.208  -0.686  -0.010  0.00  0.00    +0.121 A 
ATOM     13  C   UNL     1       2.401   0.021  -0.014  0.00  0.00    +0.049 A 
ATOM     14  C   UNL     1       2.384   1.400  -0.007  0.00  0.00    +0.049 A 
ATOM     15  C   UNL     1       1.173   2.086   0.002  0.00  0.00    +0.126 A 
ATOM     16  O   UNL     1       1.200   3.446  -0.002  0.00  0.00    -0.486 OA
ATOM     17  C   UNL     1       0.151   5.625   0.049  0.00  0.00    +0.055 C 
BRANCH  12  18
ATOM     18  O   UNL     1       1.221  -2.046  -0.018  0.00  0.00    -0.495 OA
ATOM     19  C   UNL     1       2.501  -2.682  -0.030  0.00  0.00    +0.277 C 
ENDBRANCH  12  18
ENDBRANCH   2   9
ENDBRANCH   1   3
BRANCH   1  20
ATOM     20  N   UNL     1      -4.568  -1.470  -0.721  0.00  0.00    -0.191 N 
BRANCH  20  21
ATOM     21  C   UNL     1      -3.929  -2.713  -0.667  0.00  0.00    +0.087 A 
ATOM     22  C   UNL     1      -2.990  -2.970   0.322  0.00  0.00    +0.027 A 
ATOM     23  C   UNL     1      -2.364  -4.200   0.376  0.00  0.00    +0.002 A 
ATOM     24  C   UNL     1      -2.663  -5.172  -0.561  0.00  0.00    +0.003 A 
ATOM     25  C   UNL     1      -3.594  -4.919  -1.552  0.00  0.00    +0.040 A 
ATOM     26  C   UNL     1      -4.228  -3.692  -1.608  0.00  0.00    +0.146 A 
ATOM     27  F   UNL     1      -5.138  -3.444  -2.576  0.00  0.00    -0.203 F 
ENDBRANCH  20  21
BRANCH  20  28
ATOM     28  S   UNL     1      -6.048  -1.269  -0.005  0.00  0.00    +0.075 S 
ATOM     29  O   UNL     1      -6.149  -2.263   1.005  0.00  0.00    -0.150 OA
ATOM     30  O   UNL     1      -6.179   0.118   0.274  0.00  0.00    -0.150 OA
BRANCH  28  31
ATOM     31  C   UNL     1      -7.269  -1.656  -1.216  0.00  0.00    +0.109 A 
ATOM     32  C   UNL     1      -7.765  -0.661  -2.038  0.00  0.00    +0.032 A 
ATOM     33  C   UNL     1      -8.717  -0.963  -2.992  0.00  0.00    +0.047 A 
ATOM     34  C   UNL     1      -9.184  -2.263  -3.117  0.00  0.00    +0.120 A 
ATOM     35  C   UNL     1      -8.689  -3.258  -2.287  0.00  0.00    +0.047 A 
ATOM     36  C   UNL     1      -7.732  -2.953  -1.339  0.00  0.00    +0.032 A 
BRANCH  34  37
ATOM     37  O   UNL     1     -10.125  -2.561  -4.051  0.00  0.00    -0.495 OA
ATOM     38  C   UNL     1     -10.590  -1.487  -4.871  0.00  0.00    +0.277 C 
ENDBRANCH  34  37
ENDBRANCH  28  31
ENDBRANCH  20  28
ENDBRANCH   1  20
TORSDOF 8
