REMARK  Name = ZINC19898356
REMARK  5 active torsions:
REMARK  status: ('A' for Active; 'I' for Inactive)
REMARK    1  A    between atoms: C_6  and  C_7
REMARK    2  A    between atoms: C_9  and  C_20
REMARK    3  A    between atoms: C_11  and  C_13
REMARK    4  A    between atoms: N_22  and  N_23
REMARK    5  A    between atoms: C_24  and  C_25
REMARK                            x       y       z     vdW  Elec       q    Type
REMARK                         _______ _______ _______ _____ _____    ______ ____
ROOT
ATOM      1  C   UNL     1      -1.339   3.782  -3.450  0.00  0.00    +0.072 A 
ATOM      2  C   UNL     1      -0.413   3.069  -2.690  0.00  0.00    +0.041 A 
ATOM      3  C   UNL     1      -0.680   1.736  -2.369  0.00  0.00    +0.042 A 
ATOM      4  C   UNL     1      -1.877   1.172  -2.820  0.00  0.00    +0.041 A 
ATOM      5  C   UNL     1      -2.753   1.952  -3.571  0.00  0.00    +0.072 A 
ATOM      6  N   UNL     1      -2.463   3.213  -3.859  0.00  0.00    -0.247 NA
ENDROOT
BRANCH   1  12
ATOM      7  C   UNL     1       0.159   5.775  -3.465  0.00  0.00    +0.013 A 
ATOM      8  C   UNL     1       0.412   7.090  -3.798  0.00  0.00    +0.039 A 
ATOM      9  C   UNL     1      -0.551   7.838  -4.454  0.00  0.00    +0.123 A 
ATOM     10  C   UNL     1      -1.771   7.269  -4.784  0.00  0.00    +0.039 A 
ATOM     11  C   UNL     1      -2.030   5.954  -4.460  0.00  0.00    +0.013 A 
ATOM     12  C   UNL     1      -1.064   5.197  -3.800  0.00  0.00    +0.001 A 
ATOM     13  F   UNL     1      -0.301   9.127  -4.773  0.00  0.00    -0.205 F 
ENDBRANCH   1  12
BRANCH   5  14
ATOM     14  C   UNL     1      -4.027   1.365  -4.055  0.00  0.00    +0.000 A 
ATOM     15  C   UNL     1      -4.340   0.038  -3.763  0.00  0.00    +0.011 A 
ATOM     16  C   UNL     1      -5.527  -0.502  -4.212  0.00  0.00    +0.020 A 
ATOM     17  C   UNL     1      -6.403   0.268  -4.959  0.00  0.00    +0.041 A 
ATOM     18  C   UNL     1      -6.094   1.584  -5.255  0.00  0.00    +0.020 A 
ATOM     19  C   UNL     1      -4.911   2.135  -4.807  0.00  0.00    +0.011 A 
ATOM     20 CL   UNL     1      -7.893  -0.420  -5.526  0.00  0.00    -0.084 Cl
ENDBRANCH   5  14
BRANCH   3  21
ATOM     21  C   UNL     1       0.278   0.941  -1.568  0.00  0.00    +0.263 C 
ATOM     22  O   UNL     1       0.074  -0.241  -1.373  0.00  0.00    -0.268 OA
ATOM     23  N   UNL     1       1.380   1.528  -1.059  0.00  0.00    -0.203 N 
ATOM     24  H   UNL     1       1.608   2.576  -1.303  0.00  0.00    +0.178 HD
BRANCH  23  25
ATOM     25  N   UNL     1       2.235   0.802  -0.219  0.00  0.00    -0.187 NA
ATOM     26  C   UNL     1       3.233   1.397   0.361  0.00  0.00    +0.145 C 
BRANCH  26  27
ATOM     27  C   UNL     1       3.343   2.865   0.316  0.00  0.00    +0.077 A 
ATOM     28  C   UNL     1       2.229   3.644   0.203  0.00  0.00    +0.209 A 
ATOM     29  O   UNL     1       2.287   4.976   0.164  0.00  0.00    -0.462 OA
ATOM     30  C   UNL     1       3.441   5.671   0.220  0.00  0.00    +0.139 A 
ATOM     31  C   UNL     1       3.431   7.061   0.168  0.00  0.00    +0.050 A 
ATOM     32  C   UNL     1       4.615   7.762   0.226  0.00  0.00    +0.042 A 
ATOM     33  C   UNL     1       5.830   7.096   0.337  0.00  0.00    +0.124 A 
ATOM     34  C   UNL     1       5.862   5.718   0.391  0.00  0.00    +0.053 A 
ATOM     35  C   UNL     1       4.669   4.999   0.332  0.00  0.00    +0.067 A 
ATOM     36  C   UNL     1       4.660   3.524   0.385  0.00  0.00    +0.201 A 
ATOM     37  O   UNL     1       5.692   2.882   0.483  0.00  0.00    -0.286 OA
ATOM     38  F   UNL     1       6.981   7.800   0.393  0.00  0.00    -0.205 F 
ENDBRANCH  26  27
ENDBRANCH  23  25
ENDBRANCH   3  21
TORSDOF 5
