REMARK  Name = ZINC63546986
REMARK  7 active torsions:
REMARK  status: ('A' for Active; 'I' for Inactive)
REMARK    1  A    between atoms: C_1  and  C_2
REMARK    2  A    between atoms: C_8  and  C_11
REMARK    3  A    between atoms: C_11  and  C_12
REMARK    4  A    between atoms: C_12  and  N_13
REMARK    5  A    between atoms: C_14  and  C_16
REMARK    6  A    between atoms: C_21  and  C_30
REMARK    7  A    between atoms: C_23  and  C_26
REMARK                            x       y       z     vdW  Elec       q    Type
REMARK                         _______ _______ _______ _____ _____    ______ ____
ROOT
ATOM      1  C   UNL     1      -2.535  -2.344   7.750  0.00  0.00    +0.125 C 
ATOM      2  C   UNL     1      -3.631  -2.328   8.517  0.00  0.00    +0.089 C 
ATOM      3  C   UNL     1      -3.187  -2.021   9.927  0.00  0.00    +0.253 C 
ATOM      4  N   UNL     1      -3.649  -3.049  10.862  0.00  0.00    -0.253 NA
ATOM      5  C   UNL     1      -2.859  -3.464  11.826  0.00  0.00    +0.077 C 
ATOM      6  C   UNL     1      -1.506  -2.923  12.009  0.00  0.00    +0.057 C 
ATOM      7  C   UNL     1      -0.929  -2.247  10.982  0.00  0.00    +0.132 C 
ATOM      8  N   UNL     1      -1.712  -2.099   9.857  0.00  0.00    -0.219 N 
ATOM      9  N   UNL     1      -1.384  -2.093   8.508  0.00  0.00    -0.256 N 
ATOM     10 CL   UNL     1      -5.261  -2.607   7.989  0.00  0.00    -0.082 Cl
ATOM     11  H   UNL     1      -0.497  -1.938   8.148  0.00  0.00    +0.170 HD
ENDROOT
BRANCH   5  12
ATOM     12  C   UNL     1      -3.344  -4.503  12.752  0.00  0.00    +0.037 A 
ATOM     13  C   UNL     1      -4.555  -5.149  12.768  0.00  0.00    +0.017 A 
ATOM     14  C   UNL     1      -4.728  -6.085  13.764  0.00  0.00    +0.008 A 
ATOM     15  C   UNL     1      -3.719  -6.303  14.641  0.00  0.00    +0.046 A 
ATOM     16  S   UNL     1      -2.508  -5.253  14.136  0.00  0.00    -0.095 S 
ENDBRANCH   5  12
BRANCH   1  18
ATOM     17  N   UNL     1      -1.377  -2.600   5.613  0.00  0.00    -0.310 N 
ATOM     18  C   UNL     1      -2.537  -2.599   6.299  0.00  0.00    +0.261 C 
ATOM     19  O   UNL     1      -3.586  -2.808   5.720  0.00  0.00    -0.269 OA
ATOM     20  H   UNL     1      -0.540  -2.433   6.075  0.00  0.00    +0.149 HD
BRANCH  17  21
ATOM     21  C   UNL     1      -1.379  -2.854   4.170  0.00  0.00    +0.109 C 
BRANCH  21  22
ATOM     22  C   UNL     1       0.055  -2.799   3.641  0.00  0.00    +0.052 C 
BRANCH  22  30
ATOM     23  C   UNL     1      -0.018   1.503   0.010  0.00  0.00    +0.044 C 
ATOM     24  C   UNL     1       0.002  -0.004   0.002  0.00  0.00    -0.050 A 
ATOM     25  C   UNL     1       0.005  -0.680  -1.226  0.00  0.00    +0.005 A 
ATOM     26  C   UNL     1       0.023  -2.026  -1.317  0.00  0.00    +0.026 A 
ATOM     27  C   UNL     1       0.039  -2.826  -0.141  0.00  0.00    +0.043 A 
ATOM     28  N   UNL     1       0.057  -4.126   0.030  0.00  0.00    -0.380 N 
ATOM     29  C   UNL     1       0.067  -4.408   1.470  0.00  0.00    +0.144 C 
ATOM     30  C   UNL     1       0.052  -3.060   2.156  0.00  0.00    -0.040 C 
ATOM     31  C   UNL     1       0.036  -2.137   1.168  0.00  0.00    -0.001 A 
ATOM     32  C   UNL     1       0.022  -0.669   1.180  0.00  0.00    +0.013 A 
ATOM     33  H   UNL     1       0.062  -4.790  -0.677  0.00  0.00    +0.160 HD
ENDBRANCH  22  30
ENDBRANCH  21  22
ENDBRANCH  17  21
ENDBRANCH   1  18
BRANCH   7  34
ATOM     34  C   UNL     1       0.465  -1.680  11.065  0.00  0.00    +0.432 C 
ATOM     35  F   UNL     1       1.011  -1.967  12.320  0.00  0.00    -0.165 F 
ATOM     36  F   UNL     1       1.262  -2.253  10.068  0.00  0.00    -0.165 F 
ATOM     37  F   UNL     1       0.416  -0.294  10.883  0.00  0.00    -0.165 F 
ENDBRANCH   7  34
TORSDOF 6
