REMARK  Name = ZINC39632104
REMARK  13 active torsions:
REMARK  status: ('A' for Active; 'I' for Inactive)
REMARK    1  A    between atoms: C_1  and  C_2
REMARK    2  A    between atoms: C_5  and  C_8
REMARK    3  A    between atoms: C_8  and  C_9
REMARK    4  A    between atoms: C_13  and  C_22
REMARK    5  A    between atoms: N_24  and  C_25
REMARK    6  A    between atoms: C_25  and  C_27
REMARK    7  A    between atoms: C_25  and  C_28
REMARK    8  A    between atoms: C_28  and  C_29
REMARK    9  A    between atoms: C_29  and  C_30
REMARK   10  A    between atoms: C_30  and  C_31
REMARK   11  A    between atoms: C_31  and  C_32
REMARK   12  A    between atoms: C_31  and  C_33
REMARK   13  A    between atoms: C_31  and  O_34
REMARK                            x       y       z     vdW  Elec       q    Type
REMARK                         _______ _______ _______ _____ _____    ______ ____
ROOT
ATOM      1  C   UNL     1       1.175  -4.801   0.089  0.00  0.00    +0.220 C 
ATOM      2  O   UNL     1       2.014  -3.926   0.127  0.00  0.00    -0.275 OA
ATOM      3  N   UNL     1       1.552  -6.094   0.038  0.00  0.00    -0.300 N 
ATOM      4  C   UNL     1       0.682  -7.293  -0.019  0.00  0.00    +0.121 C 
ATOM      5  C   UNL     1       1.397  -8.247  -1.002  0.00  0.00    +0.100 C 
ATOM      6  C   UNL     1       2.872  -7.814  -0.967  0.00  0.00    -0.004 C 
ATOM      7  C   UNL     1       2.931  -6.638   0.019  0.00  0.00    +0.115 C 
ATOM      8  C   UNL     1       3.322  -7.357  -2.351  0.00  0.00    -0.010 C 
ATOM      9  C   UNL     1       4.807  -6.986  -2.303  0.00  0.00    -0.082 C 
ATOM     10  N   UNL     1       5.591  -8.150  -1.871  0.00  0.00    +0.379 N 
ATOM     11  C   UNL     1       5.216  -8.526  -0.503  0.00  0.00    -0.082 C 
ATOM     12  C   UNL     1       3.749  -8.962  -0.474  0.00  0.00    -0.010 C 
ATOM     13  H   UNL     1       5.410  -8.924  -2.493  0.00  0.00    -0.086 HD
ATOM     14  H   UNL     1       6.573  -7.921  -1.899  0.00  0.00    -0.086 HD
ENDROOT
BRANCH   5  15
ATOM     15  C   UNL     1       0.834  -8.088  -2.391  0.00  0.00    +0.218 C 
ATOM     16  O   UNL     1       0.396  -7.015  -2.748  0.00  0.00    -0.275 OA
ATOM     17  N   UNL     1       0.818  -9.138  -3.236  0.00  0.00    -0.312 N 
ATOM     18  H   UNL     1       1.169  -9.996  -2.950  0.00  0.00    +0.149 HD
BRANCH  17  19
ATOM     19  C   UNL     1       0.271  -8.984  -4.586  0.00  0.00    +0.070 C 
ATOM     20  C   UNL     1       1.356  -8.439  -5.517  0.00  0.00    +0.028 C 
BRANCH  19  21
ATOM     21  C   UNL     1      -0.208 -10.342  -5.101  0.00  0.00    +0.022 C 
BRANCH  21  22
ATOM     22  C   UNL     1      -1.378 -10.829  -4.243  0.00  0.00    +0.005 C 
BRANCH  22  23
ATOM     23  C   UNL     1      -1.857 -12.188  -4.758  0.00  0.00    +0.034 C 
BRANCH  23  24
ATOM     24  C   UNL     1      -3.026 -12.675  -3.901  0.00  0.00    +0.061 C 
ATOM     25  C   UNL     1      -3.424 -14.087  -4.335  0.00  0.00    +0.041 C 
ATOM     26  C   UNL     1      -2.607 -12.694  -2.429  0.00  0.00    +0.041 C 
BRANCH  24  27
ATOM     27  O   UNL     1      -4.139 -11.794  -4.068  0.00  0.00    -0.389 OA
ATOM     28  H   UNL     1      -4.918 -12.043  -3.552  0.00  0.00    +0.210 HD
ENDBRANCH  24  27
ENDBRANCH  23  24
ENDBRANCH  22  23
ENDBRANCH  21  22
ENDBRANCH  19  21
ENDBRANCH  17  19
ENDBRANCH   5  15
BRANCH   1  29
ATOM     29  C   UNL     1      -0.289  -4.443   0.100  0.00  0.00    +0.131 C 
BRANCH  29  34
ATOM     30  C   UNL     1      -0.869   1.302   0.332  0.00  0.00    +0.044 C 
ATOM     31  C   UNL     1      -0.717  -0.197   0.272  0.00  0.00    -0.050 A 
ATOM     32  C   UNL     1      -0.644  -0.835  -0.952  0.00  0.00    +0.003 A 
ATOM     33  C   UNL     1      -0.505  -2.209  -1.008  0.00  0.00    +0.004 A 
ATOM     34  C   UNL     1      -0.439  -2.945   0.161  0.00  0.00    -0.039 A 
ATOM     35  C   UNL     1      -0.511  -2.307   1.385  0.00  0.00    +0.004 A 
ATOM     36  C   UNL     1      -0.646  -0.932   1.440  0.00  0.00    +0.003 A 
ENDBRANCH  29  34
ENDBRANCH   1  29
TORSDOF 9
