REMARK  Name = ZINC36954965
REMARK  6 active torsions:
REMARK  status: ('A' for Active; 'I' for Inactive)
REMARK    1  A    between atoms: C_1  and  C_2
REMARK    2  A    between atoms: C_2  and  C_4
REMARK    3  A    between atoms: C_2  and  N_14
REMARK    4  A    between atoms: C_7  and  S_10
REMARK    5  A    between atoms: S_10  and  N_13
REMARK    6  A    between atoms: N_14  and  C_15
REMARK                            x       y       z     vdW  Elec       q    Type
REMARK                         _______ _______ _______ _____ _____    ______ ____
ROOT
ATOM      1  C   UNL     1      -0.019   1.526   0.010  0.00  0.00    +0.029 C 
ATOM      2  C   UNL     1       0.002  -0.004   0.002  0.00  0.00    +0.081 C 
ENDROOT
BRANCH   2   3
ATOM      3  C   UNL     1      -1.412  -0.526   0.013  0.00  0.00    -0.031 A 
ATOM      4  C   UNL     1      -2.123  -0.571   1.197  0.00  0.00    +0.007 A 
ATOM      5  C   UNL     1      -3.420  -1.049   1.207  0.00  0.00    +0.029 A 
ATOM      6  C   UNL     1      -4.006  -1.482   0.032  0.00  0.00    +0.105 A 
ATOM      7  C   UNL     1      -3.295  -1.436  -1.153  0.00  0.00    +0.029 A 
ATOM      8  C   UNL     1      -2.000  -0.954  -1.163  0.00  0.00    +0.007 A 
BRANCH   6   9
ATOM      9  S   UNL     1      -5.658  -2.093   0.045  0.00  0.00    +0.056 S 
ATOM     10  O   UNL     1      -5.785  -2.944  -1.086  0.00  0.00    -0.153 OA
ATOM     11  O   UNL     1      -5.915  -2.542   1.369  0.00  0.00    -0.153 OA
BRANCH   9  12
ATOM     12  N   UNL     1      -6.660  -0.801  -0.219  0.00  0.00    -0.204 NA
ATOM     13  H   UNL     1      -7.510  -0.930  -0.669  0.00  0.00    +0.144 HD
ATOM     14  H   UNL     1      -6.397   0.085   0.076  0.00  0.00    +0.144 HD
ENDBRANCH   9  12
ENDBRANCH   6   9
ENDBRANCH   2   3
BRANCH   2  15
ATOM     15  N   UNL     1       0.713  -0.491   1.192  0.00  0.00    -0.308 NA
ATOM     16  H   UNL     1       0.492   0.072   2.000  0.00  0.00    +0.123 HD
BRANCH  15  17
ATOM     17  C   UNL     1       2.162  -0.532   0.959  0.00  0.00    +0.041 C 
ATOM     18  C   UNL     1       2.768   0.842   1.250  0.00  0.00    -0.060 C 
ATOM     19  N   UNL     1       3.760   0.737   2.322  0.00  0.00    +0.381 N 
ATOM     20  C   UNL     1       4.856  -0.150   1.925  0.00  0.00    -0.078 C 
ATOM     21  C   UNL     1       4.320  -1.558   1.657  0.00  0.00    -0.014 C 
ATOM     22  C   UNL     1       2.804  -1.567   1.894  0.00  0.00    +0.001 C 
ATOM     23  C   UNL     1       2.541  -1.137   3.344  0.00  0.00    -0.014 C 
ATOM     24  C   UNL     1       3.135   0.263   3.559  0.00  0.00    -0.078 C 
ATOM     25  H   UNL     1       4.147   1.654   2.491  0.00  0.00    -0.082 HD
ENDBRANCH  15  17
ENDBRANCH   2  15
TORSDOF 5
