REMARK  Name = ZINC63182692
REMARK  8 active torsions:
REMARK  status: ('A' for Active; 'I' for Inactive)
REMARK    1  A    between atoms: C_7  and  C_10
REMARK    2  A    between atoms: C_10  and  C_12
REMARK    3  A    between atoms: C_10  and  C_27
REMARK    4  A    between atoms: C_12  and  N_13
REMARK    5  A    between atoms: N_13  and  S_14
REMARK    6  A    between atoms: S_14  and  C_17
REMARK    7  A    between atoms: C_20  and  S_23
REMARK    8  A    between atoms: S_23  and  N_26
REMARK                            x       y       z     vdW  Elec       q    Type
REMARK                         _______ _______ _______ _____ _____    ______ ____
ROOT
ATOM      1  C   UNL     1       0.923  -4.026  -1.281  0.00  0.00    +0.119 C 
ENDROOT
BRANCH   1   2
ATOM      2  N   UNL     1      -0.070  -5.102  -1.340  0.00  0.00    -0.189 NA
ATOM      3  H   UNL     1      -0.590  -5.325  -0.552  0.00  0.00    +0.148 HD
BRANCH   2   4
ATOM      4  S   UNL     1      -0.304  -5.936  -2.751  0.00  0.00    +0.058 S 
ATOM      5  O   UNL     1      -1.297  -6.917  -2.483  0.00  0.00    -0.153 OA
ATOM      6  O   UNL     1      -0.450  -4.965  -3.777  0.00  0.00    -0.153 OA
BRANCH   4   7
ATOM      7  C   UNL     1       1.187  -6.810  -3.093  0.00  0.00    +0.105 A 
ATOM      8  C   UNL     1       2.182  -6.212  -3.845  0.00  0.00    +0.030 A 
ATOM      9  C   UNL     1       3.352  -6.898  -4.114  0.00  0.00    +0.030 A 
ATOM     10  C   UNL     1       3.527  -8.181  -3.630  0.00  0.00    +0.105 A 
ATOM     11  C   UNL     1       2.534  -8.778  -2.878  0.00  0.00    +0.030 A 
ATOM     12  C   UNL     1       1.365  -8.091  -2.606  0.00  0.00    +0.030 A 
BRANCH  10  13
ATOM     13  S   UNL     1       5.018  -9.055  -3.974  0.00  0.00    +0.056 S 
ATOM     14  O   UNL     1       4.711 -10.438  -3.869  0.00  0.00    -0.153 OA
ATOM     15  O   UNL     1       5.562  -8.482  -5.155  0.00  0.00    -0.153 OA
BRANCH  13  16
ATOM     16  N   UNL     1       6.080  -8.712  -2.750  0.00  0.00    -0.204 NA
ATOM     17  H   UNL     1       6.747  -9.366  -2.490  0.00  0.00    +0.144 HD
ATOM     18  H   UNL     1       6.034  -7.857  -2.294  0.00  0.00    +0.144 HD
ENDBRANCH  13  16
ENDBRANCH  10  13
ENDBRANCH   4   7
ENDBRANCH   2   4
ENDBRANCH   1   2
BRANCH   1  19
ATOM     19  C   UNL     1       0.691  -3.186  -0.024  0.00  0.00    +0.069 C 
BRANCH  19  26
ATOM     20  C   UNL     1      -0.016   1.348   0.009  0.00  0.00    +0.001 A 
ATOM     21  C   UNL     1       1.166   2.101   0.002  0.00  0.00    +0.002 A 
ATOM     22  C   UNL     1       2.391   1.535  -0.013  0.00  0.00    +0.026 A 
ATOM     23  C   UNL     1       2.529   0.120  -0.022  0.00  0.00    +0.043 A 
ATOM     24  N   UNL     1       3.587  -0.654  -0.037  0.00  0.00    -0.380 N 
ATOM     25  C   UNL     1       3.143  -2.053  -0.041  0.00  0.00    +0.145 C 
ATOM     26  C   UNL     1       1.631  -2.008  -0.025  0.00  0.00    -0.032 C 
ATOM     27  C   UNL     1       1.295  -0.698  -0.014  0.00  0.00    -0.000 A 
ATOM     28  C   UNL     1       0.002  -0.004   0.002  0.00  0.00    +0.010 A 
ATOM     29  H   UNL     1       4.509  -0.353  -0.045  0.00  0.00    +0.160 HD
ENDBRANCH  19  26
BRANCH  19  30
ATOM     30  C   UNL     1       0.944  -4.029   1.199  0.00  0.00    -0.002 A 
ATOM     31  C   UNL     1       0.093  -4.353   2.203  0.00  0.00    +0.012 A 
ATOM     32  C   UNL     1       0.548  -5.151   3.236  0.00  0.00    +0.008 A 
ATOM     33  C   UNL     1       1.832  -5.586   3.214  0.00  0.00    +0.045 A 
ATOM     34  S   UNL     1       2.439  -4.867   1.697  0.00  0.00    -0.101 S 
ENDBRANCH  19  30
ENDBRANCH   1  19
TORSDOF 8
