REMARK  Name = ZINC38563987
REMARK  10 active torsions:
REMARK  status: ('A' for Active; 'I' for Inactive)
REMARK    1  A    between atoms: C_1  and  C_2
REMARK    2  A    between atoms: C_2  and  O_3
REMARK    3  A    between atoms: O_3  and  C_4
REMARK    4  A    between atoms: C_7  and  C_12
REMARK    5  A    between atoms: C_9  and  O_10
REMARK    6  A    between atoms: O_10  and  C_11
REMARK    7  A    between atoms: C_14  and  C_26
REMARK    8  A    between atoms: N_28  and  C_29
REMARK    9  A    between atoms: C_29  and  C_30
REMARK   10  A    between atoms: C_30  and  C_31
REMARK                            x       y       z     vdW  Elec       q    Type
REMARK                         _______ _______ _______ _____ _____    ______ ____
ROOT
ATOM      1  C   UNL     1       1.106  -6.007  -1.838  0.00  0.00    +0.076 C 
ATOM      2  N   UNL     1       1.629  -6.510  -2.935  0.00  0.00    -0.244 NA
ATOM      3  C   UNL     1       1.643  -7.816  -3.236  0.00  0.00    +0.126 C 
ATOM      4  C   UNL     1       0.844  -8.729  -2.544  0.00  0.00    +0.039 C 
ATOM      5  C   UNL     1       0.205  -8.243  -1.413  0.00  0.00    -0.008 C 
ATOM      6  C   UNL     1      -0.865  -8.658  -0.664  0.00  0.00    +0.004 A 
ATOM      7  C   UNL     1      -1.566  -9.884  -0.611  0.00  0.00    +0.010 A 
ATOM      8  C   UNL     1      -2.639  -9.945   0.229  0.00  0.00    +0.001 A 
ATOM      9  C   UNL     1      -3.059  -8.873   1.017  0.00  0.00    +0.002 A 
ATOM     10  C   UNL     1      -2.427  -7.668   1.042  0.00  0.00    +0.026 A 
ATOM     11  C   UNL     1      -1.283  -7.524   0.209  0.00  0.00    +0.044 A 
ATOM     12  N   UNL     1      -0.459  -6.513   0.080  0.00  0.00    -0.372 N 
ATOM     13  C   UNL     1       0.635  -6.931  -0.771  0.00  0.00    +0.160 C 
ATOM     14  H   UNL     1      -0.562  -5.638   0.487  0.00  0.00    +0.161 HD
ENDROOT
BRANCH   1  18
ATOM     15  C   UNL     1       0.780  -1.808  -1.336  0.00  0.00    +0.162 A 
ATOM     16  C   UNL     1       0.860  -2.636  -0.223  0.00  0.00    +0.050 A 
ATOM     17  C   UNL     1       0.966  -3.999  -0.380  0.00  0.00    +0.013 A 
ATOM     18  C   UNL     1       0.993  -4.556  -1.667  0.00  0.00    +0.002 A 
ATOM     19  C   UNL     1       0.911  -3.719  -2.789  0.00  0.00    +0.059 A 
ATOM     20  C   UNL     1       0.800  -2.354  -2.620  0.00  0.00    +0.162 A 
BRANCH  20  21
ATOM     21  O   UNL     1       0.716  -1.540  -3.706  0.00  0.00    -0.491 OA
ATOM     22  C   UNL     1       0.743  -2.166  -4.990  0.00  0.00    +0.277 C 
ENDBRANCH  20  21
BRANCH  15  23
ATOM     23  O   UNL     1       0.676  -0.465  -1.174  0.00  0.00    -0.489 OA
BRANCH  23  25
ATOM     24  C   UNL     1       0.540   1.553   0.150  0.00  0.00    +0.048 C 
ATOM     25  C   UNL     1       0.661   0.028   0.168  0.00  0.00    +0.226 C 
ENDBRANCH  23  25
ENDBRANCH  15  23
ENDBRANCH   1  18
BRANCH   3  26
ATOM     26  C   UNL     1       2.523  -8.300  -4.323  0.00  0.00    +0.262 C 
ATOM     27  O   UNL     1       2.545  -9.482  -4.606  0.00  0.00    -0.269 OA
ATOM     28  N   UNL     1       3.299  -7.431  -5.000  0.00  0.00    -0.310 N 
ATOM     29  H   UNL     1       3.282  -6.487  -4.774  0.00  0.00    +0.149 HD
BRANCH  28  30
ATOM     30  C   UNL     1       4.170  -7.910  -6.076  0.00  0.00    +0.109 C 
BRANCH  30  31
ATOM     31  C   UNL     1       4.937  -6.730  -6.675  0.00  0.00    +0.057 C 
BRANCH  31  32
ATOM     32  C   UNL     1       5.833  -7.223  -7.783  0.00  0.00    -0.011 A 
ATOM     33  C   UNL     1       7.155  -7.529  -7.518  0.00  0.00    +0.006 A 
ATOM     34  C   UNL     1       7.976  -7.982  -8.534  0.00  0.00    +0.000 A 
ATOM     35  C   UNL     1       7.477  -8.128  -9.815  0.00  0.00    +0.003 A 
ATOM     36  C   UNL     1       6.156  -7.823 -10.081  0.00  0.00    +0.038 A 
ATOM     37  C   UNL     1       5.330  -7.375  -9.064  0.00  0.00    +0.127 A 
ATOM     38  F   UNL     1       4.037  -7.081  -9.322  0.00  0.00    -0.205 F 
ENDBRANCH  31  32
ENDBRANCH  30  31
ENDBRANCH  28  30
ENDBRANCH   3  26
TORSDOF 8
