REMARK  Name = ZINC34748339
REMARK  7 active torsions:
REMARK  status: ('A' for Active; 'I' for Inactive)
REMARK    1  A    between atoms: C_1  and  C_2
REMARK    2  A    between atoms: C_3  and  C_32
REMARK    3  A    between atoms: N_9  and  C_21
REMARK    4  A    between atoms: N_15  and  C_18
REMARK    5  A    between atoms: C_18  and  C_19
REMARK    6  A    between atoms: C_21  and  C_22
REMARK    7  A    between atoms: N_24  and  C_25
REMARK                            x       y       z     vdW  Elec       q    Type
REMARK                         _______ _______ _______ _____ _____    ______ ____
ROOT
ATOM      1  C   UNL     1       0.011   1.410  -0.111  0.00  0.00    +0.045 C 
ATOM      2  C   UNL     1       0.028  -0.096  -0.058  0.00  0.00    -0.026 A 
ATOM      3  C   UNL     1       0.042  -0.815  -1.190  0.00  0.00    -0.008 A 
ATOM      4  S   UNL     1       0.059  -2.501  -0.611  0.00  0.00    -0.073 S 
ATOM      5  C   UNL     1       0.048  -2.192   1.136  0.00  0.00    +0.117 A 
ATOM      6  C   UNL     1       0.037  -0.787   1.220  0.00  0.00    +0.075 A 
ATOM      7  C   UNL     1       0.031  -0.243   2.543  0.00  0.00    +0.264 A 
ATOM      8  O   UNL     1       0.017   0.964   2.715  0.00  0.00    -0.267 OA
ATOM      9  N   UNL     1       0.041  -1.081   3.596  0.00  0.00    -0.271 N 
ATOM     10  C   UNL     1       0.057  -2.433   3.424  0.00  0.00    +0.202 A 
ATOM     11  N   UNL     1       0.053  -2.962   2.218  0.00  0.00    -0.208 NA
ATOM     12  N   UNL     1       0.068  -3.256   4.523  0.00  0.00    -0.304 N 
ATOM     13  C   UNL     1       1.330  -3.611   5.190  0.00  0.00    +0.089 C 
ATOM     14  C   UNL     1       1.379  -5.134   5.354  0.00  0.00    -0.059 C 
ATOM     15  N   UNL     1       0.173  -5.589   6.058  0.00  0.00    +0.384 N 
ATOM     16  C   UNL     1      -1.015  -5.319   5.238  0.00  0.00    -0.059 C 
ATOM     17  C   UNL     1      -1.184  -3.801   5.071  0.00  0.00    +0.089 C 
ATOM     18  C   UNL     1       0.042  -0.316  -2.613  0.00  0.00    +0.052 C 
ATOM     19  H   UNL     1       0.093  -5.099   6.936  0.00  0.00    -0.081 HD
ENDROOT
BRANCH  15  20
ATOM     20  C   UNL     1       0.273  -7.032   6.312  0.00  0.00    -0.052 C 
BRANCH  20  21
ATOM     21  C   UNL     1      -0.905  -7.478   7.141  0.00  0.00    -0.053 C 
ATOM     22  C   UNL     1      -1.672  -8.452   6.717  0.00  0.00    +0.002 C 
ENDBRANCH  20  21
ENDBRANCH  15  20
BRANCH   9  23
ATOM     23  C   UNL     1       0.035  -0.529   4.953  0.00  0.00    +0.224 C 
BRANCH  23  24
ATOM     24  C   UNL     1      -1.384  -0.243   5.373  0.00  0.00    +0.237 C 
ATOM     25  O   UNL     1      -2.300  -0.476   4.613  0.00  0.00    -0.274 OA
ATOM     26  N   UNL     1      -1.635   0.273   6.592  0.00  0.00    -0.284 N 
ATOM     27  H   UNL     1      -0.900   0.522   7.175  0.00  0.00    +0.155 HD
BRANCH  26  28
ATOM     28  C   UNL     1      -2.956   0.449   7.019  0.00  0.00    +0.034 A 
ATOM     29  C   UNL     1      -3.285   0.269   8.356  0.00  0.00    +0.024 A 
ATOM     30  C   UNL     1      -4.590   0.444   8.775  0.00  0.00    +0.017 A 
ATOM     31  C   UNL     1      -5.568   0.799   7.863  0.00  0.00    +0.018 A 
ATOM     32  C   UNL     1      -5.243   0.979   6.530  0.00  0.00    +0.017 A 
ATOM     33  C   UNL     1      -3.939   0.810   6.107  0.00  0.00    +0.024 A 
ATOM     34 BR   UNL     1      -7.353   1.037   8.440  0.00  0.00    -0.050 Br
ENDBRANCH  26  28
ENDBRANCH  23  24
ENDBRANCH   9  23
TORSDOF 5
