REMARK  Name = ZINC44713992
REMARK  12 active torsions:
REMARK  status: ('A' for Active; 'I' for Inactive)
REMARK    1  A    between atoms: C_1  and  C_2
REMARK    2  A    between atoms: C_2  and  C_3
REMARK    3  A    between atoms: C_3  and  C_4
REMARK    4  A    between atoms: C_4  and  C_5
REMARK    5  A    between atoms: C_5  and  C_6
REMARK    6  A    between atoms: C_6  and  C_7
REMARK    7  A    between atoms: C_11  and  C_20
REMARK    8  A    between atoms: N_22  and  C_23
REMARK    9  A    between atoms: C_23  and  C_25
REMARK   10  A    between atoms: C_23  and  C_26
REMARK   11  A    between atoms: C_27  and  C_33
REMARK   12  A    between atoms: C_31  and  C_32
REMARK                            x       y       z     vdW  Elec       q    Type
REMARK                         _______ _______ _______ _____ _____    ______ ____
ROOT
ATOM      1  C   UNL     1       2.203  -4.579  -3.703  0.00  0.00    +0.216 C 
ATOM      2  O   UNL     1       2.664  -3.784  -4.494  0.00  0.00    -0.276 OA
ATOM      3  N   UNL     1       2.333  -5.902  -3.925  0.00  0.00    -0.300 N 
ATOM      4  C   UNL     1       1.835  -7.017  -3.085  0.00  0.00    +0.121 C 
ATOM      5  C   UNL     1       1.331  -8.072  -4.096  0.00  0.00    +0.100 C 
ATOM      6  C   UNL     1       2.104  -7.775  -5.391  0.00  0.00    -0.004 C 
ATOM      7  C   UNL     1       3.000  -6.571  -5.068  0.00  0.00    +0.115 C 
ATOM      8  C   UNL     1       1.135  -7.417  -6.514  0.00  0.00    -0.010 C 
ATOM      9  C   UNL     1       1.923  -7.182  -7.806  0.00  0.00    -0.082 C 
ATOM     10  N   UNL     1       2.676  -8.394  -8.150  0.00  0.00    +0.379 N 
ATOM     11  C   UNL     1       3.670  -8.679  -7.108  0.00  0.00    -0.082 C 
ATOM     12  C   UNL     1       2.956  -8.977  -5.787  0.00  0.00    -0.010 C 
ATOM     13  H   UNL     1       2.040  -9.173  -8.227  0.00  0.00    -0.086 HD
ATOM     14  H   UNL     1       3.146  -8.258  -9.033  0.00  0.00    -0.086 HD
ENDROOT
BRANCH   5  15
ATOM     15  C   UNL     1      -0.151  -7.919  -4.319  0.00  0.00    +0.219 C 
ATOM     16  O   UNL     1      -0.684  -6.846  -4.133  0.00  0.00    -0.275 OA
ATOM     17  N   UNL     1      -0.884  -8.974  -4.725  0.00  0.00    -0.308 N 
ATOM     18  H   UNL     1      -0.458  -9.833  -4.873  0.00  0.00    +0.149 HD
BRANCH  17  19
ATOM     19  C   UNL     1      -2.325  -8.825  -4.942  0.00  0.00    +0.104 C 
ATOM     20  C   UNL     1      -3.052  -8.879  -3.597  0.00  0.00    +0.033 C 
BRANCH  19  21
ATOM     21  C   UNL     1      -2.819  -9.943  -5.824  0.00  0.00    +0.015 A 
ATOM     22  C   UNL     1      -3.592  -9.805  -6.926  0.00  0.00    +0.038 A 
ATOM     23  N   UNL     1      -3.813 -11.037  -7.430  0.00  0.00    -0.281 N 
ATOM     24  H   UNL     1      -4.336 -11.245  -8.220  0.00  0.00    +0.189 HD
ATOM     25  N   UNL     1      -3.154 -11.963  -6.611  0.00  0.00    -0.179 NA
ATOM     26  C   UNL     1      -2.553 -11.305  -5.652  0.00  0.00    +0.065 A 
ATOM     27  C   UNL     1      -1.722 -11.912  -4.551  0.00  0.00    +0.068 C 
ATOM     28  C   UNL     1      -4.114  -8.508  -7.489  0.00  0.00    +0.065 C 
ENDBRANCH  19  21
ENDBRANCH  17  19
ENDBRANCH   5  15
BRANCH   1  29
ATOM     29  C   UNL     1       1.484  -4.089  -2.472  0.00  0.00    +0.096 C 
BRANCH  29  30
ATOM     30  C   UNL     1       1.477  -2.559  -2.462  0.00  0.00    +0.009 C 
BRANCH  30  31
ATOM     31  C   UNL     1       0.748  -2.061  -1.212  0.00  0.00    +0.000 C 
BRANCH  31  32
ATOM     32  C   UNL     1       0.741  -0.531  -1.202  0.00  0.00    -0.000 C 
BRANCH  32  34
ATOM     33  C   UNL     1       0.005   1.497   0.059  0.00  0.00    +0.004 C 
ATOM     34  C   UNL     1       0.011  -0.033   0.048  0.00  0.00    -0.003 C 
ENDBRANCH  32  34
ENDBRANCH  31  32
ENDBRANCH  30  31
ENDBRANCH  29  30
ENDBRANCH   1  29
TORSDOF 8
