REMARK  Name = ZINC49570036
REMARK  5 active torsions:
REMARK  status: ('A' for Active; 'I' for Inactive)
REMARK    1  A    between atoms: C_1  and  C_2
REMARK    2  A    between atoms: C_3  and  C_21
REMARK    3  A    between atoms: N_4  and  C_10
REMARK    4  A    between atoms: C_5  and  N_9
REMARK    5  A    between atoms: C_6  and  C_7
REMARK                            x       y       z     vdW  Elec       q    Type
REMARK                         _______ _______ _______ _____ _____    ______ ____
ROOT
ATOM      1  C   UNL     1      -0.451   1.443  -0.277  0.00  0.00    +0.047 C 
ATOM      2  C   UNL     1      -0.178  -0.031  -0.122  0.00  0.00    -0.011 A 
ATOM      3  C   UNL     1       0.478  -0.819  -0.988  0.00  0.00    +0.022 A 
ATOM      4  N   UNL     1       0.523  -2.097  -0.493  0.00  0.00    -0.331 N 
ATOM      5  C   UNL     1      -0.108  -2.156   0.708  0.00  0.00    +0.115 A 
ATOM      6  C   UNL     1      -0.572  -0.882   1.009  0.00  0.00    +0.094 A 
ATOM      7  C   UNL     1       1.072  -0.370  -2.298  0.00  0.00    +0.064 C 
ENDROOT
BRANCH   4   8
ATOM      8  C   UNL     1       1.158  -3.234  -1.164  0.00  0.00    +0.073 C 
ATOM      9  C   UNL     1       0.243  -4.484  -1.098  0.00  0.00    +0.005 C 
ATOM     10  C   UNL     1       1.036  -5.515  -0.251  0.00  0.00    -0.076 C 
ATOM     11  N   UNL     1       1.936  -4.676   0.556  0.00  0.00    +0.383 N 
ATOM     12  C   UNL     1       2.427  -3.658  -0.417  0.00  0.00    -0.045 C 
ATOM     13  C   UNL     1       3.087  -2.540   0.377  0.00  0.00    -0.013 C 
ATOM     14  C   UNL     1       4.307  -3.141   1.093  0.00  0.00    -0.003 C 
ATOM     15  C   UNL     1       3.892  -4.339   1.946  0.00  0.00    -0.019 C 
ATOM     16  C   UNL     1       3.095  -5.362   1.111  0.00  0.00    -0.078 C 
ATOM     17  H   UNL     1       1.416  -4.228   1.295  0.00  0.00    -0.081 HD
ENDBRANCH   4   8
BRANCH   5  18
ATOM     18  N   UNL     1      -0.257  -3.283   1.495  0.00  0.00    -0.343 N 
ATOM     19  H   UNL     1      -0.207  -4.165   1.093  0.00  0.00    +0.144 HD
ATOM     20  H   UNL     1      -0.410  -3.192   2.448  0.00  0.00    +0.144 HD
ENDBRANCH   5  18
BRANCH   6  21
ATOM     21  C   UNL     1      -1.290  -0.480   2.180  0.00  0.00    +0.103 C 
ATOM     22  N   UNL     1      -1.861  -0.161   3.110  0.00  0.00    -0.191 NA
ENDBRANCH   6  21
TORSDOF 3
