REMARK  Name = ZINC39923304
REMARK  9 active torsions:
REMARK  status: ('A' for Active; 'I' for Inactive)
REMARK    1  A    between atoms: C_1  and  C_2
REMARK    2  A    between atoms: C_5  and  C_8
REMARK    3  A    between atoms: C_8  and  S_9
REMARK    4  A    between atoms: S_9  and  C_10
REMARK    5  A    between atoms: C_14  and  S_17
REMARK    6  A    between atoms: S_17  and  C_18
REMARK    7  A    between atoms: C_18  and  C_19
REMARK    8  A    between atoms: N_21  and  N_22
REMARK    9  A    between atoms: C_23  and  C_24
REMARK                            x       y       z     vdW  Elec       q    Type
REMARK                         _______ _______ _______ _____ _____    ______ ____
ROOT
ATOM      1  S   UNL     1      -0.164 -10.168  -1.277  0.00  0.00    -0.121 S 
ENDROOT
BRANCH   1   5
ATOM      2  C   UNL     1       1.628  -6.666  -0.043  0.00  0.00    +0.187 C 
ATOM      3  N   UNL     1       0.807  -7.152   1.111  0.00  0.00    -0.232 NA
ATOM      4  N   UNL     1       0.279  -8.480   0.822  0.00  0.00    -0.232 NA
ATOM      5  C   UNL     1      -0.377  -8.536  -0.515  0.00  0.00    +0.187 C 
ATOM      6  S   UNL     1       0.566  -7.247  -1.436  0.00  0.00    -0.099 S 
ATOM      7  H   UNL     1       0.063  -6.505   1.323  0.00  0.00    +0.143 HD
ATOM      8  H   UNL     1       1.000  -9.181   0.900  0.00  0.00    +0.143 HD
BRANCH   2   9
ATOM      9  S   UNL     1       1.777  -4.858  -0.034  0.00  0.00    -0.125 S 
BRANCH   9  10
ATOM     10  C   UNL     1       0.059  -4.275  -0.021  0.00  0.00    +0.106 C 
BRANCH  10  15
ATOM     11  C   UNL     1      -0.018   1.503   0.010  0.00  0.00    +0.044 C 
ATOM     12  C   UNL     1       0.002  -0.004   0.002  0.00  0.00    -0.050 A 
ATOM     13  C   UNL     1       0.006  -0.689  -1.199  0.00  0.00    +0.003 A 
ATOM     14  C   UNL     1       0.025  -2.071  -1.206  0.00  0.00    +0.005 A 
ATOM     15  C   UNL     1       0.040  -2.768  -0.013  0.00  0.00    -0.037 A 
ATOM     16  C   UNL     1       0.037  -2.084   1.188  0.00  0.00    +0.005 A 
ATOM     17  C   UNL     1       0.023  -0.702   1.195  0.00  0.00    +0.003 A 
ENDBRANCH  10  15
ENDBRANCH   9  10
ENDBRANCH   2   9
ENDBRANCH   1   5
BRANCH   1  18
ATOM     18  C   UNL     1       1.635 -10.358  -1.411  0.00  0.00    +0.169 C 
BRANCH  18  19
ATOM     19  C   UNL     1       1.954 -11.692  -2.038  0.00  0.00    +0.242 C 
ATOM     20  O   UNL     1       1.056 -12.440  -2.361  0.00  0.00    -0.273 OA
ATOM     21  N   UNL     1       3.237 -12.053  -2.238  0.00  0.00    -0.206 N 
ATOM     22  H   UNL     1       3.955 -11.454  -1.979  0.00  0.00    +0.177 HD
BRANCH  21  23
ATOM     23  N   UNL     1       3.533 -13.292  -2.820  0.00  0.00    -0.188 NA
ATOM     24  C   UNL     1       4.779 -13.643  -3.015  0.00  0.00    +0.136 C 
BRANCH  24  25
ATOM     25  C   UNL     1       5.076 -14.883  -3.597  0.00  0.00    +0.000 C 
ATOM     26  C   UNL     1       6.338 -15.407  -3.866  0.00  0.00    +0.004 A 
ATOM     27  C   UNL     1       7.643 -14.906  -3.661  0.00  0.00    +0.010 A 
ATOM     28  C   UNL     1       8.715 -15.651  -4.029  0.00  0.00    +0.001 A 
ATOM     29  C   UNL     1       8.566 -16.913  -4.613  0.00  0.00    +0.002 A 
ATOM     30  C   UNL     1       7.346 -17.456  -4.840  0.00  0.00    +0.026 A 
ATOM     31  C   UNL     1       6.175 -16.736  -4.481  0.00  0.00    +0.043 A 
ATOM     32  N   UNL     1       4.898 -17.037  -4.595  0.00  0.00    -0.380 N 
ATOM     33  C   UNL     1       4.092 -15.935  -4.059  0.00  0.00    +0.150 C 
ATOM     34  H   UNL     1       4.546 -17.859  -4.970  0.00  0.00    +0.160 HD
ENDBRANCH  24  25
ENDBRANCH  21  23
ENDBRANCH  18  19
ENDBRANCH   1  18
TORSDOF 8
