REMARK  Name = ZINC38604245
REMARK  5 active torsions:
REMARK  status: ('A' for Active; 'I' for Inactive)
REMARK    1  A    between atoms: C_4  and  C_7
REMARK    2  A    between atoms: C_17  and  C_19
REMARK    3  A    between atoms: N_21  and  C_22
REMARK    4  A    between atoms: C_27  and  C_28
REMARK    5  A    between atoms: C_28  and  C_30
REMARK                            x       y       z     vdW  Elec       q    Type
REMARK                         _______ _______ _______ _____ _____    ______ ____
ROOT
ATOM      1  C   UNL     1       3.182  -0.592  -0.200  0.00  0.00    -0.011 C 
ATOM      2  C   UNL     1       4.334   0.183  -0.360  0.00  0.00    +0.002 A 
ATOM      3  C   UNL     1       4.248   1.585  -0.484  0.00  0.00    +0.030 A 
ATOM      4  C   UNL     1       5.386   2.316  -0.638  0.00  0.00    +0.042 A 
ATOM      5  C   UNL     1       6.639   1.707  -0.677  0.00  0.00    +0.022 A 
ATOM      6  C   UNL     1       6.785   0.358  -0.563  0.00  0.00    +0.025 A 
ATOM      7  C   UNL     1       5.652  -0.460  -0.400  0.00  0.00    +0.041 A 
ATOM      8  N   UNL     1       5.798  -1.785  -0.287  0.00  0.00    -0.284 N 
ATOM      9  C   UNL     1       4.788  -2.619  -0.134  0.00  0.00    +0.234 C 
ATOM     10  O   UNL     1       4.996  -3.814  -0.038  0.00  0.00    -0.274 OA
ATOM     11  C   UNL     1       3.373  -2.091  -0.068  0.00  0.00    +0.192 C 
ATOM     12 CL   UNL     1       5.274   4.042  -0.791  0.00  0.00    -0.084 Cl
ATOM     13  H   UNL     1       6.695  -2.152  -0.321  0.00  0.00    +0.155 HD
ENDROOT
BRANCH   1  17
ATOM     14  C   UNL     1      -0.627   1.147  -0.073  0.00  0.00    +0.000 A 
ATOM     15  C   UNL     1      -0.296   0.292  -1.111  0.00  0.00    +0.001 A 
ATOM     16  C   UNL     1       0.953  -0.285  -1.162  0.00  0.00    +0.008 A 
ATOM     17  C   UNL     1       1.893  -0.003  -0.157  0.00  0.00    -0.020 A 
ATOM     18  C   UNL     1       1.548   0.866   0.891  0.00  0.00    +0.008 A 
ATOM     19  C   UNL     1       0.293   1.432   0.923  0.00  0.00    +0.001 A 
ENDBRANCH   1  17
BRANCH  11  20
ATOM     20  C   UNL     1       2.774  -2.520   1.247  0.00  0.00    +0.234 C 
ATOM     21  O   UNL     1       2.260  -1.698   1.975  0.00  0.00    -0.274 OA
ATOM     22  N   UNL     1       2.811  -3.816   1.613  0.00  0.00    -0.284 N 
ATOM     23  H   UNL     1       3.276  -4.463   1.060  0.00  0.00    +0.155 HD
BRANCH  22  24
ATOM     24  C   UNL     1       2.179  -4.227   2.785  0.00  0.00    +0.044 A 
ATOM     25  C   UNL     1       1.996  -3.330   3.829  0.00  0.00    +0.025 A 
ATOM     26  C   UNL     1       1.370  -3.739   4.989  0.00  0.00    +0.022 A 
ATOM     27  C   UNL     1       0.920  -5.044   5.123  0.00  0.00    +0.042 A 
ATOM     28  C   UNL     1       1.094  -5.949   4.097  0.00  0.00    +0.033 A 
ATOM     29  C   UNL     1       1.721  -5.547   2.913  0.00  0.00    +0.045 A 
ATOM     30 CL   UNL     1       0.136  -5.542   6.589  0.00  0.00    -0.084 Cl
BRANCH  29  31
ATOM     31  C   UNL     1       1.905  -6.507   1.809  0.00  0.00    +0.195 C 
ATOM     32  O   UNL     1       2.767  -7.361   1.883  0.00  0.00    -0.287 OA
BRANCH  31  33
ATOM     33  C   UNL     1       1.040  -6.431   0.613  0.00  0.00    +0.022 A 
ATOM     34  C   UNL     1       0.122  -5.388   0.476  0.00  0.00    +0.012 A 
ATOM     35  C   UNL     1      -0.682  -5.324  -0.643  0.00  0.00    +0.001 A 
ATOM     36  C   UNL     1      -0.580  -6.290  -1.629  0.00  0.00    +0.000 A 
ATOM     37  C   UNL     1       0.328  -7.327  -1.499  0.00  0.00    +0.001 A 
ATOM     38  C   UNL     1       1.142  -7.400  -0.388  0.00  0.00    +0.012 A 
ENDBRANCH  31  33
ENDBRANCH  29  31
ENDBRANCH  22  24
ENDBRANCH  11  20
TORSDOF 5
