REMARK  Name = ZINC39226012
REMARK  5 active torsions:
REMARK  status: ('A' for Active; 'I' for Inactive)
REMARK    1  A    between atoms: C_1  and  O_2
REMARK    2  A    between atoms: O_2  and  C_3
REMARK    3  A    between atoms: C_19  and  C_21
REMARK    4  A    between atoms: C_24  and  O_27
REMARK    5  A    between atoms: O_27  and  C_28
REMARK                            x       y       z     vdW  Elec       q    Type
REMARK                         _______ _______ _______ _____ _____    ______ ____
ROOT
ATOM      1  C   UNL     1       0.037  -4.279   0.530  0.00  0.00    +0.121 A 
ATOM      2  C   UNL     1       0.528  -3.095   1.070  0.00  0.00    +0.049 A 
ATOM      3  C   UNL     1       1.269  -3.107   2.234  0.00  0.00    +0.050 A 
ATOM      4  C   UNL     1       1.532  -4.307   2.881  0.00  0.00    +0.132 A 
ATOM      5  C   UNL     1       1.033  -5.502   2.341  0.00  0.00    +0.063 A 
ATOM      6  C   UNL     1       0.281  -5.483   1.164  0.00  0.00    +0.060 A 
ATOM      7  C   UNL     1       1.304  -6.771   3.039  0.00  0.00    +0.171 C 
ATOM      8  O   UNL     1       0.729  -7.797   2.744  0.00  0.00    -0.292 OA
ATOM      9  C   UNL     1       2.343  -6.727   4.146  0.00  0.00    +0.127 C 
ATOM     10  C   UNL     1       2.128  -5.416   4.916  0.00  0.00    +0.120 C 
ATOM     11  O   UNL     1       2.265  -4.314   4.021  0.00  0.00    -0.484 OA
ATOM     12  C   UNL     1       3.172  -5.308   6.029  0.00  0.00    +0.067 C 
ATOM     13  C   UNL     1       2.974  -3.991   6.785  0.00  0.00    +0.111 C 
ATOM     14  N   UNL     1       1.583  -3.918   7.252  0.00  0.00    -0.301 N 
ATOM     15  C   UNL     1       0.500  -4.097   6.275  0.00  0.00    +0.111 C 
ATOM     16  C   UNL     1       0.725  -5.414   5.525  0.00  0.00    +0.067 C 
ATOM     17  C   UNL     1       1.305  -3.691   8.551  0.00  0.00    +0.219 C 
ATOM     18  O   UNL     1       2.206  -3.624   9.360  0.00  0.00    -0.275 OA
ENDROOT
BRANCH  17  19
ATOM     19  C   UNL     1      -0.124  -3.521   8.997  0.00  0.00    +0.075 C 
ATOM     20  C   UNL     1      -0.572  -2.082   8.737  0.00  0.00    +0.015 C 
ATOM     21  C   UNL     1      -2.023  -1.909   9.191  0.00  0.00    +0.032 C 
ATOM     22  C   UNL     1      -2.130  -2.214  10.686  0.00  0.00    +0.118 C 
ATOM     23  C   UNL     1      -1.682  -3.654  10.947  0.00  0.00    +0.032 C 
ATOM     24  C   UNL     1      -0.231  -3.826  10.493  0.00  0.00    +0.015 C 
BRANCH  22  25
ATOM     25  O   UNL     1      -3.485  -2.053  11.110  0.00  0.00    -0.380 OA
ATOM     26  C   UNL     1      -3.623  -1.644  12.472  0.00  0.00    +0.194 C 
ENDBRANCH  22  25
ENDBRANCH  17  19
BRANCH   1  28
ATOM     27  C   UNL     1      -0.904  -2.973  -1.220  0.00  0.00    +0.277 C 
ATOM     28  O   UNL     1      -0.690  -4.251  -0.619  0.00  0.00    -0.495 OA
ENDBRANCH   1  28
TORSDOF 3
