REMARK  Name = ZINC22939348
REMARK  12 active torsions:
REMARK  status: ('A' for Active; 'I' for Inactive)
REMARK    1  A    between atoms: C_1  and  C_2
REMARK    2  A    between atoms: C_2  and  C_3
REMARK    3  A    between atoms: C_3  and  N_4
REMARK    4  A    between atoms: N_7  and  C_10
REMARK    5  A    between atoms: C_10  and  C_11
REMARK    6  A    between atoms: C_11  and  C_12
REMARK    7  A    between atoms: C_12  and  N_13
REMARK    8  A    between atoms: N_15  and  C_16
REMARK    9  A    between atoms: C_22  and  C_34
REMARK   10  A    between atoms: C_24  and  N_26
REMARK   11  A    between atoms: N_29  and  C_32
REMARK   12  A    between atoms: C_32  and  C_33
REMARK                            x       y       z     vdW  Elec       q    Type
REMARK                         _______ _______ _______ _____ _____    ______ ____
ROOT
ATOM      1  C   UNL     1       2.309 -11.476  -6.965  0.00  0.00    +0.033 A 
ATOM      2  C   UNL     1       1.839 -12.482  -6.115  0.00  0.00    +0.025 A 
ATOM      3  C   UNL     1       2.015 -13.795  -6.421  0.00  0.00    +0.030 A 
ATOM      4  C   UNL     1       2.676 -14.158  -7.608  0.00  0.00    +0.073 A 
ATOM      5  C   UNL     1       3.154 -13.143  -8.473  0.00  0.00    +0.005 A 
ATOM      6  C   UNL     1       2.956 -11.795  -8.139  0.00  0.00    +0.033 A 
ATOM      7  C   UNL     1       3.816 -13.511  -9.662  0.00  0.00    -0.038 A 
ATOM      8  C   UNL     1       3.971 -14.838  -9.932  0.00  0.00    +0.047 A 
ATOM      9  C   UNL     1       3.477 -15.795  -9.035  0.00  0.00    +0.122 A 
ATOM     10  N   UNL     1       2.858 -15.445  -7.926  0.00  0.00    -0.232 NA
ATOM     11  C   UNL     1       4.339 -12.463 -10.611  0.00  0.00    +0.044 C 
ENDROOT
BRANCH   9  12
ATOM     12  N   UNL     1       3.642 -17.142  -9.323  0.00  0.00    -0.319 N 
ATOM     13  C   UNL     1       2.944 -18.174  -8.540  0.00  0.00    +0.088 C 
ATOM     14  C   UNL     1       2.240 -19.128  -9.510  0.00  0.00    -0.060 C 
ATOM     15  N   UNL     1       3.216 -19.654 -10.473  0.00  0.00    +0.382 N 
ATOM     16  C   UNL     1       3.740 -18.561 -11.302  0.00  0.00    -0.060 C 
ATOM     17  C   UNL     1       4.514 -17.579 -10.424  0.00  0.00    +0.088 C 
ATOM     18  H   UNL     1       3.977 -20.090  -9.973  0.00  0.00    -0.082 HD
BRANCH  15  19
ATOM     19  C   UNL     1       2.565 -20.650 -11.333  0.00  0.00    -0.082 C 
ATOM     20  C   UNL     1       3.608 -21.290 -12.252  0.00  0.00    -0.017 C 
ENDBRANCH  15  19
ENDBRANCH   9  12
BRANCH   1  23
ATOM     21  N   UNL     1       1.473  -8.628  -4.911  0.00  0.00    -0.367 N 
ATOM     22  C   UNL     1       2.145  -9.748  -5.311  0.00  0.00    +0.143 C 
ATOM     23  N   UNL     1       2.114 -10.132  -6.624  0.00  0.00    -0.295 N 
ATOM     24  S   UNL     1       3.000 -10.644  -4.205  0.00  0.00    -0.016 SA
ATOM     25  H   UNL     1       1.957  -9.473  -7.318  0.00  0.00    +0.154 HD
ATOM     26  H   UNL     1       0.974  -8.105  -5.557  0.00  0.00    +0.161 HD
BRANCH  21  27
ATOM     27  C   UNL     1       1.506  -8.217  -3.505  0.00  0.00    +0.116 C 
BRANCH  27  28
ATOM     28  C   UNL     1       0.680  -6.942  -3.327  0.00  0.00    +0.036 C 
BRANCH  28  29
ATOM     29  C   UNL     1       0.715  -6.513  -1.858  0.00  0.00    +0.086 C 
BRANCH  29  33
ATOM     30  N   UNL     1      -0.504  -2.603  -0.813  0.00  0.00    +0.381 N 
ATOM     31  C   UNL     1      -1.146  -3.733  -0.128  0.00  0.00    -0.063 C 
ATOM     32  C   UNL     1      -0.267  -4.978  -0.263  0.00  0.00    +0.066 C 
ATOM     33  N   UNL     1      -0.079  -5.289  -1.687  0.00  0.00    -0.306 NA
ATOM     34  C   UNL     1       0.540  -4.157  -2.392  0.00  0.00    +0.066 C 
ATOM     35  C   UNL     1      -0.346  -2.919  -2.239  0.00  0.00    -0.063 C 
ATOM     36  H   UNL     1       0.402  -2.433  -0.404  0.00  0.00    -0.082 HD
BRANCH  30  37
ATOM     37  C   UNL     1      -1.340  -1.404  -0.667  0.00  0.00    -0.079 C 
BRANCH  37  39
ATOM     38  C   UNL     1      -2.273   0.247   0.960  0.00  0.00    +0.002 C 
ATOM     39  C   UNL     1      -1.403  -1.002   0.808  0.00  0.00    -0.022 C 
ENDBRANCH  37  39
ENDBRANCH  30  37
ENDBRANCH  29  33
ENDBRANCH  28  29
ENDBRANCH  27  28
ENDBRANCH  21  27
ENDBRANCH   1  23
TORSDOF 9
