REMARK  Name = ZINC42895949
REMARK  12 active torsions:
REMARK  status: ('A' for Active; 'I' for Inactive)
REMARK    1  A    between atoms: C_1  and  C_2
REMARK    2  A    between atoms: C_2  and  C_30
REMARK    3  A    between atoms: C_4  and  N_10
REMARK    4  A    between atoms: C_6  and  C_8
REMARK    5  A    between atoms: C_6  and  C_9
REMARK    6  A    between atoms: N_13  and  C_14
REMARK    7  A    between atoms: C_14  and  C_16
REMARK    8  A    between atoms: C_14  and  C_18
REMARK    9  A    between atoms: C_16  and  O_17
REMARK   10  A    between atoms: C_18  and  C_20
REMARK   11  A    between atoms: C_18  and  O_29
REMARK   12  A    between atoms: C_23  and  N_26
REMARK                            x       y       z     vdW  Elec       q    Type
REMARK                         _______ _______ _______ _____ _____    ______ ____
ROOT
ATOM      1  N   UNK A   0       2.615  -0.819  -2.626  0.00  0.00    -0.297 N 
ATOM      2  C   UNK A   0       3.770  -0.334  -3.123  0.00  0.00    +0.300 C 
ATOM      3  O   UNK A   0       4.376   0.532  -2.522  0.00  0.00    -0.253 OA
ATOM      4  N   UNK A   1       4.255  -0.809  -4.288  0.00  0.00    -0.292 N 
ATOM      5  H   UNK A   0       2.133  -1.510  -3.106  0.00  0.00    +0.151 HD
ATOM      6  H   UNK A   1       3.772  -1.500  -4.768  0.00  0.00    +0.151 HD
ENDROOT
BRANCH   1  10
ATOM      7  C   UNK A   0      -0.019   1.528   0.010  0.00  0.00    -0.010 C 
ATOM      8  C   UNK A   0       0.002  -0.004   0.002  0.00  0.00    -0.072 C 
ATOM      9  C   UNK A   0       0.573  -0.505  -1.321  0.00  0.00    +0.009 C 
ATOM     10  C   UNK A   0       2.088  -0.301  -1.357  0.00  0.00    +0.072 C 
ATOM     11  C   UNK A   0       2.703  -1.086  -0.198  0.00  0.00    +0.009 C 
ATOM     12  C   UNK A   0       2.147  -0.590   1.133  0.00  0.00    -0.072 C 
ATOM     13  N   UNK A   0       0.697  -0.529   1.164  0.00  0.00    +0.386 N 
ATOM     14  C   UNK A   0       2.769   0.766   1.481  0.00  0.00    -0.010 C 
ATOM     15  C   UNK A   0       2.600  -1.589   2.223  0.00  0.00    -0.010 C 
ATOM     16  C   UNK A   0      -1.468  -0.478   0.079  0.00  0.00    -0.010 C 
ATOM     17  H   UNK A   0       0.416   0.021   1.982  0.00  0.00    -0.084 HD
ATOM     18  H   UNK A   0       0.341  -1.472   1.351  0.00  0.00    -0.084 HD
ENDBRANCH   1  10
BRANCH   4  19
ATOM     19  C   UNK A   1       5.510  -0.282  -4.829  0.00  0.00    +0.133 C 
BRANCH  19  20
ATOM     20  C   UNK A   1       5.225   0.987  -5.635  0.00  0.00    +0.181 C 
BRANCH  20  21
ATOM     21  O   UNK A   1       4.430   0.658  -6.776  0.00  0.00    -0.393 OA
ATOM     22  H   UNK A   1       4.211   1.417  -7.333  0.00  0.00    +0.209 HD
ENDBRANCH  20  21
ENDBRANCH  19  20
BRANCH  19  23
ATOM     23  C   UNK A   1       6.153  -1.331  -5.739  0.00  0.00    +0.167 C 
BRANCH  23  24
ATOM     24  C   UNK A   1       6.321  -2.621  -4.979  0.00  0.00    -0.017 A 
ATOM     25  C   UNK A   1       5.276  -3.523  -4.909  0.00  0.00    +0.008 A 
ATOM     26  C   UNK A   1       5.429  -4.707  -4.212  0.00  0.00    +0.033 A 
ATOM     27  C   UNK A   1       6.629  -4.989  -3.585  0.00  0.00    +0.126 A 
ATOM     28  C   UNK A   1       7.674  -4.087  -3.655  0.00  0.00    +0.033 A 
ATOM     29  C   UNK A   1       7.522  -2.905  -4.356  0.00  0.00    +0.008 A 
BRANCH  27  30
ATOM     30  N   UNK A   1       6.793  -6.256  -2.837  0.00  0.00    +0.056 N 
ATOM     31  O   UNK A   1       5.879  -7.044  -2.775  0.00  0.00    -0.126 OA
ATOM     32  O   UNK A   1       7.842  -6.502  -2.289  0.00  0.00    -0.126 OA
ENDBRANCH  27  30
ENDBRANCH  23  24
BRANCH  23  33
ATOM     33  O   UNK A   1       5.315  -1.553  -6.876  0.00  0.00    -0.385 OA
ATOM     34  H   UNK A   1       4.429  -1.871  -6.655  0.00  0.00    +0.210 HD
ENDBRANCH  23  33
ENDBRANCH  19  23
ENDBRANCH   4  19
TORSDOF 8
