REMARK  Name = ZINC30363056
REMARK  9 active torsions:
REMARK  status: ('A' for Active; 'I' for Inactive)
REMARK    1  A    between atoms: C_1  and  C_2
REMARK    2  A    between atoms: C_2  and  C_3
REMARK    3  A    between atoms: C_2  and  C_4
REMARK    4  A    between atoms: C_4  and  C_6
REMARK    5  A    between atoms: C_4  and  N_21
REMARK    6  A    between atoms: N_8  and  C_9
REMARK    7  A    between atoms: C_9  and  C_10
REMARK    8  A    between atoms: C_10  and  N_11
REMARK    9  A    between atoms: C_22  and  C_24
REMARK                            x       y       z     vdW  Elec       q    Type
REMARK                         _______ _______ _______ _____ _____    ______ ____
ROOT
ATOM      1  C   UNL     1      -1.242  -2.056   0.094  0.00  0.00    +0.234 C 
ATOM      2  O   UNL     1      -1.649  -2.818  -0.757  0.00  0.00    -0.274 OA
ATOM      3  N   UNL     1      -0.709  -2.540   1.233  0.00  0.00    -0.316 N 
ATOM      4  H   UNL     1      -0.317  -1.933   1.881  0.00  0.00    +0.149 HD
ENDROOT
BRANCH   1   5
ATOM      5  C   UNL     1      -1.331  -0.567  -0.124  0.00  0.00    +0.162 C 
BRANCH   5   6
ATOM      6  N   UNL     1      -2.352  -0.282  -1.135  0.00  0.00    -0.300 N 
ATOM      7  C   UNL     1      -2.970   0.916  -1.150  0.00  0.00    +0.246 C 
ATOM      8  O   UNL     1      -2.680   1.760  -0.324  0.00  0.00    -0.270 OA
ATOM      9  H   UNL     1      -2.583  -0.955  -1.794  0.00  0.00    +0.150 HD
BRANCH   7  10
ATOM     10  C   UNL     1      -3.999   1.204  -2.170  0.00  0.00    +0.055 A 
ATOM     11  C   UNL     1      -4.339   0.235  -3.117  0.00  0.00    +0.014 A 
ATOM     12  C   UNL     1      -5.301   0.510  -4.066  0.00  0.00    +0.001 A 
ATOM     13  C   UNL     1      -5.929   1.743  -4.082  0.00  0.00    +0.001 A 
ATOM     14  C   UNL     1      -5.599   2.708  -3.149  0.00  0.00    +0.021 A 
ATOM     15  C   UNL     1      -4.641   2.444  -2.188  0.00  0.00    +0.053 A 
ATOM     16 CL   UNL     1      -4.232   3.654  -1.012  0.00  0.00    -0.083 Cl
ENDBRANCH   7  10
ENDBRANCH   5   6
BRANCH   5  18
ATOM     17  C   UNL     1       0.337  -0.618  -1.983  0.00  0.00    +0.009 C 
ATOM     18  C   UNL     1       0.023  -0.039  -0.602  0.00  0.00    +0.012 C 
ATOM     19  C   UNL     1      -0.027   1.488  -0.689  0.00  0.00    +0.009 C 
ENDBRANCH   5  18
ENDBRANCH   1   5
BRANCH   3  20
ATOM     20  C   UNL     1      -0.722  -3.981   1.493  0.00  0.00    +0.086 C 
BRANCH  20  21
ATOM     21  C   UNL     1      -0.060  -4.262   2.844  0.00  0.00    -0.059 C 
BRANCH  21  22
ATOM     22  N   UNL     1      -0.073  -5.707   3.105  0.00  0.00    +0.384 N 
ATOM     23  C   UNL     1       0.463  -5.970   4.449  0.00  0.00    -0.074 C 
ATOM     24  C   UNL     1       0.161  -7.422   4.820  0.00  0.00    +0.017 C 
ATOM     25  C   UNL     1       0.615  -8.337   3.711  0.00  0.00    -0.048 A 
ATOM     26  C   UNL     1       0.753  -9.690   3.979  0.00  0.00    +0.004 A 
ATOM     27  C   UNL     1       1.164 -10.558   2.988  0.00  0.00    +0.000 A 
ATOM     28  C   UNL     1       1.438 -10.076   1.721  0.00  0.00    +0.000 A 
ATOM     29  C   UNL     1       1.302  -8.729   1.454  0.00  0.00    +0.002 A 
ATOM     30  C   UNL     1       0.891  -7.854   2.449  0.00  0.00    -0.061 A 
ATOM     31  C   UNL     1       0.764  -6.391   2.115  0.00  0.00    -0.043 C 
ATOM     32  H   UNL     1      -1.019  -6.053   3.044  0.00  0.00    -0.081 HD
ENDBRANCH  21  22
ENDBRANCH  20  21
ENDBRANCH   3  20
TORSDOF 7
