REMARK  Name = ZINC40730484
REMARK  11 active torsions:
REMARK  status: ('A' for Active; 'I' for Inactive)
REMARK    1  A    between atoms: C_1  and  C_2
REMARK    2  A    between atoms: C_2  and  CA_3
REMARK    3  A    between atoms: CA_3  and  C_5
REMARK    4  A    between atoms: CA_3  and  N_7
REMARK    5  A    between atoms: C_5  and  O_6
REMARK    6  A    between atoms: N_7  and  C_8
REMARK    7  A    between atoms: C_8  and  C_9
REMARK    8  A    between atoms: C_12  and  O_16
REMARK    9  A    between atoms: O_16  and  C_17
REMARK   10  A    between atoms: C_17  and  C_18
REMARK   11  A    between atoms: C_17  and  C_19
REMARK                            x       y       z     vdW  Elec       q    Type
REMARK                         _______ _______ _______ _____ _____    ______ ____
ROOT
ATOM      1  C   UNL     1      -3.155   1.419   2.807  0.00  0.00    -0.062 A 
ATOM      2  C   UNL     1      -4.534   1.333   2.866  0.00  0.00    +0.020 A 
ATOM      3  C   UNL     1      -5.192   1.576   4.058  0.00  0.00    +0.061 A 
ATOM      4  C   UNL     1      -4.468   1.906   5.194  0.00  0.00    +0.149 A 
ATOM      5  C   UNL     1      -3.084   1.991   5.132  0.00  0.00    +0.061 A 
ATOM      6  C   UNL     1      -2.431   1.742   3.939  0.00  0.00    +0.020 A 
ATOM      7 BR   UNL     1      -2.093   2.441   6.678  0.00  0.00    -0.046 Br
ATOM      8 BR   UNL     1      -7.078   1.460   4.138  0.00  0.00    -0.046 Br
ENDROOT
BRANCH   1   9
ATOM      9  C   UNL     1      -2.441   1.154   1.507  0.00  0.00    -0.046 C 
BRANCH   9  10
ATOM     10  N   UNL     1      -2.117  -0.276   1.409  0.00  0.00    +0.385 N 
ATOM     11  H1  UNL     1      -2.970  -0.811   1.355  0.00  0.00    -0.085 HD
ATOM     12  H2  UNL     1      -1.593  -0.558   2.224  0.00  0.00    -0.085 HD
BRANCH  10  13
ATOM     13  CA  UNL     1      -1.312  -0.514   0.203  0.00  0.00    -0.046 C 
BRANCH  13  15
ATOM     14  C   UNL     1       0.084  -2.244   1.345  0.00  0.00    +0.002 C 
ATOM     15  C   UNL     1      -0.861  -1.976   0.172  0.00  0.00    -0.017 C 
ENDBRANCH  13  15
BRANCH  13  16
ATOM     16  C   UNL     1      -2.153  -0.212  -1.039  0.00  0.00    +0.140 C 
BRANCH  16  17
ATOM     17  O   UNL     1      -3.236  -1.141  -1.118  0.00  0.00    -0.397 OA
ATOM     18  H   UNL     1      -3.812  -1.009  -1.883  0.00  0.00    +0.209 HD
ENDBRANCH  16  17
ENDBRANCH  13  16
ENDBRANCH  10  13
ENDBRANCH   9  10
ENDBRANCH   1   9
BRANCH   4  19
ATOM     19  O   UNL     1      -5.112   2.147   6.367  0.00  0.00    -0.487 OA
BRANCH  19  20
ATOM     20  C   UNL     1      -5.331   1.027   7.228  0.00  0.00    +0.167 C 
ATOM     21  C   UNL     1      -4.143   0.877   8.180  0.00  0.00    +0.051 C 
ATOM     22  C   UNL     1      -6.610   1.249   8.038  0.00  0.00    +0.051 C 
ENDBRANCH  19  20
ENDBRANCH   4  19
TORSDOF 8
