REMARK  Name = ZINC36587088
REMARK  18 active torsions:
REMARK  status: ('A' for Active; 'I' for Inactive)
REMARK    1  A    between atoms: C_1  and  C_2
REMARK    2  A    between atoms: C_2  and  C_3
REMARK    3  A    between atoms: C_2  and  C_4
REMARK    4  A    between atoms: C_2  and  C_5
REMARK    5  A    between atoms: C_5  and  C_6
REMARK    6  A    between atoms: C_6  and  C_7
REMARK    7  A    between atoms: C_6  and  C_8
REMARK    8  A    between atoms: C_6  and  N_9
REMARK    9  A    between atoms: C_10  and  C_12
REMARK   10  A    between atoms: C_12  and  C_14
REMARK   11  A    between atoms: C_12  and  N_21
REMARK   12  A    between atoms: N_21  and  C_32
REMARK   13  A    between atoms: C_22  and  C_24
REMARK   14  A    between atoms: C_28  and  O_31
REMARK   15  A    between atoms: C_29  and  O_30
REMARK   16  A    between atoms: C_32  and  C_33
REMARK   17  A    between atoms: C_32  and  C_34
REMARK   18  A    between atoms: C_32  and  C_35
REMARK                            x       y       z     vdW  Elec       q    Type
REMARK                         _______ _______ _______ _____ _____    ______ ____
ROOT
ATOM      1  C   UNL     1       5.440  -1.404  -1.972  0.00  0.00    +0.193 C 
ENDROOT
BRANCH   1   2
ATOM      2  C   UNL     1       6.233  -2.685  -1.970  0.00  0.00    -0.018 A 
ATOM      3  C   UNL     1       7.123  -2.945  -0.944  0.00  0.00    +0.007 A 
ATOM      4  C   UNL     1       7.851  -4.120  -0.941  0.00  0.00    +0.020 A 
ATOM      5  C   UNL     1       7.689  -5.036  -1.965  0.00  0.00    +0.041 A 
ATOM      6  C   UNL     1       6.798  -4.776  -2.991  0.00  0.00    +0.020 A 
ATOM      7  C   UNL     1       6.066  -3.603  -2.990  0.00  0.00    +0.007 A 
ATOM      8 CL   UNL     1       8.603  -6.512  -1.963  0.00  0.00    -0.084 Cl
ENDBRANCH   1   2
BRANCH   1  10
ATOM      9  N   UNL     1       3.319  -2.601  -1.538  0.00  0.00    -0.308 N 
ATOM     10  C   UNL     1       4.160  -1.604  -1.201  0.00  0.00    +0.239 C 
ATOM     11  O   UNL     1       3.888  -0.867  -0.276  0.00  0.00    -0.273 OA
ATOM     12  H   UNL     1       3.537  -3.190  -2.277  0.00  0.00    +0.149 HD
BRANCH   9  13
ATOM     13  C   UNL     1       2.075  -2.795  -0.788  0.00  0.00    +0.030 C 
ATOM     14  C   UNL     1       1.220  -1.530  -0.882  0.00  0.00    +0.031 C 
ATOM     15  C   UNL     1       2.404  -3.081   0.679  0.00  0.00    +0.031 C 
BRANCH  13  16
ATOM     16  C   UNL     1       1.304  -3.977  -1.378  0.00  0.00    +0.031 C 
BRANCH  16  18
ATOM     17  C   UNL     1       2.456  -3.977  -3.594  0.00  0.00    +0.010 C 
ATOM     18  C   UNL     1       1.119  -3.766  -2.882  0.00  0.00    -0.036 C 
ATOM     19  C   UNL     1       0.622  -2.342  -3.140  0.00  0.00    +0.010 C 
ATOM     20  C   UNL     1       0.093  -4.769  -3.415  0.00  0.00    +0.010 C 
ENDBRANCH  16  18
ENDBRANCH  13  16
ENDBRANCH   9  13
ENDBRANCH   1  10
BRANCH   1  21
ATOM     21  N   UNL     1       6.228  -0.341  -1.344  0.00  0.00    -0.277 N 
ATOM     22  C   UNL     1       6.598  -0.449  -0.053  0.00  0.00    +0.252 C 
ATOM     23  O   UNL     1       6.276  -1.428   0.592  0.00  0.00    -0.270 OA
BRANCH  22  24
ATOM     24  C   UNL     1       7.396   0.619   0.578  0.00  0.00    +0.082 A 
ATOM     25  C   UNL     1       7.896   1.672  -0.194  0.00  0.00    +0.017 A 
ATOM     26  C   UNL     1       8.640   2.668   0.399  0.00  0.00    +0.005 A 
ATOM     27  C   UNL     1       8.897   2.634   1.760  0.00  0.00    +0.049 A 
ATOM     28  C   UNL     1       8.409   1.599   2.538  0.00  0.00    +0.159 A 
ATOM     29  C   UNL     1       7.651   0.588   1.954  0.00  0.00    +0.171 A 
BRANCH  29  30
ATOM     30  O   UNL     1       7.165  -0.426   2.715  0.00  0.00    -0.503 OA
ATOM     31  H   UNL     1       7.762  -1.184   2.788  0.00  0.00    +0.292 HD
ENDBRANCH  29  30
BRANCH  28  32
ATOM     32  O   UNL     1       8.666   1.572   3.873  0.00  0.00    -0.503 OA
ATOM     33  H   UNL     1       8.002   2.025   4.410  0.00  0.00    +0.292 HD
ENDBRANCH  28  32
ENDBRANCH  22  24
BRANCH  21  34
ATOM     34  C   UNL     1       6.612   0.841  -2.119  0.00  0.00    +0.030 C 
ATOM     35  C   UNL     1       5.968   0.774  -3.505  0.00  0.00    +0.031 C 
ATOM     36  C   UNL     1       6.137   2.103  -1.396  0.00  0.00    +0.031 C 
ATOM     37  C   UNL     1       8.135   0.881  -2.266  0.00  0.00    +0.031 C 
ENDBRANCH  21  34
ENDBRANCH   1  21
TORSDOF 10
