REMARK  Name = ZINC67641505
REMARK  7 active torsions:
REMARK  status: ('A' for Active; 'I' for Inactive)
REMARK    1  A    between atoms: C_8  and  C_10
REMARK    2  A    between atoms: C_14  and  O_16
REMARK    3  A    between atoms: N_20  and  C_22
REMARK    4  A    between atoms: C_22  and  C_23
REMARK    5  A    between atoms: C_22  and  C_25
REMARK    6  A    between atoms: C_23  and  O_24
REMARK    7  A    between atoms: C_25  and  O_26
REMARK                            x       y       z     vdW  Elec       q    Type
REMARK                         _______ _______ _______ _____ _____    ______ ____
ROOT
ATOM      1  C   UNL     1       3.276  -3.545  -0.014  0.00  0.00    +0.011 A 
ATOM      2  C   UNL     1       4.571  -4.070  -0.019  0.00  0.00    +0.016 A 
ATOM      3  C   UNL     1       4.753  -5.434  -0.084  0.00  0.00    -0.018 A 
ATOM      4  C   UNL     1       3.667  -6.285  -0.153  0.00  0.00    +0.163 A 
ATOM      5  C   UNL     1       2.371  -5.771  -0.138  0.00  0.00    +0.159 A 
ATOM      6  C   UNL     1       2.177  -4.404  -0.064  0.00  0.00    +0.059 A 
ATOM      7  O   UNL     1       3.866  -7.629  -0.263  0.00  0.00    -0.490 OA
ATOM      8  C   UNL     1       4.433  -8.063  -1.505  0.00  0.00    +0.211 C 
ATOM      9  C   UNL     1       5.941  -7.962  -1.472  0.00  0.00    -0.036 C 
ATOM     10  N   UNL     1       6.443  -6.595  -1.380  0.00  0.00    +0.389 N 
ATOM     11  C   UNL     1       6.155  -6.012  -0.066  0.00  0.00    -0.038 C 
ATOM     12  H   UNL     1       6.005  -6.033  -2.094  0.00  0.00    -0.081 HD
ENDROOT
BRANCH   1  20
ATOM     13  C   UNL     1       0.900   2.131   0.221  0.00  0.00    +0.002 A 
ATOM     14  C   UNL     1       2.148   2.738   0.262  0.00  0.00    +0.001 A 
ATOM     15  C   UNL     1       3.285   1.952   0.237  0.00  0.00    +0.017 A 
ATOM     16  C   UNL     1       3.160   0.586   0.173  0.00  0.00    +0.040 A 
ATOM     17  C   UNL     1       1.903  -0.062   0.131  0.00  0.00    +0.079 A 
ATOM     18  C   UNL     1       0.766   0.779   0.158  0.00  0.00    +0.029 A 
ATOM     19  N   UNL     1       1.942  -1.408   0.070  0.00  0.00    -0.239 NA
ATOM     20  C   UNL     1       3.071  -2.083   0.051  0.00  0.00    +0.110 A 
ATOM     21  S   UNL     1       4.294  -0.781   0.122  0.00  0.00    -0.067 S 
ENDBRANCH   1  20
BRANCH   5  22
ATOM     22  O   UNL     1       1.303  -6.611  -0.190  0.00  0.00    -0.503 OA
ATOM     23  H   UNL     1       0.986  -6.899   0.677  0.00  0.00    +0.292 HD
ENDBRANCH   5  22
BRANCH  10  24
ATOM     24  C   UNL     1       7.896  -6.600  -1.597  0.00  0.00    -0.016 C 
BRANCH  24  25
ATOM     25  C   UNL     1       8.209  -7.264  -2.939  0.00  0.00    +0.143 C 
BRANCH  25  26
ATOM     26  O   UNL     1       7.617  -6.506  -3.995  0.00  0.00    -0.397 OA
ATOM     27  H   UNL     1       7.775  -6.870  -4.877  0.00  0.00    +0.209 HD
ENDBRANCH  25  26
ENDBRANCH  24  25
BRANCH  24  28
ATOM     28  C   UNL     1       8.415  -5.161  -1.606  0.00  0.00    +0.143 C 
BRANCH  28  29
ATOM     29  O   UNL     1       7.832  -4.452  -2.701  0.00  0.00    -0.397 OA
ATOM     30  H   UNL     1       8.117  -3.530  -2.769  0.00  0.00    +0.209 HD
ENDBRANCH  28  29
ENDBRANCH  24  28
ENDBRANCH  10  24
TORSDOF 7
