REMARK  Name = ZINC48303100
REMARK  8 active torsions:
REMARK  status: ('A' for Active; 'I' for Inactive)
REMARK    1  A    between atoms: C_1  and  N_2
REMARK    2  A    between atoms: N_2  and  C_3
REMARK    3  A    between atoms: C_7  and  N_10
REMARK    4  A    between atoms: N_13  and  C_14
REMARK    5  A    between atoms: C_14  and  C_15
REMARK    6  A    between atoms: C_15  and  C_16
REMARK    7  A    between atoms: N_22  and  C_23
REMARK    8  A    between atoms: N_22  and  C_24
REMARK                            x       y       z     vdW  Elec       q    Type
REMARK                         _______ _______ _______ _____ _____    ______ ____
ROOT
ATOM      1  N   UNL     1      -4.786  -2.749   0.032  0.00  0.00    -0.268 N 
ATOM      2  C   UNL     1      -5.930  -2.046   0.143  0.00  0.00    +0.304 C 
ATOM      3  O   UNL     1      -5.899  -0.830   0.145  0.00  0.00    -0.253 OA
ATOM      4  N   UNL     1      -7.109  -2.690   0.252  0.00  0.00    -0.299 N 
ATOM      5  H   UNL     1      -4.816  -3.715  -0.047  0.00  0.00    +0.156 HD
ATOM      6  H   UNL     1      -7.133  -3.660   0.250  0.00  0.00    +0.150 HD
ENDROOT
BRANCH   1  13
ATOM      7  C   UNL     1       1.203  -0.803  -0.863  0.00  0.00    +0.130 C 
ATOM      8  N   UNL     1       0.123  -0.228  -0.058  0.00  0.00    -0.323 N 
ATOM      9  C   UNL     1       0.354   0.999   0.709  0.00  0.00    +0.130 C 
ATOM     10  C   UNL     1      -1.123  -0.848  -0.021  0.00  0.00    +0.098 A 
ATOM     11  C   UNL     1      -2.145  -0.292   0.742  0.00  0.00    +0.043 A 
ATOM     12  C   UNL     1      -3.379  -0.915   0.772  0.00  0.00    +0.028 A 
ATOM     13  C   UNL     1      -3.551  -2.083   0.031  0.00  0.00    +0.051 A 
ATOM     14  C   UNL     1      -2.488  -2.579  -0.706  0.00  0.00    +0.107 A 
ATOM     15  N   UNL     1      -1.325  -1.955  -0.716  0.00  0.00    -0.348 N 
ATOM     16  H   UNL     1      -0.597  -2.321  -1.244  0.00  0.00    +0.167 HD
ENDBRANCH   1  13
BRANCH   4  17
ATOM     17  C   UNL     1      -8.353  -1.926   0.372  0.00  0.00    +0.113 C 
BRANCH  17  18
ATOM     18  C   UNL     1      -9.536  -2.891   0.480  0.00  0.00    +0.095 C 
BRANCH  18  19
ATOM     19  C   UNL     1     -10.816  -2.105   0.604  0.00  0.00    +0.138 A 
ATOM     20  N   UNL     1     -11.265  -1.761   1.798  0.00  0.00    -0.200 NA
ATOM     21  C   UNL     1     -12.395  -1.067   1.911  0.00  0.00    +0.217 A 
ATOM     22  N   UNL     1     -13.071  -0.719   0.822  0.00  0.00    -0.181 NA
ATOM     23  C   UNL     1     -12.616  -1.067  -0.377  0.00  0.00    +0.222 A 
ATOM     24  N   UNL     1     -11.483  -1.757  -0.482  0.00  0.00    -0.199 NA
ATOM     25  N   UNL     1     -13.315  -0.708  -1.511  0.00  0.00    -0.306 N 
ATOM     26  C   UNL     1     -14.560   0.056  -1.394  0.00  0.00    +0.132 C 
ATOM     27  C   UNL     1     -12.813  -1.092  -2.833  0.00  0.00    +0.132 C 
ATOM     28  N   UNL     1     -12.863  -0.708   3.159  0.00  0.00    -0.327 N 
ATOM     29  H   UNL     1     -12.369  -0.963   3.954  0.00  0.00    +0.145 HD
ATOM     30  H   UNL     1     -13.686  -0.202   3.241  0.00  0.00    +0.145 HD
ENDBRANCH  18  19
ENDBRANCH  17  18
ENDBRANCH   4  17
TORSDOF 4
