REMARK  Name = ZINC03831869
REMARK  7 active torsions:
REMARK  status: ('A' for Active; 'I' for Inactive)
REMARK    1  A    between atoms: C_5  and  C_7
REMARK    2  A    between atoms: C_7  and  N_8
REMARK    3  A    between atoms: C_9  and  C_11
REMARK    4  A    between atoms: N_15  and  C_16
REMARK    5  A    between atoms: C_16  and  C_17
REMARK    6  A    between atoms: C_21  and  C_23
REMARK    7  A    between atoms: C_29  and  O_30
REMARK                            x       y       z     vdW  Elec       q    Type
REMARK                         _______ _______ _______ _____ _____    ______ ____
ROOT
ATOM      1  C   UNL     1       4.063   5.118  -1.939  0.00  0.00    +0.106 A 
ATOM      2  C   UNL     1       4.300   5.723  -3.134  0.00  0.00    +0.044 A 
ATOM      3  C   UNL     1       3.293   6.696  -3.332  0.00  0.00    +0.042 A 
ATOM      4  C   UNL     1       2.442   6.643  -2.210  0.00  0.00    +0.053 A 
ATOM      5  N   UNL     1       2.929   5.668  -1.371  0.00  0.00    -0.332 N 
ATOM      6  C   UNL     1       1.351   7.503  -2.135  0.00  0.00    +0.026 A 
ATOM      7  C   UNL     1       1.105   8.398  -3.154  0.00  0.00    +0.006 A 
ATOM      8  C   UNL     1       1.938   8.456  -4.262  0.00  0.00    +0.046 A 
ATOM      9  C   UNL     1       3.029   7.615  -4.362  0.00  0.00    +0.126 A 
ENDROOT
BRANCH   1  11
ATOM     10  N   UNL     1       5.900   3.515  -2.049  0.00  0.00    -0.305 N 
ATOM     11  C   UNL     1       4.880   4.049  -1.349  0.00  0.00    +0.261 C 
ATOM     12  O   UNL     1       4.635   3.645  -0.228  0.00  0.00    -0.269 OA
ATOM     13  H   UNL     1       6.052   3.787  -2.968  0.00  0.00    +0.149 HD
BRANCH  10  14
ATOM     14  C   UNL     1       6.780   2.526  -1.423  0.00  0.00    +0.160 C 
BRANCH  14  19
ATOM     15  C   UNL     1      10.028   2.301  -3.322  0.00  0.00    +0.003 A 
ATOM     16  C   UNL     1       9.707   1.283  -4.207  0.00  0.00    +0.020 A 
ATOM     17  C   UNL     1       8.450   0.712  -4.150  0.00  0.00    +0.111 A 
ATOM     18  N   UNL     1       7.563   1.122  -3.264  0.00  0.00    -0.258 NA
ATOM     19  C   UNL     1       7.832   2.091  -2.411  0.00  0.00    +0.058 A 
ATOM     20  C   UNL     1       9.068   2.708  -2.409  0.00  0.00    +0.025 A 
ENDBRANCH  14  19
ENDBRANCH  10  14
ENDBRANCH   1  11
BRANCH   9  21
ATOM     21  O   UNL     1       3.841   7.675  -5.448  0.00  0.00    -0.506 OA
ATOM     22  H   UNL     1       3.574   7.090  -6.171  0.00  0.00    +0.292 HD
ENDBRANCH   9  21
BRANCH   5  23
ATOM     23  C   UNL     1       2.346   5.282  -0.084  0.00  0.00    +0.157 C 
BRANCH  23  24
ATOM     24  C   UNL     1       1.290   4.231  -0.306  0.00  0.00    -0.027 A 
ATOM     25  C   UNL     1       1.635   2.891  -0.299  0.00  0.00    +0.005 A 
ATOM     26  C   UNL     1       0.671   1.921  -0.502  0.00  0.00    +0.001 A 
ATOM     27  C   UNL     1      -0.643   2.285  -0.720  0.00  0.00    +0.011 A 
ATOM     28  C   UNL     1      -0.999   3.633  -0.723  0.00  0.00    +0.012 A 
ATOM     29  C   UNL     1      -0.021   4.607  -0.516  0.00  0.00    +0.016 A 
BRANCH  28  30
ATOM     30  C   UNL     1      -2.407   4.030  -0.949  0.00  0.00    +0.094 C 
ATOM     31  H   UNL     1      -3.632   5.649  -1.095  0.00  0.00    +0.157 HD
ATOM     32  N   UNL     1      -3.370   3.066  -1.152  0.00  0.00    -0.345 N 
ATOM     33  H   UNL     1      -3.126   2.127  -1.147  0.00  0.00    +0.144 HD
ATOM     34  H   UNL     1      -4.293   3.325  -1.300  0.00  0.00    +0.144 HD
ATOM     35  N   UNL     1      -2.676   5.326  -0.944  0.00  0.00    -0.387 N 
ATOM     36  H   UNL     1      -1.923   6.006  -0.788  0.00  0.00    +0.157 HD
ENDBRANCH  28  30
ENDBRANCH  23  24
ENDBRANCH   5  23
TORSDOF 7
