REMARK  Name = ZINC16958024
REMARK  10 active torsions:
REMARK  status: ('A' for Active; 'I' for Inactive)
REMARK    1  A    between atoms: C_1  and  O_2
REMARK    2  A    between atoms: O_2  and  C_3
REMARK    3  A    between atoms: C_3  and  C_5
REMARK    4  A    between atoms: C_5  and  C_8
REMARK    5  A    between atoms: N_6  and  N_7
REMARK    6  A    between atoms: C_8  and  C_10
REMARK    7  A    between atoms: C_8  and  C_24
REMARK    8  A    between atoms: C_16  and  N_21
REMARK    9  A    between atoms: C_24  and  C_26
REMARK   10  A    between atoms: N_28  and  C_29
REMARK                            x       y       z     vdW  Elec       q    Type
REMARK                         _______ _______ _______ _____ _____    ______ ____
ROOT
ATOM      1  C   UNL     1       3.684   1.707  -0.061  0.00  0.00    +0.176 C 
ENDROOT
BRANCH   1   2
ATOM      2  C   UNL     1       4.760   0.957   0.682  0.00  0.00    +0.125 A 
ATOM      3  C   UNL     1       4.603   0.683   2.115  0.00  0.00    +0.293 A 
ATOM      4  O   UNL     1       3.608   1.057   2.708  0.00  0.00    -0.264 OA
ATOM      5  N   UNL     1       5.575   0.009   2.767  0.00  0.00    -0.206 NA
ATOM      6  C   UNL     1       6.690  -0.402   2.065  0.00  0.00    +0.095 A 
ATOM      7  C   UNL     1       7.709  -1.098   2.708  0.00  0.00    +0.062 A 
ATOM      8  C   UNL     1       8.817  -1.504   1.997  0.00  0.00    +0.128 A 
ATOM      9  C   UNL     1       8.926  -1.224   0.641  0.00  0.00    +0.035 A 
ATOM     10  C   UNL     1       7.940  -0.543  -0.010  0.00  0.00    +0.032 A 
ATOM     11  C   UNL     1       6.801  -0.118   0.691  0.00  0.00    +0.090 A 
ATOM     12  N   UNL     1       5.822   0.549   0.049  0.00  0.00    -0.243 NA
BRANCH   8  13
ATOM     13  N   UNL     1       9.900  -2.244   2.683  0.00  0.00    +0.056 N 
ATOM     14  O   UNL     1      10.881  -2.605   2.059  0.00  0.00    -0.126 OA
ATOM     15  O   UNL     1       9.809  -2.492   3.872  0.00  0.00    -0.126 OA
ENDBRANCH   8  13
ENDBRANCH   1   2
BRANCH   1  16
ATOM     16  C   UNL     1       4.137   1.964  -1.476  0.00  0.00    +0.159 C 
ATOM     17  N   UNL     1       4.388   3.181  -1.869  0.00  0.00    -0.186 NA
BRANCH  17  18
ATOM     18  N   UNL     1       4.360   4.152  -1.019  0.00  0.00    -0.282 N 
ATOM     19  H   UNL     1       4.572   5.179  -1.351  0.00  0.00    +0.164 HD
ATOM     20  H   UNL     1       4.125   3.952   0.037  0.00  0.00    +0.164 HD
ENDBRANCH  17  18
BRANCH  16  21
ATOM     21  C   UNL     1       4.295   0.848  -2.406  0.00  0.00    +0.356 C 
ATOM     22  O   UNL     1       4.062  -0.288  -2.040  0.00  0.00    -0.244 OA
BRANCH  21  24
ATOM     23  C   UNL     1       4.834  -0.058  -4.528  0.00  0.00    +0.280 C 
ATOM     24  O   UNL     1       4.701   1.079  -3.672  0.00  0.00    -0.464 OA
ENDBRANCH  21  24
ENDBRANCH  16  21
ENDBRANCH   1  16
BRANCH   1  25
ATOM     25  C   UNL     1       2.421   0.886  -0.080  0.00  0.00    +0.237 C 
ATOM     26  O   UNL     1       2.481  -0.317   0.012  0.00  0.00    -0.286 OA
BRANCH  25  27
ATOM     27  C   UNL     1       1.098   1.558  -0.212  0.00  0.00    +0.317 C 
ATOM     28  O   UNL     1       1.038   2.766  -0.304  0.00  0.00    -0.262 OA
ATOM     29  N   UNL     1      -0.033   0.824  -0.228  0.00  0.00    -0.169 NA
BRANCH  29  30
ATOM     30  C   UNL     1      -1.251   1.443  -0.355  0.00  0.00    +0.253 A 
ATOM     31  N   UNL     1      -1.455   2.789  -0.462  0.00  0.00    -0.108 NA
ATOM     32  N   UNL     1      -2.843   2.972  -0.579  0.00  0.00    -0.120 NA
ATOM     33  C   UNL     1      -3.398   1.743  -0.530  0.00  0.00    +0.201 A 
ATOM     34  S   UNL     1      -5.072   1.399  -0.624  0.00  0.00    -0.009 SA
ATOM     35  N   UNL     1      -2.421   0.839  -0.395  0.00  0.00    -0.300 N 
ATOM     36  H   UNL     1      -2.668  -0.232  -0.335  0.00  0.00    +0.171 HD
ENDBRANCH  29  30
ENDBRANCH  25  27
ENDBRANCH   1  25
TORSDOF 9
