REMARK  Name = ZINC39673621
REMARK  13 active torsions:
REMARK  status: ('A' for Active; 'I' for Inactive)
REMARK    1  A    between atoms: C_1  and  C_2
REMARK    2  A    between atoms: C_2  and  C_3
REMARK    3  A    between atoms: C_3  and  C_4
REMARK    4  A    between atoms: C_4  and  C_6
REMARK    5  A    between atoms: C_4  and  N_7
REMARK    6  A    between atoms: C_8  and  C_10
REMARK    7  A    between atoms: C_21  and  C_23
REMARK    8  A    between atoms: C_25  and  O_33
REMARK    9  A    between atoms: C_26  and  O_31
REMARK   10  A    between atoms: C_27  and  O_29
REMARK   11  A    between atoms: O_29  and  C_30
REMARK   12  A    between atoms: O_31  and  C_32
REMARK   13  A    between atoms: O_33  and  C_34
REMARK                            x       y       z     vdW  Elec       q    Type
REMARK                         _______ _______ _______ _____ _____    ______ ____
ROOT
ATOM      1  C   UNL     1       2.585  -4.196  -2.104  0.00  0.00    +0.100 C 
ATOM      2  C   UNL     1       3.973  -4.185  -1.424  0.00  0.00    +0.121 C 
ATOM      3  N   UNL     1       4.169  -5.577  -0.952  0.00  0.00    -0.296 N 
ATOM      4  C   UNL     1       3.615  -6.417  -2.041  0.00  0.00    +0.115 C 
ATOM      5  C   UNL     1       2.356  -5.661  -2.510  0.00  0.00    -0.004 C 
ATOM      6  C   UNL     1       2.207  -5.772  -4.025  0.00  0.00    -0.010 C 
ATOM      7  C   UNL     1       1.921  -7.229  -4.400  0.00  0.00    -0.082 C 
ATOM      8  N   UNL     1       0.692  -7.676  -3.733  0.00  0.00    +0.379 N 
ATOM      9  C   UNL     1       0.876  -7.654  -2.277  0.00  0.00    -0.082 C 
ATOM     10  C   UNL     1       1.117  -6.215  -1.812  0.00  0.00    -0.010 C 
ATOM     11  C   UNL     1       4.726  -5.986   0.205  0.00  0.00    +0.247 C 
ATOM     12  O   UNL     1       5.022  -5.172   1.058  0.00  0.00    -0.270 OA
ATOM     13  H   UNL     1      -0.067  -7.061  -3.984  0.00  0.00    -0.086 HD
ATOM     14  H   UNL     1       0.473  -8.615  -4.029  0.00  0.00    -0.086 HD
ENDROOT
BRANCH  11  15
ATOM     15  C   UNL     1       4.975  -7.422   0.437  0.00  0.00    +0.044 A 
ATOM     16  C   UNL     1       5.063  -8.300  -0.646  0.00  0.00    +0.062 A 
ATOM     17  C   UNL     1       5.297  -9.645  -0.426  0.00  0.00    +0.166 A 
ATOM     18  C   UNL     1       5.444 -10.124   0.873  0.00  0.00    +0.204 A 
ATOM     19  C   UNL     1       5.357  -9.250   1.954  0.00  0.00    +0.166 A 
ATOM     20  C   UNL     1       5.130  -7.904   1.739  0.00  0.00    +0.062 A 
BRANCH  19  21
ATOM     21  O   UNL     1       5.502  -9.721   3.222  0.00  0.00    -0.491 OA
ATOM     22  C   UNL     1       5.400  -8.770   4.283  0.00  0.00    +0.277 C 
ENDBRANCH  19  21
BRANCH  18  23
ATOM     23  O   UNL     1       5.674 -11.446   1.087  0.00  0.00    -0.488 OA
ATOM     24  C   UNL     1       7.038 -11.870   1.122  0.00  0.00    +0.277 C 
ENDBRANCH  18  23
BRANCH  17  25
ATOM     25  O   UNL     1       5.382 -10.501  -1.479  0.00  0.00    -0.491 OA
ATOM     26  C   UNL     1       5.220  -9.942  -2.784  0.00  0.00    +0.277 C 
ENDBRANCH  17  25
ENDBRANCH  11  15
BRANCH   1  28
ATOM     27  N   UNL     1       0.376  -3.208  -1.593  0.00  0.00    -0.312 N 
ATOM     28  C   UNL     1       1.522  -3.748  -1.134  0.00  0.00    +0.218 C 
ATOM     29  O   UNL     1       1.699  -3.872   0.059  0.00  0.00    -0.275 OA
ATOM     30  H   UNL     1       0.235  -3.109  -2.547  0.00  0.00    +0.149 HD
BRANCH  27  31
ATOM     31  C   UNL     1      -0.657  -2.773  -0.650  0.00  0.00    +0.070 C 
ATOM     32  C   UNL     1      -0.350  -1.350  -0.177  0.00  0.00    +0.028 C 
BRANCH  31  33
ATOM     33  C   UNL     1      -2.022  -2.796  -1.342  0.00  0.00    +0.022 C 
BRANCH  33  35
ATOM     34  C   UNL     1      -3.750  -4.261  -2.396  0.00  0.00    +0.004 C 
ATOM     35  C   UNL     1      -2.386  -4.237  -1.704  0.00  0.00    -0.002 C 
ENDBRANCH  33  35
ENDBRANCH  31  33
ENDBRANCH  27  31
ENDBRANCH   1  28
TORSDOF 8
