REMARK  Name = ZINC04097403
REMARK  11 active torsions:
REMARK  status: ('A' for Active; 'I' for Inactive)
REMARK    1  A    between atoms: C_1  and  C_2
REMARK    2  A    between atoms: C_2  and  C_3
REMARK    3  A    between atoms: C_2  and  C_4
REMARK    4  A    between atoms: C_4  and  C_5
REMARK    5  A    between atoms: C_15  and  O_46
REMARK    6  A    between atoms: C_19  and  C_21
REMARK    7  A    between atoms: C_19  and  N_24
REMARK    8  A    between atoms: C_21  and  C_22
REMARK    9  A    between atoms: C_21  and  C_23
REMARK   10  A    between atoms: C_25  and  C_27
REMARK   11  A    between atoms: C_45  and  N_83
REMARK                            x       y       z     vdW  Elec       q    Type
REMARK                         _______ _______ _______ _____ _____    ______ ____
ROOT
ATOM      1  C   UNL     1      -2.796  -2.593   4.690  0.00  0.00    +0.167 C 
ATOM      2  C   UNL     1      -2.353  -4.031   4.706  0.00  0.00    +0.237 C 
ATOM      3  O   UNL     1      -1.813  -4.477   5.697  0.00  0.00    -0.274 OA
ATOM      4  N   UNL     1      -2.544  -4.828   3.647  0.00  0.00    -0.290 N 
ATOM      5  C   UNL     1      -2.340  -6.288   3.611  0.00  0.00    +0.108 C 
ATOM      6  C   UNL     1      -3.256  -6.842   2.502  0.00  0.00    +0.021 C 
ATOM      7  C   UNL     1      -3.954  -5.599   1.899  0.00  0.00    +0.031 C 
ATOM      8  C   UNL     1      -3.005  -4.449   2.304  0.00  0.00    +0.156 C 
ATOM      9  C   UNL     1      -3.742  -3.124   2.316  0.00  0.00    +0.269 C 
ATOM     10  N   UNL     1      -3.193  -2.222   3.330  0.00  0.00    -0.233 N 
ATOM     11  C   UNL     1      -3.095  -0.984   2.794  0.00  0.00    +0.271 C 
ATOM     12  O   UNL     1      -2.660   0.004   3.346  0.00  0.00    -0.270 OA
ATOM     13  C   UNL     1      -3.628  -1.059   1.380  0.00  0.00    +0.220 C 
ATOM     14  O   UNL     1      -3.616  -2.461   1.048  0.00  0.00    -0.298 OA
ENDROOT
BRANCH  13  15
ATOM     15  N   UNL     1      -2.758  -0.313   0.468  0.00  0.00    -0.279 N 
ATOM     16  C   UNL     1      -2.374   0.941   0.777  0.00  0.00    +0.220 C 
ATOM     17  O   UNL     1      -2.813   1.482   1.770  0.00  0.00    -0.275 OA
ATOM     18  H   UNL     1      -2.457  -0.722  -0.359  0.00  0.00    +0.152 HD
BRANCH  16  19
ATOM     19  C   UNL     1      -1.401   1.672  -0.111  0.00  0.00    +0.081 C 
ATOM     20  C   UNL     1      -1.107   3.060   0.478  0.00  0.00    -0.061 C 
ATOM     21  C   UNL     1       1.196   3.021  -0.319  0.00  0.00    -0.033 C 
ATOM     22  C   UNL     1       2.067   3.522  -1.480  0.00  0.00    +0.026 C 
ATOM     23  C   UNL     1       3.344   2.724  -1.527  0.00  0.00    -0.023 A 
ATOM     24  C   UNL     1       4.572   2.939  -1.987  0.00  0.00    +0.087 A 
ATOM     25  N   UNL     1       5.369   1.825  -1.771  0.00  0.00    -0.360 N 
ATOM     26  H   UNL     1       6.302   1.755  -2.026  0.00  0.00    +0.165 HD
ATOM     27  C   UNL     1       4.657   0.845  -1.150  0.00  0.00    +0.047 A 
ATOM     28  C   UNL     1       3.376   1.375  -0.973  0.00  0.00    +0.010 A 
ATOM     29  C   UNL     1       2.295   0.718  -0.338  0.00  0.00    -0.014 A 
ATOM     30  C   UNL     1       2.549  -0.561   0.089  0.00  0.00    +0.009 A 
ATOM     31  C   UNL     1       3.816  -1.112  -0.086  0.00  0.00    +0.003 A 
ATOM     32  C   UNL     1       4.881  -0.452  -0.689  0.00  0.00    +0.026 A 
ATOM     33  C   UNL     1       1.059   1.522  -0.277  0.00  0.00    -0.056 C 
ATOM     34  C   UNL     1      -0.106   0.907  -0.182  0.00  0.00    -0.014 C 
ATOM     35  C   UNL     1       0.060   5.124   0.001  0.00  0.00    -0.095 C 
ATOM     36  N   UNL     1      -0.104   3.718  -0.395  0.00  0.00    +0.383 N 
ATOM     37  H   UNL     1      -0.440   3.684  -1.365  0.00  0.00    -0.081 HD
ENDBRANCH  16  19
ENDBRANCH  13  15
BRANCH  13  38
ATOM     38  C   UNL     1      -5.055  -0.509   1.320  0.00  0.00    +0.043 C 
ATOM     39  C   UNL     1      -5.045   0.975   1.690  0.00  0.00    +0.012 C 
ATOM     40  C   UNL     1      -5.608  -0.678  -0.097  0.00  0.00    +0.012 C 
ENDBRANCH  13  38
BRANCH   9  41
ATOM     41  O   UNL     1      -5.128  -3.352   2.579  0.00  0.00    -0.348 OA
ATOM     42  H   UNL     1      -5.650  -2.542   2.665  0.00  0.00    +0.214 HD
ENDBRANCH   9  41
BRANCH   1  43
ATOM     43  C   UNL     1      -3.986  -2.415   5.636  0.00  0.00    +0.035 C 
BRANCH  43  45
ATOM     44  C   UNL     1      -5.623  -0.769   6.558  0.00  0.00    +0.007 C 
ATOM     45  C   UNL     1      -4.359  -0.933   5.713  0.00  0.00    -0.015 C 
ATOM     46  C   UNL     1      -3.211  -0.151   6.355  0.00  0.00    +0.007 C 
ENDBRANCH  43  45
ENDBRANCH   1  43
TORSDOF 6
