REMARK  Name = ZINC52067285
REMARK  7 active torsions:
REMARK  status: ('A' for Active; 'I' for Inactive)
REMARK    1  A    between atoms: C_1  and  C_2
REMARK    2  A    between atoms: C_2  and  N_3
REMARK    3  A    between atoms: N_3  and  C_4
REMARK    4  A    between atoms: C_4  and  C_6
REMARK    5  A    between atoms: C_4  and  C_7
REMARK    6  A    between atoms: C_12  and  O_13
REMARK    7  A    between atoms: O_13  and  C_14
REMARK                            x       y       z     vdW  Elec       q    Type
REMARK                         _______ _______ _______ _____ _____    ______ ____
ROOT
ATOM      1  C   UNL     1       1.460  -2.524  -2.428  0.00  0.00    -0.019 A 
ATOM      2  C   UNL     1       2.480  -1.814  -3.032  0.00  0.00    +0.020 A 
ATOM      3  C   UNL     1       3.163  -2.360  -4.104  0.00  0.00    +0.018 A 
ATOM      4  C   UNL     1       2.826  -3.617  -4.574  0.00  0.00    +0.019 A 
ATOM      5  C   UNL     1       1.808  -4.330  -3.973  0.00  0.00    +0.047 A 
ATOM      6  C   UNL     1       1.125  -3.787  -2.894  0.00  0.00    +0.123 A 
ATOM      7 BR   UNL     1       4.558  -1.385  -4.929  0.00  0.00    -0.050 Br
ENDROOT
BRANCH   1   8
ATOM      8  C   UNL     1       0.716  -1.929  -1.260  0.00  0.00    -0.040 C 
ATOM      9  C   UNL     1       1.345  -2.417   0.046  0.00  0.00    -0.009 C 
BRANCH   8  10
ATOM     10  N   UNL     1       0.795  -0.464  -1.325  0.00  0.00    +0.383 N 
ATOM     11  H   UNL     1       0.456  -0.147  -2.221  0.00  0.00    -0.085 HD
ATOM     12  H   UNL     1       1.754  -0.173  -1.206  0.00  0.00    -0.085 HD
BRANCH  10  14
ATOM     13  C   UNL     1       0.054   1.645  -0.323  0.00  0.00    -0.017 C 
ATOM     14  C   UNL     1      -0.028   0.118  -0.256  0.00  0.00    -0.085 C 
ENDBRANCH  10  14
ENDBRANCH   8  10
ENDBRANCH   1   8
BRANCH   6  15
ATOM     15  O   UNL     1       0.125  -4.489  -2.298  0.00  0.00    -0.479 OA
BRANCH  15  16
ATOM     16  C   UNL     1      -0.254  -5.724  -2.909  0.00  0.00    +0.259 C 
ATOM     17  C   UNL     1      -1.704  -6.053  -2.546  0.00  0.00    +0.054 C 
ATOM     18  C   UNL     1      -2.023  -5.592  -1.135  0.00  0.00    +0.006 C 
ATOM     19  C   UNL     1      -1.269  -6.350  -0.058  0.00  0.00    +0.019 C 
ATOM     20  C   UNL     1       0.230  -6.053  -0.129  0.00  0.00    +0.104 C 
ATOM     21  N   UNL     1       0.849  -6.980  -1.090  0.00  0.00    -0.312 N 
ATOM     22  C   UNL     1       0.638  -6.838  -2.402  0.00  0.00    +0.254 C 
ATOM     23  O   UNL     1       1.155  -7.602  -3.189  0.00  0.00    -0.272 OA
ATOM     24  H   UNL     1       1.415  -7.699  -0.770  0.00  0.00    +0.149 HD
ENDBRANCH  15  16
ENDBRANCH   6  15
TORSDOF 5
