REMARK  Name = ZINC49560689
REMARK  9 active torsions:
REMARK  status: ('A' for Active; 'I' for Inactive)
REMARK    1  A    between atoms: C_1  and  C_2
REMARK    2  A    between atoms: C_5  and  C_8
REMARK    3  A    between atoms: C_8  and  C_10
REMARK    4  A    between atoms: C_8  and  N_11
REMARK    5  A    between atoms: N_11  and  S_12
REMARK    6  A    between atoms: S_12  and  C_15
REMARK    7  A    between atoms: C_18  and  C_20
REMARK    8  A    between atoms: C_20  and  C_21
REMARK    9  A    between atoms: C_21  and  N_22
REMARK                            x       y       z     vdW  Elec       q    Type
REMARK                         _______ _______ _______ _____ _____    ______ ____
ROOT
ATOM      1  S   UNL     1      -1.680  -6.174   0.805  0.00  0.00    +0.065 S 
ATOM      2  O   UNL     1      -2.401  -6.412   2.007  0.00  0.00    -0.153 OA
ATOM      3  O   UNL     1      -2.322  -6.048  -0.456  0.00  0.00    -0.153 OA
ENDROOT
BRANCH   1   4
ATOM      4  C   UNL     1      -0.516  -7.488   0.648  0.00  0.00    +0.143 A 
ATOM      5  C   UNL     1       0.010  -8.282   1.613  0.00  0.00    +0.036 A 
ATOM      6  C   UNL     1       0.917  -9.262   1.254  0.00  0.00    +0.013 A 
ATOM      7  C   UNL     1       1.253  -9.399  -0.052  0.00  0.00    -0.010 A 
ATOM      8  S   UNL     1       0.270  -8.124  -0.823  0.00  0.00    -0.074 S 
BRANCH   7   9
ATOM      9  C   UNL     1       2.206 -10.378  -0.688  0.00  0.00    +0.023 C 
BRANCH   9  10
ATOM     10  C   UNL     1       1.446 -11.646  -1.084  0.00  0.00    -0.081 C 
BRANCH  10  11
ATOM     11  N   UNL     1       2.374 -12.600  -1.704  0.00  0.00    +0.378 N 
ATOM     12  H   UNL     1       3.103 -12.836  -1.047  0.00  0.00    -0.090 HD
ATOM     13  H   UNL     1       1.873 -13.436  -1.965  0.00  0.00    -0.090 HD
ATOM     14  H   UNL     1       2.785 -12.184  -2.527  0.00  0.00    -0.090 HD
ENDBRANCH  10  11
ENDBRANCH   9  10
ENDBRANCH   7   9
ENDBRANCH   1   4
BRANCH   1  15
ATOM     15  N   UNL     1      -0.816  -4.781   1.039  0.00  0.00    -0.182 NA
ATOM     16  H   UNL     1      -0.890  -4.299   1.877  0.00  0.00    +0.149 HD
BRANCH  15  17
ATOM     17  C   UNL     1       0.059  -4.275  -0.021  0.00  0.00    +0.103 C 
ATOM     18  C   UNL     1       1.488  -4.768   0.218  0.00  0.00    +0.031 C 
BRANCH  17  23
ATOM     19  C   UNL     1      -0.018   1.503   0.010  0.00  0.00    +0.044 C 
ATOM     20  C   UNL     1       0.002  -0.004   0.002  0.00  0.00    -0.050 A 
ATOM     21  C   UNL     1       0.006  -0.689  -1.199  0.00  0.00    +0.003 A 
ATOM     22  C   UNL     1       0.025  -2.071  -1.206  0.00  0.00    +0.005 A 
ATOM     23  C   UNL     1       0.040  -2.768  -0.013  0.00  0.00    -0.029 A 
ATOM     24  C   UNL     1       0.037  -2.084   1.188  0.00  0.00    +0.005 A 
ATOM     25  C   UNL     1       0.023  -0.702   1.195  0.00  0.00    +0.003 A 
ENDBRANCH  17  23
ENDBRANCH  15  17
ENDBRANCH   1  15
TORSDOF 7
