REMARK  Name = ZINC61712106
REMARK  9 active torsions:
REMARK  status: ('A' for Active; 'I' for Inactive)
REMARK    1  A    between atoms: C_1  and  C_2
REMARK    2  A    between atoms: C_2  and  C_3
REMARK    3  A    between atoms: C_3  and  N_4
REMARK    4  A    between atoms: N_4  and  C_5
REMARK    5  A    between atoms: C_5  and  C_7
REMARK    6  A    between atoms: C_5  and  C_16
REMARK    7  A    between atoms: C_7  and  C_8
REMARK    8  A    between atoms: C_8  and  N_9
REMARK    9  A    between atoms: C_12  and  O_15
REMARK                            x       y       z     vdW  Elec       q    Type
REMARK                         _______ _______ _______ _____ _____    ______ ____
ROOT
ATOM      1  C   UNL     1       1.466  -2.503   2.412  0.00  0.00    +0.083 C 
ENDROOT
BRANCH   1   2
ATOM      2  C   UNL     1       2.947  -2.546   2.134  0.00  0.00    -0.017 A 
ATOM      3  C   UNL     1       3.407  -2.527   0.831  0.00  0.00    +0.006 A 
ATOM      4  C   UNL     1       4.764  -2.565   0.576  0.00  0.00    +0.000 A 
ATOM      5  C   UNL     1       5.664  -2.624   1.625  0.00  0.00    +0.001 A 
ATOM      6  C   UNL     1       5.205  -2.643   2.928  0.00  0.00    +0.015 A 
ATOM      7  C   UNL     1       3.846  -2.599   3.184  0.00  0.00    +0.023 A 
ATOM      8 BR   UNL     1       3.218  -2.618   4.967  0.00  0.00    -0.050 Br
ENDBRANCH   1   2
BRANCH   1   9
ATOM      9  N   UNL     1       0.762  -1.980   1.234  0.00  0.00    -0.309 NA
ATOM     10  H   UNL     1      -0.173  -2.354   1.175  0.00  0.00    +0.123 HD
BRANCH   9  11
ATOM     11  C   UNL     1       0.742  -0.511   1.242  0.00  0.00    +0.081 C 
BRANCH  11  13
ATOM     12  C   UNL     1      -0.019   1.526   0.010  0.00  0.00    +0.005 C 
ATOM     13  C   UNL     1       0.002  -0.004   0.002  0.00  0.00    +0.012 C 
ENDBRANCH  11  13
ENDBRANCH   9  11
ENDBRANCH   1   9
BRANCH   1  14
ATOM     14  C   UNL     1       0.964  -3.915   2.720  0.00  0.00    +0.005 C 
BRANCH  14  15
ATOM     15  C   UNL     1      -0.511  -3.855   3.124  0.00  0.00    -0.077 C 
BRANCH  15  16
ATOM     16  N   UNL     1      -0.993  -5.211   3.420  0.00  0.00    +0.381 N 
ATOM     17  C   UNL     1      -0.354  -5.722   4.660  0.00  0.00    -0.076 C 
ATOM     18  C   UNL     1      -1.330  -6.830   5.130  0.00  0.00    +0.011 C 
ATOM     19  C   UNL     1      -2.716  -6.238   4.787  0.00  0.00    +0.096 C 
ATOM     20  C   UNL     1      -2.446  -5.187   3.695  0.00  0.00    -0.047 C 
ATOM     21  H   UNL     1      -0.795  -5.828   2.646  0.00  0.00    -0.082 HD
BRANCH  19  22
ATOM     22  O   UNL     1      -3.583  -7.260   4.290  0.00  0.00    -0.394 OA
ATOM     23  H   UNL     1      -3.753  -7.972   4.922  0.00  0.00    +0.210 HD
ENDBRANCH  19  22
ENDBRANCH  15  16
ENDBRANCH  14  15
ENDBRANCH   1  14
TORSDOF 8
