REMARK  Name = ZINC46303965
REMARK  8 active torsions:
REMARK  status: ('A' for Active; 'I' for Inactive)
REMARK    1  A    between atoms: C_1  and  N_2
REMARK    2  A    between atoms: N_2  and  C_3
REMARK    3  A    between atoms: N_2  and  C_4
REMARK    4  A    between atoms: C_4  and  C_5
REMARK    5  A    between atoms: N_7  and  C_8
REMARK    6  A    between atoms: C_12  and  C_14
REMARK    7  A    between atoms: C_14  and  N_15
REMARK    8  A    between atoms: N_18  and  C_19
REMARK                            x       y       z     vdW  Elec       q    Type
REMARK                         _______ _______ _______ _____ _____    ______ ____
ROOT
ATOM      1  C   UNL     1       4.355  -0.028  -1.990  0.00  0.00    +0.034 A 
ATOM      2  C   UNL     1       4.817   0.604  -0.843  0.00  0.00    +0.023 A 
ATOM      3  C   UNL     1       6.154   0.927  -0.724  0.00  0.00    +0.002 A 
ATOM      4  C   UNL     1       7.034   0.623  -1.748  0.00  0.00    +0.005 A 
ATOM      5  C   UNL     1       6.577  -0.005  -2.891  0.00  0.00    -0.029 A 
ATOM      6  C   UNL     1       5.242  -0.337  -3.013  0.00  0.00    +0.028 A 
ENDROOT
BRANCH   1   9
ATOM      7  C   UNL     1       2.637  -1.487  -2.751  0.00  0.00    +0.201 C 
ATOM      8  O   UNL     1       3.476  -2.175  -3.292  0.00  0.00    -0.278 OA
ATOM      9  N   UNL     1       3.001  -0.356  -2.113  0.00  0.00    -0.287 N 
ATOM     10  H   UNL     1       2.324   0.230  -1.740  0.00  0.00    +0.155 HD
BRANCH   7  11
ATOM     11  C   UNL     1       1.187  -1.895  -2.791  0.00  0.00    +0.018 C 
BRANCH  11  13
ATOM     12  C   UNL     1       1.740  -4.229  -2.813  0.00  0.00    -0.096 C 
ATOM     13  N   UNL     1       1.053  -3.153  -3.539  0.00  0.00    +0.382 N 
ATOM     14  C   UNL     1      -0.370  -3.489  -3.681  0.00  0.00    -0.096 C 
ATOM     15  H   UNL     1       1.466  -3.046  -4.453  0.00  0.00    -0.082 HD
ENDBRANCH  11  13
ENDBRANCH   7  11
ENDBRANCH   1   9
BRANCH   5  16
ATOM     16  C   UNL     1       7.539  -0.335  -4.004  0.00  0.00    +0.141 C 
BRANCH  16  17
ATOM     17  N   UNL     1       8.097  -1.672  -3.787  0.00  0.00    -0.295 N 
ATOM     18  C   UNL     1       8.987  -2.181  -4.662  0.00  0.00    +0.304 C 
ATOM     19  O   UNL     1       9.326  -1.530  -5.632  0.00  0.00    -0.252 OA
ATOM     20  N   UNL     1       9.501  -3.411  -4.463  0.00  0.00    -0.267 N 
ATOM     21  H   UNL     1       7.827  -2.191  -3.014  0.00  0.00    +0.151 HD
ATOM     22  H   UNL     1       9.170  -3.962  -3.736  0.00  0.00    +0.156 HD
BRANCH  20  23
ATOM     23  C   UNL     1      10.512  -3.893  -5.305  0.00  0.00    +0.070 A 
ATOM     24  C   UNL     1      11.336  -3.004  -5.980  0.00  0.00    +0.029 A 
ATOM     25  C   UNL     1      12.333  -3.481  -6.809  0.00  0.00    +0.040 A 
ATOM     26  C   UNL     1      12.511  -4.845  -6.968  0.00  0.00    +0.126 A 
ATOM     27  C   UNL     1      11.691  -5.735  -6.296  0.00  0.00    +0.078 A 
ATOM     28  C   UNL     1      10.695  -5.262  -5.460  0.00  0.00    +0.147 A 
ATOM     29  F   UNL     1       9.898  -6.130  -4.799  0.00  0.00    -0.203 F 
ATOM     30  F   UNL     1      13.487  -5.308  -7.780  0.00  0.00    -0.205 F 
ENDBRANCH  20  23
ENDBRANCH  16  17
ENDBRANCH   5  16
TORSDOF 6
