REMARK  Name = ZINC38626318
REMARK  9 active torsions:
REMARK  status: ('A' for Active; 'I' for Inactive)
REMARK    1  A    between atoms: C_1  and  C_2
REMARK    2  A    between atoms: C_2  and  C_3
REMARK    3  A    between atoms: C_3  and  S_4
REMARK    4  A    between atoms: S_4  and  C_5
REMARK    5  A    between atoms: C_8  and  C_11
REMARK    6  A    between atoms: C_12  and  C_22
REMARK    7  A    between atoms: N_14  and  C_16
REMARK    8  A    between atoms: C_23  and  C_24
REMARK    9  A    between atoms: C_23  and  C_26
REMARK                            x       y       z     vdW  Elec       q    Type
REMARK                         _______ _______ _______ _____ _____    ______ ____
ROOT
ATOM      1  C   UNL     1       3.264  -3.517   7.487  0.00  0.00    +0.100 A 
ATOM      2  C   UNL     1       3.080  -4.913   7.899  0.00  0.00    +0.022 A 
ATOM      3  C   UNL     1       3.730  -5.051   9.110  0.00  0.00    +0.123 A 
ATOM      4  N   UNL     1       4.269  -3.859   9.426  0.00  0.00    -0.239 N 
ATOM      5  N   UNL     1       3.981  -2.931   8.421  0.00  0.00    -0.166 NA
ENDROOT
BRANCH   1   9
ATOM      6  C   UNL     1       1.779  -1.710   3.936  0.00  0.00    +0.008 A 
ATOM      7  C   UNL     1       1.855  -0.971   5.112  0.00  0.00    +0.015 A 
ATOM      8  C   UNL     1       2.336  -1.554   6.264  0.00  0.00    +0.011 A 
ATOM      9  C   UNL     1       2.746  -2.887   6.250  0.00  0.00    +0.003 A 
ATOM     10  C   UNL     1       2.668  -3.627   5.070  0.00  0.00    +0.011 A 
ATOM     11  C   UNL     1       2.182  -3.041   3.921  0.00  0.00    +0.015 A 
BRANCH   6  12
ATOM     12  S   UNL     1       1.163  -0.961   2.465  0.00  0.00    -0.125 S 
BRANCH  12  13
ATOM     13  C   UNL     1       0.775   0.738   2.966  0.00  0.00    +0.074 C 
BRANCH  13  15
ATOM     14  C   UNL     1      -0.105   2.944   2.189  0.00  0.00    +0.004 C 
ATOM     15  C   UNL     1       0.223   1.511   1.766  0.00  0.00    +0.008 C 
ENDBRANCH  13  15
ENDBRANCH  12  13
ENDBRANCH   6  12
ENDBRANCH   1   9
BRANCH   4  16
ATOM     16  C   UNL     1       5.011  -3.590  10.584  0.00  0.00    +0.065 A 
ATOM     17  C   UNL     1       5.244  -4.598  11.510  0.00  0.00    +0.028 A 
ATOM     18  C   UNL     1       5.976  -4.329  12.651  0.00  0.00    +0.002 A 
ATOM     19  C   UNL     1       6.476  -3.059  12.870  0.00  0.00    +0.000 A 
ATOM     20  C   UNL     1       6.246  -2.053  11.949  0.00  0.00    +0.002 A 
ATOM     21  C   UNL     1       5.520  -2.317  10.804  0.00  0.00    +0.028 A 
ENDBRANCH   4  16
BRANCH   2  22
ATOM     22  C   UNL     1       2.349  -5.957   7.169  0.00  0.00    +0.030 C 
ATOM     23  C   UNL     1       2.742  -7.246   7.259  0.00  0.00    +0.072 C 
BRANCH  23  24
ATOM     24  C   UNL     1       4.038  -7.592   7.946  0.00  0.00    +0.216 C 
ATOM     25  N   UNL     1       4.819  -8.516   7.114  0.00  0.00    -0.359 N 
ATOM     26  C   UNL     1       4.982  -9.613   7.796  0.00  0.00    +0.060 A 
ATOM     27  C   UNL     1       5.666 -10.880   7.501  0.00  0.00    +0.027 A 
ATOM     28  C   UNL     1       5.670 -11.863   8.423  0.00  0.00    +0.002 A 
ATOM     29  C   UNL     1       5.041 -11.733   9.674  0.00  0.00    +0.002 A 
ATOM     30  C   UNL     1       4.386 -10.614  10.045  0.00  0.00    +0.027 A 
ATOM     31  C   UNL     1       4.316  -9.475   9.120  0.00  0.00    +0.060 A 
ATOM     32  N   UNL     1       3.767  -8.297   9.206  0.00  0.00    -0.359 N 
ATOM     33  H   UNL     1       5.151  -8.341   6.220  0.00  0.00    +0.162 HD
ATOM     34  H   UNL     1       3.271  -7.950   9.963  0.00  0.00    +0.162 HD
ENDBRANCH  23  24
BRANCH  23  35
ATOM     35  C   UNL     1       1.928  -8.284   6.701  0.00  0.00    +0.099 C 
ATOM     36  N   UNL     1       1.282  -9.107   6.259  0.00  0.00    -0.191 NA
ENDBRANCH  23  35
ENDBRANCH   2  22
TORSDOF 8
