REMARK  Name = ZINC39601174
REMARK  11 active torsions:
REMARK  status: ('A' for Active; 'I' for Inactive)
REMARK    1  A    between atoms: C_1  and  C_2
REMARK    2  A    between atoms: C_2  and  C_3
REMARK    3  A    between atoms: C_3  and  C_4
REMARK    4  A    between atoms: C_3  and  C_6
REMARK    5  A    between atoms: C_4  and  C_5
REMARK    6  A    between atoms: C_10  and  C_19
REMARK    7  A    between atoms: N_21  and  C_22
REMARK    8  A    between atoms: C_22  and  C_23
REMARK    9  A    between atoms: C_23  and  C_24
REMARK   10  A    between atoms: C_24  and  C_25
REMARK   11  A    between atoms: C_24  and  C_26
REMARK                            x       y       z     vdW  Elec       q    Type
REMARK                         _______ _______ _______ _____ _____    ______ ____
ROOT
ATOM      1  C   UNL     1      -1.140  -2.381   0.502  0.00  0.00    +0.219 C 
ATOM      2  O   UNL     1      -1.690  -3.186  -0.219  0.00  0.00    -0.275 OA
ATOM      3  N   UNL     1      -0.617  -2.778   1.679  0.00  0.00    -0.300 N 
ATOM      4  C   UNL     1       0.080  -1.948   2.689  0.00  0.00    +0.121 C 
ATOM      5  C   UNL     1      -0.418  -2.487   4.049  0.00  0.00    +0.100 C 
ATOM      6  C   UNL     1      -0.868  -3.929   3.759  0.00  0.00    -0.004 C 
ATOM      7  C   UNL     1      -0.616  -4.143   2.259  0.00  0.00    +0.115 C 
ATOM      8  C   UNL     1      -0.044  -4.915   4.580  0.00  0.00    -0.010 C 
ATOM      9  C   UNL     1      -0.549  -6.337   4.318  0.00  0.00    -0.082 C 
ATOM     10  N   UNL     1      -1.967  -6.430   4.684  0.00  0.00    +0.379 N 
ATOM     11  C   UNL     1      -2.765  -5.546   3.825  0.00  0.00    -0.082 C 
ATOM     12  C   UNL     1      -2.354  -4.091   4.067  0.00  0.00    -0.010 C 
ATOM     13  H   UNL     1      -2.281  -7.382   4.568  0.00  0.00    -0.086 HD
ATOM     14  H   UNL     1      -2.083  -6.156   5.648  0.00  0.00    -0.086 HD
ENDROOT
BRANCH   5  15
ATOM     15  C   UNL     1      -1.578  -1.663   4.547  0.00  0.00    +0.218 C 
ATOM     16  O   UNL     1      -2.370  -1.192   3.759  0.00  0.00    -0.275 OA
ATOM     17  N   UNL     1      -1.735  -1.450   5.869  0.00  0.00    -0.315 N 
ATOM     18  H   UNL     1      -1.102  -1.827   6.499  0.00  0.00    +0.149 HD
BRANCH  17  19
ATOM     19  C   UNL     1      -2.862  -0.649   6.353  0.00  0.00    +0.104 C 
BRANCH  19  20
ATOM     20  C   UNL     1      -2.808  -0.563   7.879  0.00  0.00    +0.022 C 
BRANCH  20  21
ATOM     21  C   UNL     1      -3.985   0.274   8.385  0.00  0.00    -0.016 C 
ATOM     22  C   UNL     1      -5.297  -0.447   8.067  0.00  0.00    +0.007 C 
ATOM     23  C   UNL     1      -3.862   0.465   9.898  0.00  0.00    +0.007 C 
ENDBRANCH  20  21
ENDBRANCH  19  20
ENDBRANCH  17  19
ENDBRANCH   5  15
BRANCH   1  24
ATOM     24  C   UNL     1      -1.041  -0.937   0.083  0.00  0.00    +0.075 C 
BRANCH  24  26
ATOM     25  C   UNL     1       0.532   0.966  -0.301  0.00  0.00    +0.004 C 
ATOM     26  C   UNL     1       0.432  -0.533  -0.012  0.00  0.00    +0.009 C 
ENDBRANCH  24  26
BRANCH  24  27
ATOM     27  C   UNL     1      -1.708  -0.756  -1.282  0.00  0.00    +0.009 C 
ATOM     28  C   UNL     1      -3.213  -1.000  -1.151  0.00  0.00    +0.004 C 
ENDBRANCH  24  27
ENDBRANCH   1  24
TORSDOF 7
