REMARK  Name = ZINC39654054
REMARK  9 active torsions:
REMARK  status: ('A' for Active; 'I' for Inactive)
REMARK    1  A    between atoms: C_1  and  C_2
REMARK    2  A    between atoms: C_2  and  O_3
REMARK    3  A    between atoms: O_3  and  C_4
REMARK    4  A    between atoms: C_7  and  C_10
REMARK    5  A    between atoms: C_10  and  C_11
REMARK    6  A    between atoms: C_11  and  N_12
REMARK    7  A    between atoms: C_13  and  C_15
REMARK    8  A    between atoms: C_26  and  C_28
REMARK    9  A    between atoms: C_31  and  C_33
REMARK                            x       y       z     vdW  Elec       q    Type
REMARK                         _______ _______ _______ _____ _____    ______ ____
ROOT
ATOM      1  C   UNL     1      -2.477 -10.232   2.581  0.00  0.00    +0.100 C 
ATOM      2  C   UNL     1      -1.324 -10.906   1.804  0.00  0.00    +0.121 C 
ATOM      3  N   UNL     1      -0.338 -11.278   2.845  0.00  0.00    -0.294 N 
ATOM      4  C   UNL     1      -1.163 -11.749   3.984  0.00  0.00    +0.115 C 
ATOM      5  C   UNL     1      -2.369 -10.790   4.010  0.00  0.00    -0.004 C 
ATOM      6  C   UNL     1      -2.120  -9.657   5.002  0.00  0.00    -0.010 C 
ATOM      7  C   UNL     1      -2.074 -10.230   6.422  0.00  0.00    -0.082 C 
ATOM      8  N   UNL     1      -3.345 -10.900   6.723  0.00  0.00    +0.379 N 
ATOM      9  C   UNL     1      -3.532 -12.045   5.823  0.00  0.00    -0.082 C 
ATOM     10  C   UNL     1      -3.640 -11.549   4.378  0.00  0.00    -0.010 C 
ATOM     11  C   UNL     1       1.006 -11.205   2.774  0.00  0.00    +0.282 C 
ATOM     12  O   UNL     1       1.686 -11.551   3.722  0.00  0.00    -0.267 OA
ATOM     13  H   UNL     1      -3.335 -11.223   7.678  0.00  0.00    -0.086 HD
ATOM     14  H   UNL     1      -4.105 -10.249   6.598  0.00  0.00    -0.086 HD
ENDROOT
BRANCH  11  15
ATOM     15  C   UNL     1       1.649 -10.708   1.555  0.00  0.00    +0.190 A 
ATOM     16  C   UNL     1       3.005 -10.588   1.347  0.00  0.00    +0.055 A 
ATOM     17  C   UNL     1       3.172 -10.077   0.056  0.00  0.00    +0.050 A 
ATOM     18  C   UNL     1       1.924  -9.906  -0.472  0.00  0.00    +0.136 A 
ATOM     19  O   UNL     1       1.015 -10.295   0.437  0.00  0.00    -0.450 OA
BRANCH  18  20
ATOM     20  C   UNL     1       1.625  -9.385  -1.821  0.00  0.00    +0.017 A 
ATOM     21  C   UNL     1       2.665  -9.024  -2.680  0.00  0.00    +0.014 A 
ATOM     22  C   UNL     1       2.379  -8.539  -3.939  0.00  0.00    +0.039 A 
ATOM     23  C   UNL     1       1.063  -8.410  -4.352  0.00  0.00    +0.123 A 
ATOM     24  C   UNL     1       0.026  -8.766  -3.504  0.00  0.00    +0.039 A 
ATOM     25  C   UNL     1       0.300  -9.258  -2.245  0.00  0.00    +0.014 A 
ATOM     26  F   UNL     1       0.788  -7.934  -5.587  0.00  0.00    -0.205 F 
ENDBRANCH  18  20
ENDBRANCH  11  15
BRANCH   1  28
ATOM     27  N   UNL     1      -3.377  -7.929   2.674  0.00  0.00    -0.315 N 
ATOM     28  C   UNL     1      -2.300  -8.735   2.587  0.00  0.00    +0.218 C 
ATOM     29  O   UNL     1      -1.188  -8.256   2.515  0.00  0.00    -0.275 OA
ATOM     30  H   UNL     1      -4.266  -8.313   2.732  0.00  0.00    +0.149 HD
BRANCH  27  31
ATOM     31  C   UNL     1      -3.204  -6.474   2.680  0.00  0.00    +0.109 C 
BRANCH  31  32
ATOM     32  C   UNL     1      -4.573  -5.799   2.786  0.00  0.00    +0.054 C 
BRANCH  32  36
ATOM     33  C   UNL     1      -4.071  -1.556   2.804  0.00  0.00    +0.121 A 
ATOM     34  C   UNL     1      -4.238  -2.230   1.603  0.00  0.00    +0.046 A 
ATOM     35  C   UNL     1      -4.400  -3.602   1.600  0.00  0.00    +0.007 A 
ATOM     36  C   UNL     1      -4.396  -4.303   2.792  0.00  0.00    -0.046 A 
ATOM     37  C   UNL     1      -4.231  -3.632   3.990  0.00  0.00    +0.007 A 
ATOM     38  C   UNL     1      -4.062  -2.261   3.998  0.00  0.00    +0.046 A 
BRANCH  33  39
ATOM     39  O   UNL     1      -3.912  -0.206   2.810  0.00  0.00    -0.492 OA
BRANCH  39  41
ATOM     40  C   UNL     1      -3.738   1.959   1.749  0.00  0.00    +0.048 C 
ATOM     41  C   UNL     1      -3.932   0.455   1.543  0.00  0.00    +0.225 C 
ENDBRANCH  39  41
ENDBRANCH  33  39
ENDBRANCH  32  36
ENDBRANCH  31  32
ENDBRANCH  27  31
ENDBRANCH   1  28
TORSDOF 8
