REMARK  Name = ZINC42446150
REMARK  9 active torsions:
REMARK  status: ('A' for Active; 'I' for Inactive)
REMARK    1  A    between atoms: C_1  and  C_2
REMARK    2  A    between atoms: C_2  and  N_3
REMARK    3  A    between atoms: N_3  and  C_4
REMARK    4  A    between atoms: C_4  and  C_5
REMARK    5  A    between atoms: C_5  and  C_7
REMARK    6  A    between atoms: C_5  and  C_8
REMARK    7  A    between atoms: N_9  and  O_10
REMARK    8  A    between atoms: C_12  and  C_14
REMARK    9  A    between atoms: C_19  and  C_20
REMARK                            x       y       z     vdW  Elec       q    Type
REMARK                         _______ _______ _______ _____ _____    ______ ____
ROOT
ATOM      1  N   UNL     1       0.702  -0.412  -1.242  0.00  0.00    -0.297 N 
ATOM      2  C   UNL     1      -0.026  -0.808  -2.305  0.00  0.00    +0.247 C 
ATOM      3  O   UNL     1       0.519  -1.353  -3.245  0.00  0.00    -0.270 OA
ENDROOT
BRANCH   2   4
ATOM      4  C   UNL     1      -1.486  -0.579  -2.329  0.00  0.00    +0.040 A 
ATOM      5  C   UNL     1      -2.297  -1.127  -1.334  0.00  0.00    +0.014 A 
ATOM      6  C   UNL     1      -3.659  -0.910  -1.361  0.00  0.00    +0.016 A 
ATOM      7  C   UNL     1      -4.221  -0.151  -2.373  0.00  0.00    +0.018 A 
ATOM      8  C   UNL     1      -3.422   0.395  -3.363  0.00  0.00    +0.019 A 
ATOM      9  C   UNL     1      -2.058   0.191  -3.343  0.00  0.00    -0.037 A 
ATOM     10  C   UNL     1      -1.188   0.791  -4.417  0.00  0.00    +0.044 C 
ATOM     11 BR   UNL     1      -6.090   0.141  -2.404  0.00  0.00    -0.050 Br
ENDBRANCH   2   4
BRANCH   1  13
ATOM     12  C   UNL     1       0.013   1.685  -0.187  0.00  0.00    +0.024 C 
ATOM     13  C   UNL     1       0.034   0.159  -0.070  0.00  0.00    +0.105 C 
ENDBRANCH   1  13
BRANCH   1  14
ATOM     14  C   UNL     1       2.160  -0.552  -1.258  0.00  0.00    +0.119 C 
BRANCH  14  15
ATOM     15  C   UNL     1       2.547  -1.919  -0.691  0.00  0.00    +0.070 C 
ATOM     16  C   UNL     1       2.024  -3.022  -1.614  0.00  0.00    +0.017 C 
BRANCH  15  17
ATOM     17  C   UNL     1       4.048  -2.016  -0.593  0.00  0.00    +0.136 C 
ATOM     18  N   UNL     1       4.723  -2.565  -1.548  0.00  0.00    -0.076 NA
ATOM     19  N   UNL     1       4.699  -1.519   0.514  0.00  0.00    -0.344 N 
ATOM     20  H   UNL     1       4.192  -1.107   1.231  0.00  0.00    +0.144 HD
ATOM     21  H   UNL     1       5.665  -1.581   0.577  0.00  0.00    +0.144 HD
BRANCH  18  22
ATOM     22  O   UNL     1       6.133  -2.656  -1.456  0.00  0.00    -0.408 OA
ATOM     23  H   UNL     1       6.550  -3.082  -2.217  0.00  0.00    +0.328 HD
ENDBRANCH  18  22
ENDBRANCH  15  17
ENDBRANCH  14  15
ENDBRANCH   1  14
TORSDOF 6
