REMARK  Name = ZINC02137952
REMARK  5 active torsions:
REMARK  status: ('A' for Active; 'I' for Inactive)
REMARK    1  A    between atoms: C_1  and  C_2
REMARK    2  A    between atoms: C_17  and  C_19
REMARK    3  A    between atoms: C_19  and  C_20
REMARK    4  A    between atoms: N_25  and  C_28
REMARK    5  A    between atoms: C_28  and  C_29
REMARK                            x       y       z     vdW  Elec       q    Type
REMARK                         _______ _______ _______ _____ _____    ______ ____
ROOT
ATOM      1  C   UNL     1      -6.816   1.329  -7.610  0.00  0.00    +0.044 C 
ATOM      2  C   UNL     1      -6.972   1.801  -6.187  0.00  0.00    -0.049 A 
ATOM      3  C   UNL     1      -6.108   2.752  -5.673  0.00  0.00    +0.008 A 
ATOM      4  C   UNL     1      -6.251   3.183  -4.373  0.00  0.00    -0.026 A 
ATOM      5  C   UNL     1      -7.260   2.671  -3.563  0.00  0.00    +0.054 A 
ATOM      6  C   UNL     1      -8.126   1.713  -4.088  0.00  0.00    +0.063 A 
ATOM      7  C   UNL     1      -7.978   1.284  -5.392  0.00  0.00    +0.025 A 
ATOM      8 CL   UNL     1      -9.393   1.057  -3.100  0.00  0.00    -0.082 Cl
ATOM      9  N   UNL     1      -7.206   3.255  -2.295  0.00  0.00    -0.285 N 
ATOM     10  C   UNL     1      -6.204   4.150  -2.192  0.00  0.00    +0.211 C 
ATOM     11  O   UNL     1      -5.920   4.808  -1.213  0.00  0.00    -0.277 OA
ATOM     12  C   UNL     1      -5.508   4.176  -3.524  0.00  0.00    +0.050 C 
ATOM     13  C   UNL     1      -4.027   3.801  -3.391  0.00  0.00    +0.088 C 
ATOM     14  C   UNL     1      -3.276   5.163  -3.388  0.00  0.00    +0.073 C 
ATOM     15  C   UNL     1      -4.390   6.227  -3.488  0.00  0.00    -0.049 C 
ATOM     16  C   UNL     1      -2.665   5.220  -2.006  0.00  0.00    +0.224 C 
ATOM     17  O   UNL     1      -1.982   6.126  -1.580  0.00  0.00    -0.275 OA
ATOM     18  N   UNL     1      -2.993   4.114  -1.329  0.00  0.00    -0.237 N 
ATOM     19  C   UNL     1      -3.759   3.253  -2.008  0.00  0.00    +0.225 C 
ATOM     20  O   UNL     1      -4.174   2.197  -1.581  0.00  0.00    -0.275 OA
ATOM     21  H   UNL     1      -7.818   3.041  -1.574  0.00  0.00    +0.155 HD
ATOM     22  N   UNL     1      -5.512   5.510  -4.097  0.00  0.00    +0.394 N 
ATOM     23  H   UNL     1      -6.396   5.986  -3.882  0.00  0.00    -0.083 HD
ATOM     24  H   UNL     1      -5.390   5.460  -5.115  0.00  0.00    -0.083 HD
ENDROOT
BRANCH  15  25
ATOM     25  C   UNL     1      -3.934   7.397  -4.363  0.00  0.00    +0.080 C 
BRANCH  25  26
ATOM     26  C   UNL     1      -5.017   8.444  -4.406  0.00  0.00    +0.209 C 
ATOM     27  O   UNL     1      -6.052   8.271  -3.797  0.00  0.00    -0.276 OA
ATOM     28  N   UNL     1      -4.836   9.571  -5.122  0.00  0.00    -0.329 N 
ATOM     29  H   UNL     1      -4.008   9.709  -5.609  0.00  0.00    +0.145 HD
ATOM     30  H   UNL     1      -5.533  10.245  -5.149  0.00  0.00    +0.145 HD
ENDBRANCH  25  26
ENDBRANCH  15  25
BRANCH  18  31
ATOM     31  C   UNL     1      -2.553   3.869   0.047  0.00  0.00    +0.151 C 
BRANCH  31  32
ATOM     32  C   UNL     1      -1.238   3.133   0.030  0.00  0.00    -0.030 A 
ATOM     33  C   UNL     1      -1.219   1.751   0.017  0.00  0.00    +0.005 A 
ATOM     34  C   UNL     1      -0.013   1.076   0.008  0.00  0.00    +0.000 A 
ATOM     35  C   UNL     1       1.175   1.783   0.000  0.00  0.00    +0.000 A 
ATOM     36  C   UNL     1       1.156   3.165   0.008  0.00  0.00    +0.000 A 
ATOM     37  C   UNL     1      -0.050   3.840   0.022  0.00  0.00    +0.005 A 
ENDBRANCH  31  32
ENDBRANCH  18  31
TORSDOF 4
