REMARK  Name = ZINC63795227
REMARK  7 active torsions:
REMARK  status: ('A' for Active; 'I' for Inactive)
REMARK    1  A    between atoms: C_7  and  C_10
REMARK    2  A    between atoms: C_10  and  C_11
REMARK    3  A    between atoms: C_11  and  N_12
REMARK    4  A    between atoms: C_13  and  C_15
REMARK    5  A    between atoms: C_15  and  N_16
REMARK    6  A    between atoms: C_17  and  C_19
REMARK    7  A    between atoms: C_19  and  N_20
REMARK                            x       y       z     vdW  Elec       q    Type
REMARK                         _______ _______ _______ _____ _____    ______ ____
ROOT
ATOM      1  N   UNL     1      -1.976  -7.005  -3.998  0.00  0.00    -0.305 N 
ATOM      2  C   UNL     1      -2.789  -8.052  -4.242  0.00  0.00    +0.232 C 
ATOM      3  O   UNL     1      -3.335  -8.623  -3.322  0.00  0.00    -0.274 OA
ATOM      4  H   UNL     1      -1.539  -6.548  -4.734  0.00  0.00    +0.149 HD
ENDROOT
BRANCH   1   5
ATOM      5  C   UNL     1      -1.752  -6.557  -2.622  0.00  0.00    +0.200 C 
BRANCH   5   7
ATOM      6  N   UNL     1      -0.458  -4.798  -1.460  0.00  0.00    -0.314 N 
ATOM      7  C   UNL     1      -0.811  -5.380  -2.623  0.00  0.00    +0.230 C 
ATOM      8  O   UNL     1      -0.371  -4.957  -3.671  0.00  0.00    -0.274 OA
ATOM      9  H   UNL     1      -0.810  -5.136  -0.622  0.00  0.00    +0.149 HD
BRANCH   6  10
ATOM     10  C   UNL     1       0.457  -3.653  -1.462  0.00  0.00    +0.108 C 
BRANCH  10  11
ATOM     11  C   UNL     1       0.691  -3.186  -0.024  0.00  0.00    +0.052 C 
BRANCH  11  18
ATOM     12  C   UNL     1      -0.016   1.348   0.009  0.00  0.00    +0.001 A 
ATOM     13  C   UNL     1       1.166   2.101   0.002  0.00  0.00    +0.002 A 
ATOM     14  C   UNL     1       2.391   1.535  -0.013  0.00  0.00    +0.026 A 
ATOM     15  C   UNL     1       2.529   0.120  -0.022  0.00  0.00    +0.043 A 
ATOM     16  N   UNL     1       3.587  -0.654  -0.037  0.00  0.00    -0.380 N 
ATOM     17  C   UNL     1       3.143  -2.053  -0.041  0.00  0.00    +0.144 C 
ATOM     18  C   UNL     1       1.631  -2.008  -0.025  0.00  0.00    -0.040 C 
ATOM     19  C   UNL     1       1.295  -0.698  -0.014  0.00  0.00    -0.001 A 
ATOM     20  C   UNL     1       0.002  -0.004   0.002  0.00  0.00    +0.010 A 
ATOM     21  H   UNL     1       4.509  -0.353  -0.045  0.00  0.00    +0.160 HD
ENDBRANCH  11  18
ENDBRANCH  10  11
ENDBRANCH   6  10
ENDBRANCH   5   7
ENDBRANCH   1   5
BRANCH   2  22
ATOM     22  C   UNL     1      -3.019  -8.513  -5.659  0.00  0.00    +0.224 C 
BRANCH  22  23
ATOM     23  N   UNL     1      -3.934  -9.657  -5.657  0.00  0.00    -0.208 N 
ATOM     24  C   UNL     1      -5.266  -9.437  -5.752  0.00  0.00    +0.264 C 
ATOM     25  O   UNL     1      -5.708  -8.318  -5.932  0.00  0.00    -0.269 OA
ATOM     26  C   UNL     1      -6.162 -10.603  -5.627  0.00  0.00    +0.060 A 
ATOM     27  C   UNL     1      -7.513 -10.555  -5.944  0.00  0.00    +0.015 A 
ATOM     28  C   UNL     1      -8.282 -11.693  -5.796  0.00  0.00    +0.001 A 
ATOM     29  C   UNL     1      -7.715 -12.871  -5.336  0.00  0.00    +0.002 A 
ATOM     30  C   UNL     1      -6.370 -12.931  -5.019  0.00  0.00    +0.025 A 
ATOM     31  C   UNL     1      -5.587 -11.802  -5.163  0.00  0.00    +0.055 A 
ATOM     32  N   UNL     1      -4.227 -11.781  -4.874  0.00  0.00    -0.264 N 
ATOM     33  N   UNL     1      -3.422 -10.915  -5.566  0.00  0.00    -0.158 NA
ATOM     34  H   UNL     1      -3.857 -12.370  -4.198  0.00  0.00    +0.168 HD
ATOM     35  H   UNL     1      -3.193 -11.279  -6.479  0.00  0.00    +0.168 HD
ENDBRANCH  22  23
ENDBRANCH   2  22
TORSDOF 7
