REMARK  Name = ZINC34999685
REMARK  16 active torsions:
REMARK  status: ('A' for Active; 'I' for Inactive)
REMARK    1  A    between atoms: C_1  and  C_2
REMARK    2  A    between atoms: C_2  and  C_3
REMARK    3  A    between atoms: C_3  and  C_4
REMARK    4  A    between atoms: C_4  and  C_5
REMARK    5  A    between atoms: C_5  and  C_6
REMARK    6  A    between atoms: C_9  and  C_12
REMARK    7  A    between atoms: N_17  and  C_20
REMARK    8  A    between atoms: C_20  and  C_21
REMARK    9  A    between atoms: C_21  and  N_22
REMARK   10  A    between atoms: N_22  and  C_23
REMARK   11  A    between atoms: C_23  and  C_24
REMARK   12  A    between atoms: C_32  and  C_33
REMARK   13  A    between atoms: C_32  and  C_34
REMARK   14  A    between atoms: N_37  and  C_38
REMARK   15  A    between atoms: C_38  and  C_39
REMARK   16  A    between atoms: C_38  and  C_40
REMARK                            x       y       z     vdW  Elec       q    Type
REMARK                         _______ _______ _______ _____ _____    ______ ____
ROOT
ATOM      1  C   UNL     1       1.533  -8.275  -2.556  0.00  0.00    +0.246 C 
ATOM      2  O   UNL     1       1.462  -7.065  -2.458  0.00  0.00    -0.270 OA
ATOM      3  N   UNL     1       0.581  -8.954  -3.226  0.00  0.00    -0.301 N 
ATOM      4  C   UNL     1      -0.480  -8.246  -3.958  0.00  0.00    +0.089 C 
ATOM      5  C   UNL     1      -1.833  -8.833  -3.541  0.00  0.00    -0.059 C 
ATOM      6  N   UNL     1      -1.819 -10.286  -3.749  0.00  0.00    +0.383 N 
ATOM      7  C   UNL     1      -0.828 -10.909  -2.863  0.00  0.00    -0.059 C 
ATOM      8  C   UNL     1       0.578 -10.425  -3.251  0.00  0.00    +0.089 C 
ATOM      9  H   UNL     1      -1.582 -10.485  -4.710  0.00  0.00    -0.082 HD
ENDROOT
BRANCH   1  13
ATOM     10  C   UNL     1       4.784 -10.361  -0.788  0.00  0.00    -0.047 A 
ATOM     11  C   UNL     1       4.217  -9.284  -0.130  0.00  0.00    +0.004 A 
ATOM     12  C   UNL     1       3.161  -8.602  -0.699  0.00  0.00    +0.013 A 
ATOM     13  C   UNL     1       2.665  -9.001  -1.941  0.00  0.00    +0.037 A 
ATOM     14  C   UNL     1       3.241 -10.088  -2.599  0.00  0.00    +0.013 A 
ATOM     15  C   UNL     1       4.300 -10.758  -2.022  0.00  0.00    +0.004 A 
BRANCH  10  16
ATOM     16  C   UNL     1       5.937 -11.101  -0.161  0.00  0.00    +0.035 C 
BRANCH  16  17
ATOM     17  C   UNL     1       7.255 -10.458  -0.599  0.00  0.00    +0.005 C 
BRANCH  17  18
ATOM     18  C   UNL     1       8.425 -11.210   0.038  0.00  0.00    +0.000 C 
BRANCH  18  20
ATOM     19  C   UNL     1      10.913 -11.318   0.237  0.00  0.00    +0.004 C 
ATOM     20  C   UNL     1       9.743 -10.567  -0.400  0.00  0.00    -0.003 C 
ENDBRANCH  18  20
ENDBRANCH  17  18
ENDBRANCH  16  17
ENDBRANCH  10  16
ENDBRANCH   1  13
BRANCH   6  21
ATOM     21  C   UNL     1      -3.150 -10.834  -3.454  0.00  0.00    -0.059 C 
BRANCH  21  22
ATOM     22  C   UNL     1      -3.173 -12.326  -3.789  0.00  0.00    +0.091 C 
BRANCH  22  23
ATOM     23  N   UNL     1      -4.500 -12.872  -3.495  0.00  0.00    -0.283 N 
ATOM     24  C   UNL     1      -4.767 -13.373  -2.273  0.00  0.00    +0.303 C 
ATOM     25  O   UNL     1      -5.869 -13.826  -2.029  0.00  0.00    -0.253 OA
ATOM     26  N   UNL     1      -3.813 -13.371  -1.321  0.00  0.00    -0.297 N 
ATOM     27  H   UNL     1      -2.934 -13.010  -1.516  0.00  0.00    +0.150 HD
BRANCH  26  28
ATOM     28  C   UNL     1      -4.103 -13.916   0.008  0.00  0.00    +0.068 C 
ATOM     29  C   UNL     1      -2.801 -14.373   0.667  0.00  0.00    +0.027 C 
ATOM     30  C   UNL     1      -4.759 -12.835   0.870  0.00  0.00    +0.027 C 
ENDBRANCH  26  28
BRANCH  23  31
ATOM     31  C   UNL     1      -5.538 -12.874  -4.530  0.00  0.00    +0.140 C 
BRANCH  31  32
ATOM     32  C   UNL     1      -5.461 -14.158  -5.316  0.00  0.00    -0.053 C 
ATOM     33  C   UNL     1      -6.218 -15.188  -5.015  0.00  0.00    -0.025 C 
ATOM     34  C   UNL     1      -6.117 -16.453  -5.833  0.00  0.00    +0.031 C 
ATOM     35  C   UNL     1      -5.013 -16.299  -6.888  0.00  0.00    -0.000 C 
ATOM     36  C   UNL     1      -3.728 -15.672  -6.321  0.00  0.00    +0.012 C 
ATOM     37  C   UNL     1      -4.510 -14.308  -6.490  0.00  0.00    +0.022 C 
ATOM     38  C   UNL     1      -5.194 -14.990  -7.684  0.00  0.00    -0.025 C 
ATOM     39  C   UNL     1      -6.655 -14.578  -7.874  0.00  0.00    +0.012 C 
ATOM     40  C   UNL     1      -4.381 -14.935  -8.979  0.00  0.00    +0.012 C 
ENDBRANCH  31  32
ENDBRANCH  23  31
ENDBRANCH  22  23
ENDBRANCH  21  22
ENDBRANCH   6  21
TORSDOF 11
