REMARK  Name = ZINC02253160
REMARK  10 active torsions:
REMARK  status: ('A' for Active; 'I' for Inactive)
REMARK    1  A    between atoms: C_1  and  O_2
REMARK    2  A    between atoms: O_2  and  C_3
REMARK    3  A    between atoms: C_3  and  C_5
REMARK    4  A    between atoms: C_8  and  C_11
REMARK    5  A    between atoms: N_12  and  N_13
REMARK    6  A    between atoms: C_14  and  N_37
REMARK    7  A    between atoms: C_15  and  C_26
REMARK    8  A    between atoms: N_28  and  C_29
REMARK    9  A    between atoms: C_29  and  C_30
REMARK   10  A    between atoms: C_30  and  C_31
REMARK                            x       y       z     vdW  Elec       q    Type
REMARK                         _______ _______ _______ _____ _____    ______ ____
ROOT
ATOM      1  N   UNL     1      -6.241   5.982   0.063  0.00  0.00    -0.198 N 
ATOM      2  C   UNL     1      -6.920   6.372  -1.054  0.00  0.00    +0.134 A 
ATOM      3  C   UNL     1      -8.098   7.023  -0.703  0.00  0.00    +0.105 A 
ATOM      4  C   UNL     1      -8.143   7.044   0.769  0.00  0.00    +0.124 A 
ATOM      5  C   UNL     1      -6.922   6.360   1.205  0.00  0.00    +0.183 A 
ATOM      6  N   UNL     1      -6.682   6.222   2.492  0.00  0.00    -0.224 NA
ATOM      7  C   UNL     1      -7.552   6.706   3.388  0.00  0.00    +0.092 A 
ATOM      8  C   UNL     1      -7.303   6.564   4.766  0.00  0.00    +0.030 A 
ATOM      9  C   UNL     1      -8.192   7.058   5.669  0.00  0.00    +0.002 A 
ATOM     10  C   UNL     1      -9.353   7.708   5.251  0.00  0.00    +0.002 A 
ATOM     11  C   UNL     1      -9.627   7.865   3.928  0.00  0.00    +0.030 A 
ATOM     12  C   UNL     1      -8.732   7.367   2.963  0.00  0.00    +0.090 A 
ATOM     13  N   UNL     1      -8.992   7.516   1.659  0.00  0.00    -0.241 NA
ENDROOT
BRANCH   3  14
ATOM     14  C   UNL     1      -9.093   7.582  -1.616  0.00  0.00    +0.250 C 
ATOM     15  O   UNL     1      -8.993   8.735  -1.993  0.00  0.00    -0.270 OA
ATOM     16  N   UNL     1     -10.121   6.821  -2.040  0.00  0.00    -0.311 N 
ATOM     17  H   UNL     1     -10.200   5.902  -1.739  0.00  0.00    +0.149 HD
BRANCH  16  18
ATOM     18  C   UNL     1     -11.118   7.381  -2.955  0.00  0.00    +0.109 C 
BRANCH  18  19
ATOM     19  C   UNL     1     -12.169   6.317  -3.277  0.00  0.00    +0.054 C 
BRANCH  19  20
ATOM     20  C   UNL     1     -13.195   6.893  -4.218  0.00  0.00    -0.046 A 
ATOM     21  C   UNL     1     -14.323   7.515  -3.715  0.00  0.00    +0.004 A 
ATOM     22  C   UNL     1     -15.262   8.048  -4.579  0.00  0.00    +0.000 A 
ATOM     23  C   UNL     1     -15.078   7.950  -5.945  0.00  0.00    +0.000 A 
ATOM     24  C   UNL     1     -13.954   7.323  -6.449  0.00  0.00    +0.000 A 
ATOM     25  C   UNL     1     -13.012   6.795  -5.585  0.00  0.00    +0.004 A 
ENDBRANCH  19  20
ENDBRANCH  18  19
ENDBRANCH  16  18
ENDBRANCH   3  14
BRANCH   2  26
ATOM     26  N   UNL     1      -6.502   6.151  -2.341  0.00  0.00    -0.342 N 
ATOM     27  H   UNL     1      -5.667   5.685  -2.506  0.00  0.00    +0.144 HD
ATOM     28  H   UNL     1      -7.041   6.459  -3.086  0.00  0.00    +0.144 HD
ENDBRANCH   2  26
BRANCH   1  30
ATOM     29  C   UNL     1      -5.000   4.000   0.047  0.00  0.00    +0.141 C 
ATOM     30  N   UNL     1      -5.018   5.298   0.054  0.00  0.00    -0.171 NA
BRANCH  29  34
ATOM     31  C   UNL     1      -1.302   1.931   0.019  0.00  0.00    +0.059 A 
ATOM     32  C   UNL     1      -1.321   3.329   0.032  0.00  0.00    +0.015 A 
ATOM     33  C   UNL     1      -2.513   3.996   0.036  0.00  0.00    +0.010 A 
ATOM     34  C   UNL     1      -3.715   3.281   0.037  0.00  0.00    -0.005 A 
ATOM     35  C   UNL     1      -3.696   1.882   0.030  0.00  0.00    +0.010 A 
ATOM     36  C   UNL     1      -2.503   1.216   0.021  0.00  0.00    +0.015 A 
BRANCH  31  37
ATOM     37  C   UNL     1      -0.014   1.211   0.009  0.00  0.00    +0.339 C 
ATOM     38  O   UNL     1       0.002  -0.004   0.002  0.00  0.00    -0.245 OA
BRANCH  37  40
ATOM     39  C   UNL     1       2.372   1.126  -0.015  0.00  0.00    +0.280 C 
ATOM     40  O   UNL     1       1.143   1.900   0.001  0.00  0.00    -0.464 OA
ENDBRANCH  37  40
ENDBRANCH  31  37
ENDBRANCH  29  34
ENDBRANCH   1  30
TORSDOF 9
