REMARK  Name = ZINC04744407
REMARK  8 active torsions:
REMARK  status: ('A' for Active; 'I' for Inactive)
REMARK    1  A    between atoms: C_1  and  C_2
REMARK    2  A    between atoms: C_2  and  O_3
REMARK    3  A    between atoms: O_3  and  C_4
REMARK    4  A    between atoms: C_4  and  C_6
REMARK    5  A    between atoms: C_6  and  C_8
REMARK    6  A    between atoms: C_6  and  N_30
REMARK    7  A    between atoms: C_8  and  C_9
REMARK    8  A    between atoms: C_12  and  O_16
REMARK                            x       y       z     vdW  Elec       q    Type
REMARK                         _______ _______ _______ _____ _____    ______ ____
ROOT
ATOM      1  C   UNL     1      -0.484   3.128  -3.922  0.00  0.00    +0.030 C 
ENDROOT
BRANCH   1   2
ATOM      2  C   UNL     1      -1.253   3.631  -5.117  0.00  0.00    -0.046 A 
ATOM      3  C   UNL     1      -0.731   3.477  -6.388  0.00  0.00    +0.021 A 
ATOM      4  C   UNL     1      -1.436   3.933  -7.486  0.00  0.00    +0.056 A 
ATOM      5  C   UNL     1      -2.664   4.554  -7.311  0.00  0.00    +0.143 A 
ATOM      6  C   UNL     1      -3.183   4.713  -6.034  0.00  0.00    +0.056 A 
ATOM      7  C   UNL     1      -2.476   4.251  -4.940  0.00  0.00    +0.021 A 
ATOM      8  I   UNL     1      -5.037   5.650  -5.764  0.00  0.00    -0.040 I 
ATOM      9  I   UNL     1      -0.648   3.692  -9.412  0.00  0.00    -0.040 I 
BRANCH   5  10
ATOM     10  O   UNL     1      -3.358   5.008  -8.388  0.00  0.00    -0.505 OA
ATOM     11  H   UNL     1      -3.153   5.921  -8.632  0.00  0.00    +0.292 HD
ENDBRANCH   5  10
ENDBRANCH   1   2
BRANCH   1  12
ATOM     12  C   UNL     1      -0.887   1.682  -3.629  0.00  0.00    +0.040 C 
BRANCH  12  15
ATOM     13  H   UNL     1      -0.962   1.071  -5.593  0.00  0.00    -0.089 HD
ATOM     14  H   UNL     1       0.525   0.859  -4.880  0.00  0.00    -0.089 HD
ATOM     15  N   UNL     1      -0.481   0.800  -4.737  0.00  0.00    +0.387 N 
ATOM     16  H   UNL     1      -0.730  -0.169  -4.506  0.00  0.00    -0.089 HD
ENDBRANCH  12  15
BRANCH  12  17
ATOM     17  C   UNL     1      -0.211   1.220  -2.363  0.00  0.00    +0.293 C 
ATOM     18  O   UNL     1       0.783   0.536  -2.424  0.00  0.00    -0.253 OA
BRANCH  17  19
ATOM     19  O   UNL     1      -0.715   1.567  -1.168  0.00  0.00    -0.466 OA
BRANCH  19  21
ATOM     20  C   UNL     1      -0.729   1.579   1.267  0.00  0.00    +0.048 C 
ATOM     21  C   UNL     1      -0.013   1.086   0.008  0.00  0.00    +0.228 C 
ENDBRANCH  19  21
ENDBRANCH  17  19
ENDBRANCH  12  17
ENDBRANCH   1  12
TORSDOF 7
