REMARK  Name = ZINC21868990
REMARK  8 active torsions:
REMARK  status: ('A' for Active; 'I' for Inactive)
REMARK    1  A    between atoms: C_1  and  C_2
REMARK    2  A    between atoms: C_2  and  C_3
REMARK    3  A    between atoms: C_3  and  C_5
REMARK    4  A    between atoms: C_3  and  N_20
REMARK    5  A    between atoms: C_9  and  N_10
REMARK    6  A    between atoms: N_16  and  C_19
REMARK    7  A    between atoms: N_23  and  C_24
REMARK    8  A    between atoms: C_27  and  C_30
REMARK                            x       y       z     vdW  Elec       q    Type
REMARK                         _______ _______ _______ _____ _____    ______ ____
ROOT
ATOM      1  C   UNL     1       3.377  -4.591  -0.685  0.00  0.00    +0.107 C 
ENDROOT
BRANCH   1   2
ATOM      2  C   UNL     1       3.356  -5.963  -1.310  0.00  0.00    +0.007 A 
ATOM      3  C   UNL     1       4.220  -6.267  -2.358  0.00  0.00    -0.034 A 
ATOM      4  C   UNL     1       4.144  -7.527  -2.869  0.00  0.00    -0.021 A 
ATOM      5  S   UNL     1       2.869  -8.297  -1.909  0.00  0.00    -0.077 S 
ATOM      6  C   UNL     1       2.487  -6.905  -0.855  0.00  0.00    +0.090 A 
ATOM      7  C   UNL     1       4.958  -8.093  -3.985  0.00  0.00    -0.036 C 
ATOM      8  N   UNL     1       5.624  -6.975  -4.681  0.00  0.00    +0.381 N 
ATOM      9  C   UNL     1       6.284  -6.083  -3.717  0.00  0.00    -0.074 C 
ATOM     10  C   UNL     1       5.238  -5.285  -2.933  0.00  0.00    +0.018 C 
ATOM     11  C   UNL     1       6.581  -7.471  -5.679  0.00  0.00    -0.096 C 
ATOM     12  H   UNL     1       4.859  -6.393  -5.215  0.00  0.00    -0.082 HD
BRANCH   6  13
ATOM     13  N   UNL     1       1.541  -6.811   0.172  0.00  0.00    -0.317 N 
ATOM     14  C   UNL     1       1.393  -5.754   1.024  0.00  0.00    +0.092 A 
ATOM     15  C   UNL     1       0.380  -6.032   1.869  0.00  0.00    +0.019 A 
ATOM     16  C   UNL     1      -0.112  -7.309   1.534  0.00  0.00    +0.019 A 
ATOM     17  C   UNL     1       0.617  -7.763   0.493  0.00  0.00    +0.092 A 
ENDBRANCH   6  13
ENDBRANCH   1   2
BRANCH   1  18
ATOM     18  N   UNL     1       2.008  -4.082  -0.578  0.00  0.00    -0.292 N 
ATOM     19  C   UNL     1       1.788  -2.756  -0.479  0.00  0.00    +0.304 C 
ATOM     20  O   UNL     1       2.726  -1.982  -0.480  0.00  0.00    -0.252 OA
ATOM     21  N   UNL     1       0.528  -2.287  -0.381  0.00  0.00    -0.269 N 
ATOM     22  H   UNL     1       1.159  -4.782  -0.577  0.00  0.00    +0.151 HD
ATOM     23  H   UNL     1      -0.313  -2.988  -0.275  0.00  0.00    +0.156 HD
BRANCH  21  24
ATOM     24  C   UNL     1       0.290  -0.908  -0.412  0.00  0.00    +0.035 A 
ATOM     25  C   UNL     1       1.108  -0.078  -1.168  0.00  0.00    +0.023 A 
ATOM     26  C   UNL     1       0.870   1.282  -1.197  0.00  0.00    +0.005 A 
ATOM     27  C   UNL     1      -0.181   1.817  -0.475  0.00  0.00    -0.050 A 
ATOM     28  C   UNL     1      -0.997   0.993   0.278  0.00  0.00    +0.005 A 
ATOM     29  C   UNL     1      -0.765  -0.368   0.311  0.00  0.00    +0.023 A 
ATOM     30  C   UNL     1      -0.438   3.302  -0.510  0.00  0.00    +0.044 C 
ENDBRANCH  21  24
ENDBRANCH   1  18
BRANCH   1  32
ATOM     31  C   UNL     1       4.138  -3.268   1.293  0.00  0.00    +0.006 C 
ATOM     32  C   UNL     1       4.001  -4.676   0.709  0.00  0.00    +0.024 C 
ENDBRANCH   1  32
TORSDOF 5
