REMARK  Name = ZINC32771608
REMARK  8 active torsions:
REMARK  status: ('A' for Active; 'I' for Inactive)
REMARK    1  A    between atoms: C_1  and  C_2
REMARK    2  A    between atoms: C_4  and  N_13
REMARK    3  A    between atoms: C_7  and  N_8
REMARK    4  A    between atoms: N_8  and  S_9
REMARK    5  A    between atoms: S_9  and  C_12
REMARK    6  A    between atoms: N_13  and  C_14
REMARK    7  A    between atoms: C_14  and  C_16
REMARK    8  A    between atoms: C_14  and  C_17
REMARK                            x       y       z     vdW  Elec       q    Type
REMARK                         _______ _______ _______ _____ _____    ______ ____
ROOT
ATOM      1  C   UNL     1       1.449   1.473   0.325  0.00  0.00    +0.046 C 
ATOM      2  C   UNL     1       1.073   0.027   0.133  0.00  0.00    -0.026 A 
ATOM      3  C   UNL     1       1.312  -0.594  -1.078  0.00  0.00    +0.028 A 
ATOM      4  C   UNL     1       0.966  -1.927  -1.255  0.00  0.00    +0.028 A 
ATOM      5  C   UNL     1       0.379  -2.636  -0.215  0.00  0.00    +0.025 A 
ATOM      6  C   UNL     1       0.139  -2.015   0.994  0.00  0.00    +0.026 A 
ATOM      7  C   UNL     1       0.491  -0.684   1.174  0.00  0.00    +0.051 A 
ENDROOT
BRANCH   7   8
ATOM      8  N   UNL     1       0.253  -0.057   2.402  0.00  0.00    -0.221 N 
ATOM      9  H   UNL     1       0.012   0.883   2.429  0.00  0.00    +0.173 HD
BRANCH   8  10
ATOM     10  S   UNL     1       0.384  -0.918   3.811  0.00  0.00    +0.040 S 
ATOM     11  O   UNL     1       0.156   0.034   4.841  0.00  0.00    -0.155 OA
ATOM     12  O   UNL     1      -0.491  -2.025   3.641  0.00  0.00    -0.155 OA
ATOM     13  C   UNL     1       2.107  -1.484   3.853  0.00  0.00    +0.218 C 
ENDBRANCH   8  10
ENDBRANCH   7   8
BRANCH   4  14
ATOM     14  N   UNL     1       1.209  -2.555  -2.482  0.00  0.00    -0.333 N 
ATOM     15  H   UNL     1       1.618  -2.060  -3.209  0.00  0.00    +0.147 HD
BRANCH  14  16
ATOM     16  C   UNL     1       0.844  -3.962  -2.669  0.00  0.00    +0.154 C 
ATOM     17  C   UNL     1      -0.628  -4.057  -3.078  0.00  0.00    +0.038 C 
BRANCH  16  18
ATOM     18  C   UNL     1       1.705  -4.565  -3.749  0.00  0.00    +0.243 C 
ATOM     19  O   UNL     1       2.174  -3.859  -4.615  0.00  0.00    -0.273 OA
ATOM     20  N   UNL     1       1.953  -5.890  -3.752  0.00  0.00    -0.223 N 
ATOM     21  C   UNL     1       1.362  -6.869  -2.827  0.00  0.00    +0.137 C 
ATOM     22  C   UNL     1       1.979  -8.211  -3.267  0.00  0.00    +0.125 C 
ATOM     23  N   UNL     1       2.852  -7.845  -4.392  0.00  0.00    -0.297 N 
ATOM     24  C   UNL     1       2.773  -6.524  -4.600  0.00  0.00    +0.309 C 
ATOM     25  O   UNL     1       3.391  -5.953  -5.476  0.00  0.00    -0.252 OA
ATOM     26  H   UNL     1       3.396  -8.463  -4.906  0.00  0.00    +0.150 HD
ENDBRANCH  16  18
ENDBRANCH  14  16
ENDBRANCH   4  14
TORSDOF 5
