REMARK  Name = ZINC44565899
REMARK  5 active torsions:
REMARK  status: ('A' for Active; 'I' for Inactive)
REMARK    1  A    between atoms: C_1  and  C_2
REMARK    2  A    between atoms: C_2  and  C_4
REMARK    3  A    between atoms: N_9  and  C_10
REMARK    4  A    between atoms: C_10  and  C_11
REMARK    5  A    between atoms: N_17  and  C_18
REMARK                            x       y       z     vdW  Elec       q    Type
REMARK                         _______ _______ _______ _____ _____    ______ ____
ROOT
ATOM      1  C   UNL     1       0.216  -2.086   5.174  0.00  0.00    +0.238 C 
ATOM      2  O   UNL     1       0.365  -0.954   4.766  0.00  0.00    -0.274 OA
ATOM      3  N   UNL     1       1.140  -3.028   4.901  0.00  0.00    -0.239 N 
ATOM      4  C   UNL     1       2.231  -2.712   4.175  0.00  0.00    +0.306 C 
ATOM      5  O   UNL     1       2.381  -1.577   3.766  0.00  0.00    -0.252 OA
ATOM      6  N   UNL     1       3.155  -3.654   3.902  0.00  0.00    -0.301 N 
ATOM      7  H   UNL     1       1.021  -3.933   5.227  0.00  0.00    +0.159 HD
ATOM      8  H   UNL     1       3.036  -4.559   4.228  0.00  0.00    +0.150 HD
ENDROOT
BRANCH   1  10
ATOM      9  C   UNL     1      -2.247  -1.840   5.326  0.00  0.00    +0.034 C 
ATOM     10  C   UNL     1      -1.003  -2.439   5.986  0.00  0.00    +0.163 C 
ATOM     11 CL   UNL     1      -0.829  -1.775   7.653  0.00  0.00    -0.112 Cl
ENDBRANCH   1  10
BRANCH   6  12
ATOM     12  C   UNL     1       4.341  -3.310   3.113  0.00  0.00    +0.090 C 
BRANCH  12  13
ATOM     13  C   UNL     1       5.156  -4.576   2.839  0.00  0.00    -0.052 C 
ATOM     14  C   UNL     1       5.702  -5.125   4.159  0.00  0.00    -0.014 C 
ATOM     15  C   UNL     1       6.518  -6.391   3.880  0.00  0.00    -0.003 C 
ATOM     16  C   UNL     1       5.632  -7.406   3.151  0.00  0.00    -0.019 C 
ATOM     17  C   UNL     1       5.088  -6.772   1.869  0.00  0.00    -0.079 C 
ATOM     18  N   UNL     1       4.296  -5.583   2.205  0.00  0.00    +0.381 N 
ATOM     19  C   UNL     1       3.712  -5.024   0.979  0.00  0.00    -0.096 C 
ATOM     20  H   UNL     1       3.557  -5.840   2.841  0.00  0.00    -0.082 HD
ENDBRANCH  12  13
ENDBRANCH   6  12
TORSDOF 3
