REMARK  Name = ZINC05274698
REMARK  6 active torsions:
REMARK  status: ('A' for Active; 'I' for Inactive)
REMARK    1  A    between atoms: C_1  and  C_2
REMARK    2  A    between atoms: C_2  and  O_3
REMARK    3  A    between atoms: O_3  and  C_4
REMARK    4  A    between atoms: C_13  and  C_14
REMARK    5  A    between atoms: C_25  and  N_51
REMARK    6  A    between atoms: C_26  and  O_28
REMARK                            x       y       z     vdW  Elec       q    Type
REMARK                         _______ _______ _______ _____ _____    ______ ____
ROOT
ATOM      1  C   UNL     1       3.944   2.993  -0.020  0.00  0.00    +0.228 C 
ATOM      2  N   UNL     1       3.640   1.775   0.754  0.00  0.00    -0.313 N 
ATOM      3  C   UNL     1       3.829   1.853   2.113  0.00  0.00    +0.080 A 
ATOM      4  C   UNL     1       4.716   2.768   2.696  0.00  0.00    +0.067 A 
ATOM      5  C   UNL     1       4.811   2.720   4.143  0.00  0.00    -0.027 A 
ATOM      6  C   UNL     1       4.025   1.801   4.753  0.00  0.00    -0.021 A 
ATOM      7  S   UNL     1       3.161   0.994   3.433  0.00  0.00    -0.080 S 
ATOM      8  C   UNL     1       3.932   1.545   6.224  0.00  0.00    -0.036 C 
ATOM      9  C   UNL     1       5.221   3.586   6.426  0.00  0.00    -0.074 C 
ATOM     10  C   UNL     1       5.715   3.621   4.977  0.00  0.00    +0.018 C 
ATOM     11  C   UNL     1       4.964   2.127   8.341  0.00  0.00    -0.096 C 
ATOM     12  C   UNL     1       5.453   3.678   1.782  0.00  0.00    +0.220 C 
ATOM     13  N   UNL     1       5.087   3.709   0.532  0.00  0.00    -0.223 NA
ATOM     14  H   UNL     1       3.323   0.964   0.328  0.00  0.00    +0.149 HD
ATOM     15  N   UNL     1       5.105   2.182   6.870  0.00  0.00    +0.381 N 
ATOM     16  H   UNL     1       5.955   1.674   6.598  0.00  0.00    -0.082 HD
ENDROOT
BRANCH   1  26
ATOM     17  C   UNL     1       2.881   5.222   0.306  0.00  0.00    +0.128 A 
ATOM     18  C   UNL     1       1.774   6.075   0.332  0.00  0.00    +0.046 A 
ATOM     19  C   UNL     1       0.529   5.613   0.039  0.00  0.00    +0.012 A 
ATOM     20  C   UNL     1       0.347   4.257  -0.284  0.00  0.00    -0.017 A 
ATOM     21  C   UNL     1      -0.927   3.744  -0.586  0.00  0.00    +0.008 A 
ATOM     22  C   UNL     1      -1.067   2.426  -0.894  0.00  0.00    +0.001 A 
ATOM     23  C   UNL     1       0.035   1.573  -0.914  0.00  0.00    +0.001 A 
ATOM     24  C   UNL     1       1.283   2.033  -0.628  0.00  0.00    +0.009 A 
ATOM     25  C   UNL     1       1.467   3.389  -0.305  0.00  0.00    -0.008 A 
ATOM     26  C   UNL     1       2.740   3.900  -0.003  0.00  0.00    +0.044 A 
BRANCH  17  27
ATOM     27  O   UNL     1       4.114   5.715   0.598  0.00  0.00    -0.492 OA
BRANCH  27  29
ATOM     28  C   UNL     1       5.653   7.474   1.212  0.00  0.00    +0.048 C 
ATOM     29  C   UNL     1       4.198   7.106   0.914  0.00  0.00    +0.225 C 
ENDBRANCH  27  29
ENDBRANCH  17  27
ENDBRANCH   1  26
BRANCH  12  30
ATOM     30  O   UNL     1       6.470   4.449   2.233  0.00  0.00    -0.492 OA
ATOM     31  H   UNL     1       6.876   5.001   1.552  0.00  0.00    +0.294 HD
ENDBRANCH  12  30
TORSDOF 4
