REMARK  Name = ZINC57932999
REMARK  10 active torsions:
REMARK  status: ('A' for Active; 'I' for Inactive)
REMARK    1  A    between atoms: C_1  and  C_2
REMARK    2  A    between atoms: C_2  and  C_4
REMARK    3  A    between atoms: C_2  and  N_13
REMARK    4  A    between atoms: N_9  and  C_10
REMARK    5  A    between atoms: C_10  and  C_11
REMARK    6  A    between atoms: C_10  and  C_12
REMARK    7  A    between atoms: N_13  and  C_14
REMARK    8  A    between atoms: C_17  and  C_20
REMARK    9  A    between atoms: C_20  and  C_21
REMARK   10  A    between atoms: C_21  and  N_22
REMARK                            x       y       z     vdW  Elec       q    Type
REMARK                         _______ _______ _______ _____ _____    ______ ____
ROOT
ATOM      1  N   UNL     1      -1.319  -0.523   0.050  0.00  0.00    -0.333 N 
ATOM      2  H   UNL     1      -1.740  -0.813  -0.775  0.00  0.00    +0.147 HD
ENDROOT
BRANCH   1   3
ATOM      3  C   UNL     1      -1.995  -0.662   1.265  0.00  0.00    +0.028 A 
ATOM      4  C   UNL     1      -1.396  -0.243   2.446  0.00  0.00    +0.023 A 
ATOM      5  C   UNL     1      -2.067  -0.381   3.645  0.00  0.00    +0.005 A 
ATOM      6  C   UNL     1      -3.333  -0.935   3.671  0.00  0.00    -0.049 A 
ATOM      7  C   UNL     1      -3.932  -1.354   2.497  0.00  0.00    +0.005 A 
ATOM      8  C   UNL     1      -3.269  -1.214   1.293  0.00  0.00    +0.023 A 
BRANCH   6   9
ATOM      9  C   UNL     1      -4.062  -1.085   4.981  0.00  0.00    +0.016 C 
BRANCH   9  10
ATOM     10  C   UNL     1      -4.886   0.175   5.254  0.00  0.00    -0.074 C 
BRANCH  10  11
ATOM     11  N   UNL     1      -5.696  -0.022   6.463  0.00  0.00    +0.381 N 
ATOM     12  C   UNL     1      -6.619   1.105   6.611  0.00  0.00    -0.068 C 
ATOM     13  C   UNL     1      -7.711   0.754   7.628  0.00  0.00    +0.050 C 
ATOM     14  S   UNL     1      -6.917   0.458   9.239  0.00  0.00    -0.164 S 
ATOM     15  C   UNL     1      -5.582  -0.705   8.817  0.00  0.00    +0.050 C 
ATOM     16  C   UNL     1      -4.808  -0.136   7.622  0.00  0.00    -0.068 C 
ATOM     17  H   UNL     1      -6.229  -0.874   6.370  0.00  0.00    -0.082 HD
ENDBRANCH  10  11
ENDBRANCH   9  10
ENDBRANCH   6   9
ENDBRANCH   1   3
BRANCH   1  19
ATOM     18  C   UNL     1      -0.081   1.584  -0.032  0.00  0.00    +0.038 C 
ATOM     19  C   UNL     1       0.025   0.059   0.021  0.00  0.00    +0.154 C 
BRANCH  19  20
ATOM     20  C   UNL     1       0.761  -0.436  -1.197  0.00  0.00    +0.240 C 
ATOM     21  O   UNL     1       0.216  -1.200  -1.965  0.00  0.00    -0.273 OA
ATOM     22  N   UNL     1       2.024  -0.030  -1.432  0.00  0.00    -0.239 N 
ATOM     23  C   UNL     1       2.682  -0.473  -2.522  0.00  0.00    +0.306 C 
ATOM     24  O   UNL     1       2.137  -1.239  -3.292  0.00  0.00    -0.252 OA
ATOM     25  N   UNL     1       3.946  -0.067  -2.757  0.00  0.00    -0.297 N 
ATOM     26  H   UNL     1       2.460   0.581  -0.817  0.00  0.00    +0.159 HD
ATOM     27  H   UNL     1       4.381   0.544  -2.142  0.00  0.00    +0.151 HD
BRANCH  25  28
ATOM     28  C   UNL     1       4.661  -0.549  -3.941  0.00  0.00    +0.068 C 
ATOM     29  C   UNL     1       4.311   0.332  -5.142  0.00  0.00    +0.027 C 
ATOM     30  C   UNL     1       6.169  -0.487  -3.686  0.00  0.00    +0.027 C 
ENDBRANCH  25  28
ENDBRANCH  19  20
ENDBRANCH   1  19
TORSDOF 7
