REMARK  Name = ZINC66428308
REMARK  5 active torsions:
REMARK  status: ('A' for Active; 'I' for Inactive)
REMARK    1  A    between atoms: C_3  and  C_20
REMARK    2  A    between atoms: C_5  and  O_7
REMARK    3  A    between atoms: O_7  and  C_8
REMARK    4  A    between atoms: C_8  and  C_9
REMARK    5  A    between atoms: N_11  and  C_12
REMARK                            x       y       z     vdW  Elec       q    Type
REMARK                         _______ _______ _______ _____ _____    ______ ____
ROOT
ATOM      1  C   UNL     1      -0.043  -2.707   0.006  0.00  0.00    +0.324 C 
ENDROOT
BRANCH   1   2
ATOM      2  C   UNL     1       0.168  -4.199  -0.017  0.00  0.00    +0.255 C 
ATOM      3  O   UNL     1       1.292  -4.653  -0.034  0.00  0.00    -0.272 OA
ATOM      4  N   UNL     1      -0.894  -5.029  -0.017  0.00  0.00    -0.281 N 
ATOM      5  H   UNL     1      -1.791  -4.669   0.062  0.00  0.00    +0.155 HD
BRANCH   4   6
ATOM      6  C   UNL     1      -0.702  -6.411  -0.133  0.00  0.00    +0.053 A 
ATOM      7  C   UNL     1       0.410  -7.009   0.444  0.00  0.00    +0.040 A 
ATOM      8  C   UNL     1       0.597  -8.374   0.329  0.00  0.00    +0.020 A 
ATOM      9  C   UNL     1      -0.323  -9.144  -0.360  0.00  0.00    +0.017 A 
ATOM     10  C   UNL     1      -1.431  -8.551  -0.936  0.00  0.00    +0.023 A 
ATOM     11  C   UNL     1      -1.627  -7.188  -0.820  0.00  0.00    +0.062 A 
ATOM     12 CL   UNL     1      -3.023  -6.445  -1.537  0.00  0.00    -0.082 Cl
ATOM     13 BR   UNL     1       2.112  -9.189   1.114  0.00  0.00    -0.050 Br
ENDBRANCH   4   6
ENDBRANCH   1   2
BRANCH   1  14
ATOM     14  O   UNL     1       1.225  -2.047   0.002  0.00  0.00    -0.483 OA
BRANCH  14  19
ATOM     15  C   UNL     1      -0.014   1.377   0.060  0.00  0.00    +0.004 A 
ATOM     16  C   UNL     1       1.170   2.087   0.058  0.00  0.00    +0.013 A 
ATOM     17  C   UNL     1       2.389   1.409   0.037  0.00  0.00    +0.040 A 
ATOM     18  C   UNL     1       2.406   0.014   0.018  0.00  0.00    +0.058 A 
ATOM     19  C   UNL     1       1.213  -0.688   0.021  0.00  0.00    +0.122 A 
ATOM     20  C   UNL     1       0.004  -0.005   0.041  0.00  0.00    +0.046 A 
BRANCH  17  21
ATOM     21  C   UNL     1       3.659   2.167   0.034  0.00  0.00    +0.242 C 
ATOM     22  O   UNL     1       4.720   1.574   0.016  0.00  0.00    -0.270 OA
ATOM     23  N   UNL     1       3.640   3.514   0.052  0.00  0.00    -0.325 N 
ATOM     24  H   UNL     1       2.794   3.987   0.066  0.00  0.00    +0.145 HD
ATOM     25  H   UNL     1       4.473   4.011   0.050  0.00  0.00    +0.145 HD
ENDBRANCH  17  21
ENDBRANCH  14  19
ENDBRANCH   1  14
TORSDOF 5
