REMARK  Name = ZINC13728525
REMARK  7 active torsions:
REMARK  status: ('A' for Active; 'I' for Inactive)
REMARK    1  A    between atoms: C_3  and  C_16
REMARK    2  A    between atoms: C_5  and  O_7
REMARK    3  A    between atoms: O_7  and  C_8
REMARK    4  A    between atoms: C_8  and  C_9
REMARK    5  A    between atoms: C_16  and  N_17
REMARK    6  A    between atoms: N_17  and  C_18
REMARK    7  A    between atoms: C_27  and  O_30
REMARK                            x       y       z     vdW  Elec       q    Type
REMARK                         _______ _______ _______ _____ _____    ______ ____
ROOT
ATOM      1  C   UNL     1       4.299   5.865  -0.008  0.00  0.00    -0.046 C 
ENDROOT
BRANCH   1   4
ATOM      2  C   UNL     1       0.536   5.550   0.027  0.00  0.00    +0.004 A 
ATOM      3  C   UNL     1       1.807   6.094   0.017  0.00  0.00    +0.002 A 
ATOM      4  C   UNL     1       2.916   5.268   0.002  0.00  0.00    -0.061 A 
ATOM      5  C   UNL     1       2.756   3.896   0.002  0.00  0.00    +0.047 A 
ATOM      6  C   UNL     1       1.482   3.347   0.006  0.00  0.00    +0.121 A 
ATOM      7  C   UNL     1       0.371   4.178   0.021  0.00  0.00    +0.045 A 
BRANCH   6   8
ATOM      8  O   UNL     1       1.322   1.997   0.000  0.00  0.00    -0.487 OA
BRANCH   8   9
ATOM      9  C   UNL     1      -0.018   1.503   0.010  0.00  0.00    +0.264 C 
BRANCH   9  10
ATOM     10  C   UNL     1       0.002  -0.004   0.002  0.00  0.00    -0.010 A 
ATOM     11  C   UNL     1      -0.006  -0.688  -1.199  0.00  0.00    +0.010 A 
ATOM     12  C   UNL     1       0.018  -2.070  -1.208  0.00  0.00    +0.039 A 
ATOM     13  C   UNL     1       0.039  -2.769  -0.013  0.00  0.00    +0.123 A 
ATOM     14  C   UNL     1       0.041  -2.083   1.189  0.00  0.00    +0.039 A 
ATOM     15  C   UNL     1       0.023  -0.701   1.196  0.00  0.00    +0.010 A 
ATOM     16  F   UNL     1       0.057  -4.120  -0.021  0.00  0.00    -0.205 F 
ENDBRANCH   9  10
ENDBRANCH   8   9
ENDBRANCH   6   8
ENDBRANCH   1   4
BRANCH   1  17
ATOM     17  N   UNL     1       4.762   6.052   1.374  0.00  0.00    +0.386 N 
ATOM     18  H   UNL     1       4.074   6.729   1.902  0.00  0.00    -0.085 HD
ATOM     19  H   UNL     1       4.786   5.080   1.887  0.00  0.00    -0.085 HD
BRANCH  17  20
ATOM     20  C   UNL     1       6.111   6.634   1.403  0.00  0.00    -0.065 C 
ATOM     21  C   UNL     1       7.085   5.700   0.682  0.00  0.00    -0.009 C 
ATOM     22  C   UNL     1       8.489   6.305   0.713  0.00  0.00    -0.009 C 
ATOM     23  C   UNL     1       8.474   7.665   0.012  0.00  0.00    +0.007 C 
ATOM     24  C   UNL     1       7.500   8.599   0.734  0.00  0.00    -0.009 C 
ATOM     25  C   UNL     1       6.095   7.994   0.703  0.00  0.00    -0.009 C 
ATOM     26  C   UNL     1       7.946   8.779   2.186  0.00  0.00    +0.038 C 
ATOM     27  C   UNL     1       7.962   7.419   2.886  0.00  0.00    +0.065 C 
ATOM     28  C   UNL     1       8.936   6.485   2.165  0.00  0.00    +0.038 C 
ATOM     29  C   UNL     1       6.557   6.813   2.856  0.00  0.00    +0.022 C 
BRANCH  27  30
ATOM     30  O   UNL     1       8.379   7.586   4.243  0.00  0.00    -0.389 OA
ATOM     31  H   UNL     1       8.451   6.713   4.908  0.00  0.00    +0.210 HD
ENDBRANCH  27  30
ENDBRANCH  17  20
ENDBRANCH   1  17
TORSDOF 7
