REMARK  Name = ZINC51718283
REMARK  9 active torsions:
REMARK  status: ('A' for Active; 'I' for Inactive)
REMARK    1  A    between atoms: C_3  and  C_11
REMARK    2  A    between atoms: C_5  and  O_7
REMARK    3  A    between atoms: O_7  and  C_8
REMARK    4  A    between atoms: C_11  and  N_12
REMARK    5  A    between atoms: N_15  and  C_16
REMARK    6  A    between atoms: C_16  and  C_17
REMARK    7  A    between atoms: C_17  and  C_18
REMARK    8  A    between atoms: C_18  and  N_19
REMARK    9  A    between atoms: N_19  and  C_20
REMARK                            x       y       z     vdW  Elec       q    Type
REMARK                         _______ _______ _______ _____ _____    ______ ____
ROOT
ATOM      1  N   UNL     1       4.103   2.434   1.357  0.00  0.00    -0.295 N 
ATOM      2  C   UNL     1       5.242   3.115   1.596  0.00  0.00    +0.300 C 
ATOM      3  O   UNL     1       5.910   3.526   0.668  0.00  0.00    -0.253 OA
ATOM      4  N   UNL     1       5.639   3.339   2.865  0.00  0.00    -0.299 N 
ATOM      5  H   UNL     1       3.570   2.106   2.098  0.00  0.00    +0.151 HD
ATOM      6  H   UNL     1       5.105   3.011   3.605  0.00  0.00    +0.150 HD
ENDROOT
BRANCH   1   7
ATOM      7  C   UNL     1       3.671   2.190  -0.021  0.00  0.00    +0.141 C 
BRANCH   7  10
ATOM      8  C   UNL     1      -0.017   1.377   0.010  0.00  0.00    +0.004 A 
ATOM      9  C   UNL     1       1.171   2.086   0.002  0.00  0.00    +0.005 A 
ATOM     10  C   UNL     1       2.379   1.415  -0.013  0.00  0.00    -0.027 A 
ATOM     11  C   UNL     1       2.403   0.033  -0.021  0.00  0.00    +0.051 A 
ATOM     12  C   UNL     1       1.214  -0.680  -0.013  0.00  0.00    +0.127 A 
ATOM     13  C   UNL     1       0.002  -0.004   0.002  0.00  0.00    +0.046 A 
BRANCH  12  14
ATOM     14  O   UNL     1       1.235  -2.039  -0.021  0.00  0.00    -0.434 OA
BRANCH  14  15
ATOM     15  C   UNL     1      -0.028  -2.708  -0.013  0.00  0.00    +0.541 C 
ATOM     16  F   UNL     1      -0.738  -2.349   1.138  0.00  0.00    -0.166 F 
ATOM     17  F   UNL     1      -0.760  -2.336  -1.146  0.00  0.00    -0.166 F 
ENDBRANCH  14  15
ENDBRANCH  12  14
ENDBRANCH   7  10
ENDBRANCH   1   7
BRANCH   4  18
ATOM     18  C   UNL     1       6.876   4.079   3.124  0.00  0.00    +0.104 C 
BRANCH  18  19
ATOM     19  C   UNL     1       7.095   4.193   4.634  0.00  0.00    -0.000 C 
BRANCH  19  20
ATOM     20  C   UNL     1       8.387   4.966   4.906  0.00  0.00    -0.081 C 
BRANCH  20  21
ATOM     21  N   UNL     1       8.597   5.076   6.356  0.00  0.00    +0.381 N 
ATOM     22  H   UNL     1       7.818   5.565   6.772  0.00  0.00    -0.086 HD
ATOM     23  H   UNL     1       8.666   4.152   6.756  0.00  0.00    -0.086 HD
BRANCH  21  24
ATOM     24  C   UNL     1       9.837   5.818   6.616  0.00  0.00    -0.072 C 
ATOM     25  C   UNL     1      11.031   5.015   6.094  0.00  0.00    -0.016 C 
ATOM     26  C   UNL     1      12.323   5.788   6.366  0.00  0.00    -0.002 C 
ATOM     27  C   UNL     1      12.477   6.010   7.872  0.00  0.00    -0.000 C 
ATOM     28  C   UNL     1      11.284   6.813   8.393  0.00  0.00    -0.002 C 
ATOM     29  C   UNL     1       9.992   6.040   8.122  0.00  0.00    -0.016 C 
ENDBRANCH  21  24
ENDBRANCH  20  21
ENDBRANCH  19  20
ENDBRANCH  18  19
ENDBRANCH   4  18
TORSDOF 9
