REMARK  Name = ZINC66499490
REMARK  8 active torsions:
REMARK  status: ('A' for Active; 'I' for Inactive)
REMARK    1  A    between atoms: C_1  and  C_2
REMARK    2  A    between atoms: C_2  and  C_3
REMARK    3  A    between atoms: C_2  and  C_4
REMARK    4  A    between atoms: N_11  and  C_12
REMARK    5  A    between atoms: C_12  and  C_13
REMARK    6  A    between atoms: N_15  and  C_16
REMARK    7  A    between atoms: C_21  and  S_22
REMARK    8  A    between atoms: S_22  and  C_23
REMARK                            x       y       z     vdW  Elec       q    Type
REMARK                         _______ _______ _______ _____ _____    ______ ____
ROOT
ATOM      1  C   UNL     1      -0.779  -4.065  -0.880  0.00  0.00    +0.201 C 
ATOM      2  O   UNL     1      -0.975  -4.595   0.193  0.00  0.00    -0.278 OA
ATOM      3  N   UNL     1      -0.418  -4.811  -1.944  0.00  0.00    -0.286 N 
ATOM      4  H   UNL     1      -0.186  -4.381  -2.782  0.00  0.00    +0.155 HD
ENDROOT
BRANCH   3   5
ATOM      5  C   UNL     1      -0.379  -6.208  -1.839  0.00  0.00    +0.047 A 
ATOM      6  C   UNL     1      -0.020  -6.805  -0.640  0.00  0.00    +0.024 A 
ATOM      7  C   UNL     1       0.018  -8.184  -0.539  0.00  0.00    +0.002 A 
ATOM      8  C   UNL     1      -0.300  -8.971  -1.631  0.00  0.00    +0.001 A 
ATOM      9  C   UNL     1      -0.658  -8.384  -2.830  0.00  0.00    +0.017 A 
ATOM     10  C   UNL     1      -0.705  -7.002  -2.939  0.00  0.00    +0.034 A 
BRANCH  10  11
ATOM     11  S   UNL     1      -1.168  -6.251  -4.464  0.00  0.00    -0.054 S 
BRANCH  11  12
ATOM     12  C   UNL     1      -1.492  -7.656  -5.565  0.00  0.00    +0.404 C 
ATOM     13  F   UNL     1      -0.331  -8.428  -5.688  0.00  0.00    -0.197 F 
ATOM     14  F   UNL     1      -2.519  -8.441  -5.030  0.00  0.00    -0.197 F 
ENDBRANCH  11  12
ENDBRANCH  10  11
ENDBRANCH   3   5
BRANCH   1  15
ATOM     15  C   UNL     1      -0.938  -2.574  -1.025  0.00  0.00    +0.020 C 
BRANCH  15  22
ATOM     16  C   UNL     1      -1.372  -0.532   0.159  0.00  0.00    +0.023 C 
ATOM     17  C   UNL     1      -1.971   0.059   1.403  0.00  0.00    +0.200 C 
ATOM     18  O   UNL     1      -1.784   1.235   1.637  0.00  0.00    -0.278 OA
ATOM     19  N   UNL     1      -2.703  -0.658   2.263  0.00  0.00    -0.318 N 
ATOM     20  C   UNL     1      -2.959  -2.084   2.081  0.00  0.00    +0.085 C 
ATOM     21  C   UNL     1      -2.671  -2.484   0.632  0.00  0.00    -0.058 C 
ATOM     22  N   UNL     1      -1.333  -1.996   0.266  0.00  0.00    +0.394 N 
ATOM     23  H   UNL     1      -3.078  -0.213   3.039  0.00  0.00    +0.149 HD
ATOM     24  H   UNL     1      -0.668  -2.265   0.976  0.00  0.00    -0.080 HD
BRANCH  16  26
ATOM     25  C   UNL     1       0.000   1.509  -0.278  0.00  0.00    +0.006 C 
ATOM     26  C   UNL     1       0.050   0.002  -0.023  0.00  0.00    -0.022 C 
ATOM     27  C   UNL     1       0.864  -0.275   1.243  0.00  0.00    +0.006 C 
ENDBRANCH  16  26
ENDBRANCH  15  22
ENDBRANCH   1  15
TORSDOF 6
