REMARK  Name = ZINC10066962
REMARK  10 active torsions:
REMARK  status: ('A' for Active; 'I' for Inactive)
REMARK    1  A    between atoms: C_1  and  C_2
REMARK    2  A    between atoms: C_2  and  N_65
REMARK    3  A    between atoms: C_3  and  C_4
REMARK    4  A    between atoms: C_3  and  N_65
REMARK    5  A    between atoms: C_5  and  C_6
REMARK    6  A    between atoms: C_5  and  N_65
REMARK    7  A    between atoms: C_6  and  N_7
REMARK    8  A    between atoms: C_21  and  C_23
REMARK    9  A    between atoms: C_28  and  O_29
REMARK   10  A    between atoms: O_29  and  C_30
REMARK                            x       y       z     vdW  Elec       q    Type
REMARK                         _______ _______ _______ _____ _____    ______ ____
ROOT
ATOM      1  N   UNL     1       1.152   3.535  -0.084  0.00  0.00    -0.248 N 
ATOM      2  C   UNL     1       1.054   2.155  -0.021  0.00  0.00    +0.168 A 
ATOM      3  N   UNL     1      -0.023   1.406  -0.009  0.00  0.00    -0.224 NA
ATOM      4  C   UNL     1       0.031   0.057   0.056  0.00  0.00    +0.084 A 
ATOM      5  C   UNL     1      -1.047  -0.858   0.076  0.00  0.00    +0.078 A 
ATOM      6  C   UNL     1      -0.824  -2.215   0.146  0.00  0.00    +0.164 A 
ATOM      7  C   UNL     1       0.473  -2.726   0.196  0.00  0.00    +0.163 A 
ATOM      8  C   UNL     1       1.550  -1.854   0.178  0.00  0.00    +0.066 A 
ATOM      9  C   UNL     1       1.328  -0.501   0.110  0.00  0.00    +0.044 A 
ATOM     10  S   UNL     1       2.363   0.942   0.065  0.00  0.00    -0.052 S 
ATOM     11  O   UNL     1       0.699  -4.066   0.259  0.00  0.00    -0.485 OA
ATOM     12  C   UNL     1      -0.407  -4.887   0.650  0.00  0.00    +0.270 C 
ATOM     13  C   UNL     1      -1.643  -4.433  -0.139  0.00  0.00    +0.270 C 
ATOM     14  O   UNL     1      -1.896  -3.059   0.172  0.00  0.00    -0.485 OA
ATOM     15  C   UNL     1       0.035   4.288  -0.145  0.00  0.00    +0.256 C 
ATOM     16  O   UNL     1      -1.053   3.754  -0.247  0.00  0.00    -0.269 OA
ENDROOT
BRANCH  15  17
ATOM     17  C   UNL     1       0.133   5.758  -0.087  0.00  0.00    +0.079 A 
ATOM     18  C   UNL     1       0.792   6.377   0.978  0.00  0.00    +0.017 A 
ATOM     19  C   UNL     1       0.884   7.752   1.024  0.00  0.00    +0.001 A 
ATOM     20  C   UNL     1       0.316   8.524   0.023  0.00  0.00    +0.004 A 
ATOM     21  C   UNL     1      -0.343   7.926  -1.032  0.00  0.00    +0.047 A 
ATOM     22  C   UNL     1      -0.441   6.543  -1.097  0.00  0.00    +0.141 A 
BRANCH  22  23
ATOM     23  O   UNL     1      -1.089   5.954  -2.133  0.00  0.00    -0.455 OA
BRANCH  23  24
ATOM     24  C   UNL     1      -1.715   6.756  -3.033  0.00  0.00    +0.128 A 
ATOM     25  C   UNL     1      -3.098   6.869  -3.019  0.00  0.00    +0.046 A 
ATOM     26  C   UNL     1      -3.732   7.689  -3.932  0.00  0.00    +0.004 A 
ATOM     27  C   UNL     1      -2.991   8.390  -4.865  0.00  0.00    +0.000 A 
ATOM     28  C   UNL     1      -1.613   8.275  -4.885  0.00  0.00    +0.004 A 
ATOM     29  C   UNL     1      -0.974   7.460  -3.971  0.00  0.00    +0.046 A 
ENDBRANCH  23  24
ENDBRANCH  22  23
ENDBRANCH  15  17
BRANCH   1  30
ATOM     30  C   UNL     1       2.469   4.178  -0.085  0.00  0.00    +0.097 C 
BRANCH  30  31
ATOM     31  C   UNL     1       2.903   4.448  -1.527  0.00  0.00    -0.059 C 
BRANCH  31  32
ATOM     32  N   UNL     1       4.222   5.115  -1.510  0.00  0.00    +0.380 N 
ATOM     33  H   UNL     1       4.179   5.925  -0.881  0.00  0.00    -0.082 HD
BRANCH  32  35
ATOM     34  C   UNL     1       5.404   2.993  -1.973  0.00  0.00    -0.017 C 
ATOM     35  C   UNL     1       5.255   4.179  -1.018  0.00  0.00    -0.082 C 
ENDBRANCH  32  35
BRANCH  32  36
ATOM     36  C   UNL     1       4.570   5.581  -2.869  0.00  0.00    -0.082 C 
ATOM     37  C   UNL     1       5.887   6.356  -2.805  0.00  0.00    -0.017 C 
ENDBRANCH  32  36
ENDBRANCH  31  32
ENDBRANCH  30  31
ENDBRANCH   1  30
TORSDOF 8
