REMARK  Name = ZINC67202528
REMARK  9 active torsions:
REMARK  status: ('A' for Active; 'I' for Inactive)
REMARK    1  A    between atoms: C_3  and  O_11
REMARK    2  A    between atoms: C_6  and  C_7
REMARK    3  A    between atoms: C_7  and  C_8
REMARK    4  A    between atoms: O_11  and  C_12
REMARK    5  A    between atoms: C_12  and  C_13
REMARK    6  A    between atoms: N_15  and  C_16
REMARK    7  A    between atoms: C_16  and  C_17
REMARK    8  A    between atoms: N_22  and  C_23
REMARK    9  A    between atoms: C_23  and  C_24
REMARK                            x       y       z     vdW  Elec       q    Type
REMARK                         _______ _______ _______ _____ _____    ______ ____
ROOT
ATOM      1  C   UNL     1       7.196   4.274  -1.546  0.00  0.00    +0.251 C 
ATOM      2  O   UNL     1       6.242   4.239  -0.798  0.00  0.00    -0.272 OA
ATOM      3  N   UNL     1       8.262   3.482  -1.315  0.00  0.00    -0.314 N 
ATOM      4  H   UNL     1       9.025   3.510  -1.913  0.00  0.00    +0.149 HD
ENDROOT
BRANCH   1   5
ATOM      5  C   UNL     1       7.189   5.202  -2.733  0.00  0.00    +0.324 C 
BRANCH   5   6
ATOM      6  O   UNL     1       5.960   5.929  -2.762  0.00  0.00    -0.483 OA
BRANCH   6   9
ATOM      7  C   UNL     1       4.454   8.458  -4.901  0.00  0.00    +0.007 A 
ATOM      8  C   UNL     1       4.622   7.557  -3.868  0.00  0.00    +0.046 A 
ATOM      9  C   UNL     1       5.792   6.816  -3.778  0.00  0.00    +0.121 A 
ATOM     10  C   UNL     1       6.790   6.983  -4.728  0.00  0.00    +0.046 A 
ATOM     11  C   UNL     1       6.616   7.885  -5.759  0.00  0.00    +0.007 A 
ATOM     12  C   UNL     1       5.450   8.622  -5.846  0.00  0.00    -0.038 A 
BRANCH  12  13
ATOM     13  C   UNL     1       5.263   9.605  -6.972  0.00  0.00    +0.130 C 
BRANCH  13  14
ATOM     14  C   UNL     1       5.787  10.955  -6.553  0.00  0.00    +0.215 C 
ATOM     15  O   UNL     1       6.264  11.104  -5.448  0.00  0.00    -0.276 OA
ATOM     16  N   UNL     1       5.724  11.997  -7.406  0.00  0.00    -0.329 N 
ATOM     17  H   UNL     1       5.342  11.878  -8.290  0.00  0.00    +0.145 HD
ATOM     18  H   UNL     1       6.061  12.865  -7.136  0.00  0.00    +0.145 HD
ENDBRANCH  13  14
ENDBRANCH  12  13
ENDBRANCH   6   9
ENDBRANCH   5   6
ENDBRANCH   1   5
BRANCH   3  19
ATOM     19  C   UNL     1       8.269   2.581  -0.160  0.00  0.00    +0.089 C 
BRANCH  19  20
ATOM     20  C   UNL     1       9.529   1.714  -0.197  0.00  0.00    -0.051 C 
ATOM     21  C   UNL     1      10.781   2.601  -0.033  0.00  0.00    -0.016 C 
ATOM     22  C   UNL     1      11.709   1.734   0.858  0.00  0.00    -0.020 C 
ATOM     23  C   UNL     1      10.687   1.037   1.790  0.00  0.00    -0.078 C 
ATOM     24  N   UNL     1       9.515   0.760   0.927  0.00  0.00    +0.383 N 
ATOM     25  H   UNL     1       9.567  -0.183   0.572  0.00  0.00    -0.081 HD
BRANCH  24  26
ATOM     26  C   UNL     1       8.278   0.927   1.701  0.00  0.00    -0.075 C 
BRANCH  26  27
ATOM     27  C   UNL     1       8.223  -0.128   2.809  0.00  0.00    -0.028 C 
ATOM     28  C   UNL     1       8.124  -1.520   2.182  0.00  0.00    +0.002 C 
ATOM     29  C   UNL     1       8.069  -2.575   3.290  0.00  0.00    +0.000 C 
ATOM     30  C   UNL     1       6.845  -2.324   4.173  0.00  0.00    +0.000 C 
ATOM     31  C   UNL     1       6.944  -0.932   4.799  0.00  0.00    +0.000 C 
ATOM     32  C   UNL     1       6.999   0.123   3.692  0.00  0.00    +0.002 C 
ENDBRANCH  26  27
ENDBRANCH  24  26
ENDBRANCH  19  20
ENDBRANCH   3  19
TORSDOF 9
