REMARK  Name = ZINC08780638
REMARK  14 active torsions:
REMARK  status: ('A' for Active; 'I' for Inactive)
REMARK    1  A    between atoms: C_1  and  C_2
REMARK    2  A    between atoms: C_2  and  O_3
REMARK    3  A    between atoms: O_3  and  C_4
REMARK    4  A    between atoms: C_6  and  C_11
REMARK    5  A    between atoms: C_9  and  O_10
REMARK    6  A    between atoms: C_16  and  C_21
REMARK    7  A    between atoms: C_28  and  C_38
REMARK    8  A    between atoms: C_29  and  C_30
REMARK    9  A    between atoms: C_30  and  O_32
REMARK   10  A    between atoms: O_32  and  C_33
REMARK   11  A    between atoms: C_33  and  C_34
REMARK   12  A    between atoms: C_34  and  S_35
REMARK   13  A    between atoms: S_35  and  C_36
REMARK   14  A    between atoms: C_36  and  C_37
REMARK                            x       y       z     vdW  Elec       q    Type
REMARK                         _______ _______ _______ _____ _____    ______ ____
ROOT
ATOM      1  C   UNL     1      -0.701   2.190   3.650  0.00  0.00    +0.092 C 
ATOM      2  C   UNL     1      -2.012   2.867   3.336  0.00  0.00    +0.024 C 
ATOM      3  C   UNL     1      -2.619   2.675   2.145  0.00  0.00    +0.016 C 
ATOM      4  C   UNL     1      -3.929   3.350   1.823  0.00  0.00    +0.059 C 
ATOM      5  C   UNL     1      -4.735   3.550   3.108  0.00  0.00    +0.032 C 
ATOM      6  C   UNL     1      -3.899   4.388   4.081  0.00  0.00    +0.088 C 
ATOM      7  C   UNL     1      -2.583   3.697   4.316  0.00  0.00    +0.162 C 
ATOM      8  O   UNL     1      -2.004   3.860   5.372  0.00  0.00    -0.292 OA
ATOM      9  N   UNL     1      -2.051   1.868   1.198  0.00  0.00    -0.321 N 
ATOM     10  C   UNL     1      -0.722   1.557   1.252  0.00  0.00    +0.016 C 
ATOM     11  C   UNL     1      -0.034   1.702   2.398  0.00  0.00    +0.065 C 
ATOM     12  C   UNL     1      -0.020   1.055   0.016  0.00  0.00    +0.061 C 
ATOM     13  H   UNL     1      -2.667   1.462   0.382  0.00  0.00    +0.152 HD
ENDROOT
BRANCH   1  16
ATOM     14  C   UNL     1      -0.624  -0.083   6.667  0.00  0.00    +0.162 A 
ATOM     15  C   UNL     1      -0.386   0.991   5.823  0.00  0.00    +0.054 A 
ATOM     16  C   UNL     1      -0.956   1.020   4.564  0.00  0.00    -0.032 A 
ATOM     17  C   UNL     1      -1.755  -0.026   4.139  0.00  0.00    +0.008 A 
ATOM     18  C   UNL     1      -1.991  -1.102   4.974  0.00  0.00    +0.049 A 
ATOM     19  C   UNL     1      -1.427  -1.135   6.239  0.00  0.00    +0.158 A 
BRANCH  19  20
ATOM     20  O   UNL     1      -1.659  -2.193   7.061  0.00  0.00    -0.503 OA
ATOM     21  H   UNL     1      -2.295  -3.024   6.722  0.00  0.00    +0.292 HD
ENDBRANCH  19  20
BRANCH  14  22
ATOM     22  O   UNL     1      -0.068  -0.110   7.907  0.00  0.00    -0.489 OA
BRANCH  22  24
ATOM     23  C   UNL     1       1.280   0.796   9.697  0.00  0.00    +0.048 C 
ATOM     24  C   UNL     1       0.746   1.004   8.279  0.00  0.00    +0.226 C 
ENDBRANCH  22  24
ENDBRANCH  14  22
ENDBRANCH   1  16
BRANCH   5  25
ATOM     25  C   UNL     1      -6.020   4.270   2.793  0.00  0.00    -0.044 A 
ATOM     26  C   UNL     1      -5.985   5.524   2.212  0.00  0.00    +0.004 A 
ATOM     27  C   UNL     1      -7.164   6.184   1.919  0.00  0.00    +0.000 A 
ATOM     28  C   UNL     1      -8.378   5.593   2.217  0.00  0.00    +0.000 A 
ATOM     29  C   UNL     1      -8.413   4.342   2.803  0.00  0.00    +0.000 A 
ATOM     30  C   UNL     1      -7.234   3.680   3.091  0.00  0.00    +0.004 A 
ENDBRANCH   5  25
BRANCH  11  31
ATOM     31  C   UNL     1       1.345   1.387   2.424  0.00  0.00    +0.338 C 
ATOM     32  O   UNL     1       1.921   1.091   1.394  0.00  0.00    -0.245 OA
BRANCH  31  33
ATOM     33  O   UNL     1       2.021   1.415   3.591  0.00  0.00    -0.460 OA
BRANCH  33  34
ATOM     34  C   UNL     1       3.411   1.087   3.544  0.00  0.00    +0.243 C 
BRANCH  34  35
ATOM     35  C   UNL     1       4.004   1.173   4.952  0.00  0.00    +0.110 C 
BRANCH  35  36
ATOM     36  S   UNL     1       5.768   0.755   4.892  0.00  0.00    -0.158 S 
BRANCH  36  37
ATOM     37  C   UNL     1       6.313   0.902   6.616  0.00  0.00    +0.066 C 
ATOM     38  C   UNL     1       7.804   0.572   6.710  0.00  0.00    +0.015 C 
ENDBRANCH  36  37
ENDBRANCH  35  36
ENDBRANCH  34  35
ENDBRANCH  33  34
ENDBRANCH  31  33
ENDBRANCH  11  31
TORSDOF 11
