REMARK  Name = ZINC48962008
REMARK  7 active torsions:
REMARK  status: ('A' for Active; 'I' for Inactive)
REMARK    1  A    between atoms: C_1  and  C_2
REMARK    2  A    between atoms: C_4  and  C_18
REMARK    3  A    between atoms: C_5  and  S_9
REMARK    4  A    between atoms: C_6  and  C_8
REMARK    5  A    between atoms: S_9  and  N_12
REMARK    6  A    between atoms: N_12  and  N_13
REMARK    7  A    between atoms: N_16  and  C_17
REMARK                            x       y       z     vdW  Elec       q    Type
REMARK                         _______ _______ _______ _____ _____    ______ ____
ROOT
ATOM      1  S   UNL     1       1.156  -4.311  -0.216  0.00  0.00    +0.074 S 
ATOM      2  O   UNL     1       1.911  -4.369  -1.418  0.00  0.00    -0.152 OA
ATOM      3  O   UNL     1       1.718  -4.621   1.052  0.00  0.00    -0.152 OA
ENDROOT
BRANCH   1   8
ATOM      4  C   UNL     1      -1.023   1.301   0.187  0.00  0.00    +0.044 C 
ATOM      5  C   UNL     1      -0.478  -0.101   0.086  0.00  0.00    -0.050 A 
ATOM      6  C   UNL     1      -0.085  -0.603  -1.140  0.00  0.00    +0.008 A 
ATOM      7  C   UNL     1       0.414  -1.889  -1.232  0.00  0.00    -0.024 A 
ATOM      8  C   UNL     1       0.521  -2.672  -0.098  0.00  0.00    +0.113 A 
ATOM      9  C   UNL     1       0.128  -2.169   1.129  0.00  0.00    -0.024 A 
ATOM     10  C   UNL     1      -0.367  -0.882   1.221  0.00  0.00    +0.008 A 
ATOM     11  C   UNL     1       0.244  -3.023   2.365  0.00  0.00    +0.046 C 
ATOM     12  C   UNL     1       0.842  -2.437  -2.569  0.00  0.00    +0.046 C 
ENDBRANCH   1   8
BRANCH   1  13
ATOM     13  N   UNL     1      -0.138  -5.324  -0.421  0.00  0.00    -0.107 NA
ATOM     14  H   UNL     1      -0.313  -6.024   0.227  0.00  0.00    +0.172 HD
BRANCH  13  15
ATOM     15  N   UNL     1      -0.979  -5.171  -1.531  0.00  0.00    -0.216 N 
ATOM     16  C   UNL     1      -1.205  -6.213  -2.354  0.00  0.00    +0.314 C 
ATOM     17  O   UNL     1      -1.935  -6.080  -3.317  0.00  0.00    -0.251 OA
ATOM     18  N   UNL     1      -0.623  -7.404  -2.110  0.00  0.00    -0.301 N 
ATOM     19  C   UNL     1      -0.869  -8.537  -3.006  0.00  0.00    +0.129 C 
ATOM     20  H   UNL     1      -1.398  -4.314  -1.706  0.00  0.00    +0.172 HD
ATOM     21  H   UNL     1      -0.040  -7.510  -1.342  0.00  0.00    +0.150 HD
ENDBRANCH  13  15
ENDBRANCH   1  13
TORSDOF 3
