REMARK  Name = ZINC67304678
REMARK  6 active torsions:
REMARK  status: ('A' for Active; 'I' for Inactive)
REMARK    1  A    between atoms: C_1  and  N_2
REMARK    2  A    between atoms: N_2  and  C_3
REMARK    3  A    between atoms: N_2  and  C_4
REMARK    4  A    between atoms: C_4  and  C_5
REMARK    5  A    between atoms: C_5  and  N_6
REMARK    6  A    between atoms: C_13  and  C_15
REMARK                            x       y       z     vdW  Elec       q    Type
REMARK                         _______ _______ _______ _____ _____    ______ ____
ROOT
ATOM      1  N   UNL     1      -4.247  -2.055  -1.112  0.00  0.00    -0.303 NA
ATOM      2  C   UNL     1      -4.970  -2.139  -2.380  0.00  0.00    +0.086 C 
ATOM      3  C   UNL     1      -6.285  -2.853  -2.153  0.00  0.00    +0.034 C 
ATOM      4  C   UNL     1      -7.387  -1.823  -1.855  0.00  0.00    +0.109 C 
ATOM      5  N   UNL     1      -6.889  -0.742  -0.981  0.00  0.00    -0.300 N 
ATOM      6  C   UNL     1      -6.026  -0.996   0.156  0.00  0.00    +0.123 C 
ATOM      7  C   UNL     1      -4.545  -0.942  -0.292  0.00  0.00    +0.103 C 
ATOM      8  C   UNL     1      -7.250   0.528  -1.250  0.00  0.00    +0.219 C 
ATOM      9  O   UNL     1      -6.927   1.423  -0.497  0.00  0.00    -0.275 OA
ENDROOT
BRANCH   8  10
ATOM     10  C   UNL     1      -8.056   0.837  -2.485  0.00  0.00    +0.075 C 
ATOM     11  C   UNL     1      -7.116   0.987  -3.683  0.00  0.00    +0.015 C 
ATOM     12  C   UNL     1      -7.936   1.288  -4.939  0.00  0.00    +0.036 C 
ATOM     13  C   UNL     1      -8.734   2.571  -4.734  0.00  0.00    +0.112 C 
ATOM     14  C   UNL     1      -9.658   2.446  -3.527  0.00  0.00    +0.036 C 
ATOM     15  C   UNL     1      -8.830   2.140  -2.276  0.00  0.00    +0.015 C 
ATOM     16  C   UNL     1      -7.803   3.750  -4.565  0.00  0.00    +0.244 C 
ATOM     17  O   UNL     1      -6.978   3.915  -3.693  0.00  0.00    -0.273 OA
ATOM     18  N   UNL     1      -8.085   4.581  -5.590  0.00  0.00    -0.238 N 
ATOM     19  C   UNL     1      -9.056   4.090  -6.370  0.00  0.00    +0.307 C 
ATOM     20  O   UNL     1      -9.483   4.658  -7.356  0.00  0.00    -0.252 OA
ATOM     21  N   UNL     1      -9.506   2.896  -5.940  0.00  0.00    -0.285 N 
ATOM     22  H   UNL     1      -7.641   5.430  -5.742  0.00  0.00    +0.159 HD
ATOM     23  H   UNL     1     -10.202   2.356  -6.347  0.00  0.00    +0.151 HD
ENDBRANCH   8  10
BRANCH   1  24
ATOM     24  C   UNL     1      -2.799  -2.181  -1.323  0.00  0.00    +0.066 C 
BRANCH  24  25
ATOM     25  C   UNL     1      -2.117  -2.515   0.006  0.00  0.00    -0.064 C 
BRANCH  25  27
ATOM     26  C   UNL     1      -0.118  -1.341  -0.609  0.00  0.00    -0.097 C 
ATOM     27  N   UNL     1      -0.669  -2.641  -0.205  0.00  0.00    +0.377 N 
ATOM     28  C   UNL     1      -0.029  -3.078   1.043  0.00  0.00    -0.097 C 
ATOM     29  H   UNL     1      -0.492  -3.321  -0.929  0.00  0.00    -0.083 HD
ENDBRANCH  25  27
ENDBRANCH  24  25
ENDBRANCH   1  24
TORSDOF 4
