REMARK  Name = ZINC58866900
REMARK  13 active torsions:
REMARK  status: ('A' for Active; 'I' for Inactive)
REMARK    1  A    between atoms: C_1  and  C_2
REMARK    2  A    between atoms: C_2  and  C_3
REMARK    3  A    between atoms: C_2  and  C_4
REMARK    4  A    between atoms: C_2  and  N_6
REMARK    5  A    between atoms: C_4  and  O_5
REMARK    6  A    between atoms: N_6  and  C_7
REMARK    7  A    between atoms: C_7  and  C_8
REMARK    8  A    between atoms: N_10  and  C_11
REMARK    9  A    between atoms: C_11  and  C_12
REMARK   10  A    between atoms: C_12  and  N_13
REMARK   11  A    between atoms: N_13  and  C_14
REMARK   12  A    between atoms: C_17  and  C_23
REMARK   13  A    between atoms: C_19  and  N_20
REMARK                            x       y       z     vdW  Elec       q    Type
REMARK                         _______ _______ _______ _____ _____    ______ ____
ROOT
ATOM      1  C   UNL     1       5.992   0.530  -4.364  0.00  0.00    +0.120 C 
ENDROOT
BRANCH   1   2
ATOM      2  N   UNL     1       6.753  -0.133  -5.426  0.00  0.00    -0.341 N 
ATOM      3  H   UNL     1       6.295  -0.682  -6.081  0.00  0.00    +0.146 HD
BRANCH   2   4
ATOM      4  C   UNL     1       8.139   0.026  -5.495  0.00  0.00    +0.058 A 
ATOM      5  C   UNL     1       8.783   0.907  -4.635  0.00  0.00    +0.026 A 
ATOM      6  C   UNL     1      10.153   1.062  -4.706  0.00  0.00    +0.014 A 
ATOM      7  C   UNL     1      10.885   0.341  -5.632  0.00  0.00    +0.057 A 
ATOM      8  C   UNL     1      10.247  -0.536  -6.490  0.00  0.00    +0.047 A 
ATOM      9  C   UNL     1       8.878  -0.700  -6.421  0.00  0.00    +0.147 A 
BRANCH   7  10
ATOM     10  C   UNL     1      12.380   0.513  -5.707  0.00  0.00    +0.417 C 
ATOM     11  F   UNL     1      12.791   1.445  -4.748  0.00  0.00    -0.166 F 
ATOM     12  F   UNL     1      13.003  -0.715  -5.459  0.00  0.00    -0.166 F 
ATOM     13  F   UNL     1      12.734   0.967  -6.981  0.00  0.00    -0.166 F 
ENDBRANCH   7  10
BRANCH   9  14
ATOM     14  N   UNL     1       8.197  -1.643  -7.335  0.00  0.00    +0.058 N 
ATOM     15  O   UNL     1       7.265  -2.303  -6.939  0.00  0.00    -0.126 OA
ATOM     16  O   UNL     1       8.573  -1.754  -8.479  0.00  0.00    -0.126 OA
ENDBRANCH   9  14
ENDBRANCH   2   4
ENDBRANCH   1   2
BRANCH   1  17
ATOM     17  C   UNL     1       4.507   0.194  -4.515  0.00  0.00    +0.122 C 
BRANCH  17  20
ATOM     18  C   UNL     1       2.408   0.703  -3.386  0.00  0.00    +0.196 C 
ATOM     19  O   UNL     1       1.835   0.016  -4.205  0.00  0.00    -0.278 OA
ATOM     20  N   UNL     1       3.746   0.856  -3.453  0.00  0.00    -0.315 N 
ATOM     21  H   UNL     1       4.204   1.405  -2.798  0.00  0.00    +0.149 HD
BRANCH  18  22
ATOM     22  C   UNL     1       1.625   1.384  -2.294  0.00  0.00    +0.016 C 
BRANCH  22  23
ATOM     23  N   UNL     1       0.200   1.062  -2.439  0.00  0.00    +0.390 N 
ATOM     24  H   UNL     1       0.072   0.063  -2.372  0.00  0.00    -0.084 HD
ATOM     25  H   UNL     1      -0.128   1.383  -3.338  0.00  0.00    -0.084 HD
BRANCH  23  27
ATOM     26  C   UNL     1      -0.370   3.240  -1.477  0.00  0.00    -0.008 C 
ATOM     27  C   UNL     1      -0.564   1.726  -1.374  0.00  0.00    -0.050 C 
ATOM     28  C   UNL     1      -0.067   1.239  -0.011  0.00  0.00    -0.008 C 
BRANCH  27  29
ATOM     29  C   UNL     1      -2.049   1.390  -1.526  0.00  0.00    +0.143 C 
BRANCH  29  30
ATOM     30  O   UNL     1      -2.791   2.036  -0.490  0.00  0.00    -0.396 OA
ATOM     31  H   UNL     1      -3.743   1.867  -0.524  0.00  0.00    +0.209 HD
ENDBRANCH  29  30
ENDBRANCH  27  29
ENDBRANCH  23  27
ENDBRANCH  22  23
ENDBRANCH  18  22
ENDBRANCH  17  20
ENDBRANCH   1  17
TORSDOF 11
