REMARK  Name = ZINC33018406
REMARK  6 active torsions:
REMARK  status: ('A' for Active; 'I' for Inactive)
REMARK    1  A    between atoms: C_6  and  N_7
REMARK    2  A    between atoms: C_8  and  C_10
REMARK    3  A    between atoms: C_10  and  S_11
REMARK    4  A    between atoms: S_11  and  C_12
REMARK    5  A    between atoms: C_17  and  N_21
REMARK    6  A    between atoms: N_24  and  C_25
REMARK                            x       y       z     vdW  Elec       q    Type
REMARK                         _______ _______ _______ _____ _____    ______ ____
ROOT
ATOM      1  C   UNL     1      -1.161   1.865  -1.708  0.00  0.00    +0.136 A 
ATOM      2  N   UNL     1      -0.174   1.022  -1.913  0.00  0.00    -0.233 NA
ATOM      3  C   UNL     1       0.214   0.646  -3.152  0.00  0.00    +0.080 A 
ATOM      4  C   UNL     1       1.252  -0.246  -3.507  0.00  0.00    +0.031 A 
ATOM      5  C   UNL     1       1.520  -0.524  -4.822  0.00  0.00    +0.025 A 
ATOM      6  C   UNL     1       0.784   0.057  -5.851  0.00  0.00    +0.036 A 
ATOM      7  C   UNL     1      -0.243   0.938  -5.536  0.00  0.00    +0.040 A 
ATOM      8  C   UNL     1      -0.513   1.218  -4.221  0.00  0.00    +0.042 A 
ATOM      9  S   UNL     1      -1.694   2.240  -3.372  0.00  0.00    -0.061 S 
ENDROOT
BRANCH   6  10
ATOM     10  N   UNL     1       1.076  -0.243  -7.189  0.00  0.00    -0.269 N 
ATOM     11  C   UNL     1       0.081  -0.316  -8.096  0.00  0.00    +0.308 C 
ATOM     12  O   UNL     1      -1.058  -0.038  -7.773  0.00  0.00    -0.252 OA
ATOM     13  N   UNL     1       0.349  -0.696  -9.361  0.00  0.00    -0.269 N 
ATOM     14  H   UNL     1       2.116  -0.419  -7.499  0.00  0.00    +0.156 HD
ATOM     15  H   UNL     1       1.363  -1.021  -9.634  0.00  0.00    +0.156 HD
BRANCH  13  16
ATOM     16  C   UNL     1      -0.664  -0.678 -10.326  0.00  0.00    +0.035 A 
ATOM     17  C   UNL     1      -1.969  -0.998  -9.972  0.00  0.00    +0.025 A 
ATOM     18  C   UNL     1      -2.968  -0.973 -10.925  0.00  0.00    +0.022 A 
ATOM     19  C   UNL     1      -2.668  -0.642 -12.235  0.00  0.00    +0.041 A 
ATOM     20  C   UNL     1      -1.368  -0.330 -12.592  0.00  0.00    +0.022 A 
ATOM     21  C   UNL     1      -0.366  -0.347 -11.641  0.00  0.00    +0.025 A 
ATOM     22 CL   UNL     1      -3.924  -0.619 -13.433  0.00  0.00    -0.084 Cl
ENDBRANCH  13  16
ENDBRANCH   6  10
BRANCH   1  23
ATOM     23  S   UNL     1      -1.802   2.466  -0.181  0.00  0.00    -0.089 S 
BRANCH  23  24
ATOM     24  C   UNL     1      -0.718   1.597   0.979  0.00  0.00    +0.172 C 
BRANCH  24  26
ATOM     25  N   UNL     1      -0.415   1.438   3.429  0.00  0.00    -0.285 N 
ATOM     26  C   UNL     1      -1.092   1.968   2.391  0.00  0.00    +0.227 C 
ATOM     27  O   UNL     1      -2.001   2.744   2.593  0.00  0.00    -0.275 OA
ATOM     28  H   UNL     1       0.465   0.804   3.245  0.00  0.00    +0.155 HD
BRANCH  25  34
ATOM     29  C   UNL     1       0.106   1.816   5.757  0.00  0.00    +0.026 A 
ATOM     30  C   UNL     1      -0.307   2.075   7.049  0.00  0.00    +0.040 A 
ATOM     31  C   UNL     1      -1.657   2.200   7.334  0.00  0.00    +0.124 A 
ATOM     32  C   UNL     1      -2.594   2.073   6.322  0.00  0.00    +0.040 A 
ATOM     33  C   UNL     1      -2.185   1.820   5.028  0.00  0.00    +0.026 A 
ATOM     34  C   UNL     1      -0.832   1.694   4.741  0.00  0.00    +0.034 A 
ATOM     35  F   UNL     1      -2.059   2.448   8.599  0.00  0.00    -0.205 F 
ENDBRANCH  25  34
ENDBRANCH  24  26
ENDBRANCH  23  24
ENDBRANCH   1  23
TORSDOF 6
