REMARK  Name = ZINC34997630
REMARK  13 active torsions:
REMARK  status: ('A' for Active; 'I' for Inactive)
REMARK    1  A    between atoms: C_1  and  C_2
REMARK    2  A    between atoms: C_2  and  C_41
REMARK    3  A    between atoms: C_7  and  C_11
REMARK    4  A    between atoms: C_11  and  N_12
REMARK    5  A    between atoms: N_12  and  C_13
REMARK    6  A    between atoms: C_13  and  C_14
REMARK    7  A    between atoms: C_14  and  N_15
REMARK    8  A    between atoms: N_23  and  C_24
REMARK    9  A    between atoms: C_27  and  O_32
REMARK   10  A    between atoms: C_29  and  O_30
REMARK   11  A    between atoms: O_30  and  C_31
REMARK   12  A    between atoms: O_32  and  C_33
REMARK   13  A    between atoms: C_34  and  C_36
REMARK                            x       y       z     vdW  Elec       q    Type
REMARK                         _______ _______ _______ _____ _____    ______ ____
ROOT
ATOM      1  N   UNL     1       4.894  -2.347   5.091  0.00  0.00    +0.383 N 
ATOM      2  C   UNL     1       4.282  -3.326   5.998  0.00  0.00    -0.059 C 
ATOM      3  C   UNL     1       5.053  -4.647   5.919  0.00  0.00    +0.091 C 
ATOM      4  N   UNL     1       6.474  -4.375   6.189  0.00  0.00    -0.289 N 
ATOM      5  C   UNL     1       7.128  -3.293   5.436  0.00  0.00    +0.091 C 
ATOM      6  C   UNL     1       6.258  -2.036   5.538  0.00  0.00    -0.059 C 
ATOM      7  C   UNL     1       7.157  -5.096   7.100  0.00  0.00    +0.306 C 
ATOM      8  O   UNL     1       6.627  -6.044   7.646  0.00  0.00    -0.252 OA
ATOM      9  N   UNL     1       8.427  -4.765   7.407  0.00  0.00    -0.266 N 
ATOM     10  H   UNL     1       8.815  -3.950   7.051  0.00  0.00    +0.156 HD
ATOM     11  H   UNL     1       4.927  -2.731   4.158  0.00  0.00    -0.082 HD
ENDROOT
BRANCH   9  12
ATOM     12  C   UNL     1       9.187  -5.599   8.241  0.00  0.00    +0.077 A 
ATOM     13  C   UNL     1       8.770  -6.897   8.491  0.00  0.00    +0.030 A 
ATOM     14  C   UNL     1       9.518  -7.719   9.313  0.00  0.00    +0.047 A 
ATOM     15  C   UNL     1      10.689  -7.247   9.888  0.00  0.00    +0.124 A 
ATOM     16  C   UNL     1      11.111  -5.949   9.641  0.00  0.00    +0.093 A 
ATOM     17  C   UNL     1      10.366  -5.125   8.813  0.00  0.00    +0.145 A 
BRANCH  17  18
ATOM     18  O   UNL     1      10.781  -3.855   8.564  0.00  0.00    -0.493 OA
ATOM     19  C   UNL     1      11.998  -3.437   9.184  0.00  0.00    +0.277 C 
ENDBRANCH  17  18
BRANCH  15  20
ATOM     20  O   UNL     1      11.423  -8.057  10.696  0.00  0.00    -0.495 OA
ATOM     21  C   UNL     1      10.930  -9.381  10.908  0.00  0.00    +0.277 C 
ENDBRANCH  15  20
ENDBRANCH   9  12
BRANCH   1  22
ATOM     22  C   UNL     1       4.090  -1.118   5.084  0.00  0.00    -0.059 C 
BRANCH  22  23
ATOM     23  C   UNL     1       2.707  -1.416   4.502  0.00  0.00    +0.090 C 
BRANCH  23  24
ATOM     24  N   UNL     1       1.906  -0.190   4.495  0.00  0.00    -0.293 N 
ATOM     25  C   UNL     1       1.234   0.182   5.603  0.00  0.00    +0.282 C 
ATOM     26  O   UNL     1       0.637   1.242   5.626  0.00  0.00    -0.267 OA
BRANCH  25  27
ATOM     27  C   UNL     1       1.222  -0.692   6.781  0.00  0.00    +0.189 A 
ATOM     28  C   UNL     1       0.495  -0.494   7.920  0.00  0.00    +0.054 A 
ATOM     29  C   UNL     1       0.786  -1.567   8.776  0.00  0.00    +0.042 A 
ATOM     30  C   UNL     1       1.668  -2.363   8.132  0.00  0.00    +0.196 A 
ATOM     31  O   UNL     1       1.924  -1.835   6.928  0.00  0.00    -0.458 OA
ENDBRANCH  25  27
BRANCH  24  32
ATOM     32  C   UNL     1       1.834   0.632   3.285  0.00  0.00    +0.138 C 
BRANCH  32  38
ATOM     33  C   UNL     1       0.216   0.862  -0.252  0.00  0.00    +0.012 C 
ATOM     34  C   UNL     1      -0.051  -0.576   0.198  0.00  0.00    -0.025 C 
ATOM     35  C   UNL     1      -1.374  -0.752   0.971  0.00  0.00    -0.000 C 
ATOM     36  C   UNL     1      -1.708   0.510   1.776  0.00  0.00    +0.031 C 
ATOM     37  C   UNL     1      -0.510   0.922   2.597  0.00  0.00    -0.025 C 
ATOM     38  C   UNL     1       0.613   0.249   2.489  0.00  0.00    -0.053 C 
ATOM     39  C   UNL     1       0.632  -0.951   1.525  0.00  0.00    +0.022 C 
ATOM     40  C   UNL     1      -0.623  -1.821   1.782  0.00  0.00    +0.012 C 
ATOM     41  C   UNL     1       0.159  -1.601  -0.919  0.00  0.00    +0.012 C 
ENDBRANCH  32  38
ENDBRANCH  24  32
ENDBRANCH  23  24
ENDBRANCH  22  23
ENDBRANCH   1  22
TORSDOF 9
