REMARK  Name = ZINC43262353
REMARK  7 active torsions:
REMARK  status: ('A' for Active; 'I' for Inactive)
REMARK    1  A    between atoms: C_1  and  C_2
REMARK    2  A    between atoms: C_2  and  C_4
REMARK    3  A    between atoms: C_2  and  N_22
REMARK    4  A    between atoms: C_4  and  C_6
REMARK    5  A    between atoms: C_4  and  N_12
REMARK    6  A    between atoms: C_16  and  C_18
REMARK    7  A    between atoms: N_20  and  C_21
REMARK                            x       y       z     vdW  Elec       q    Type
REMARK                         _______ _______ _______ _____ _____    ______ ____
ROOT
ATOM      1  C   UNL     1       1.574  -0.149   2.178  0.00  0.00    -0.013 C 
ENDROOT
BRANCH   1   2
ATOM      2  C   UNL     1       3.041  -0.144   1.834  0.00  0.00    -0.021 A 
ATOM      3  C   UNL     1       3.759   0.795   1.171  0.00  0.00    +0.011 A 
ATOM      4  C   UNL     1       5.110   0.586   0.967  0.00  0.00    +0.023 A 
ATOM      5  C   UNL     1       5.677  -0.553   1.437  0.00  0.00    +0.055 A 
ATOM      6  S   UNL     1       4.286  -1.370   2.201  0.00  0.00    -0.088 S 
ATOM      7 BR   UNL     1       7.476  -1.124   1.319  0.00  0.00    -0.043 Br
ENDBRANCH   1   2
BRANCH   1   8
ATOM      8  N   UNL     1       1.050  -1.517   2.068  0.00  0.00    +0.393 N 
ATOM      9  C   UNL     1       1.395  -2.092   0.743  0.00  0.00    -0.077 C 
ATOM     10  C   UNL     1       1.302  -3.620   0.984  0.00  0.00    -0.020 C 
ATOM     11  C   UNL     1       1.862  -3.778   2.416  0.00  0.00    -0.008 C 
ATOM     12  C   UNL     1       1.696  -2.393   3.068  0.00  0.00    +0.020 C 
ATOM     13  H   UNL     1       0.049  -1.518   2.199  0.00  0.00    -0.080 HD
BRANCH  12  14
ATOM     14  C   UNL     1       0.825  -2.504   4.293  0.00  0.00    +0.199 C 
ATOM     15  O   UNL     1      -0.382  -2.518   4.179  0.00  0.00    -0.278 OA
ATOM     16  N   UNL     1       1.388  -2.587   5.515  0.00  0.00    -0.320 N 
ATOM     17  C   UNL     1       0.541  -2.695   6.706  0.00  0.00    +0.128 C 
ATOM     18  H   UNL     1       2.354  -2.576   5.606  0.00  0.00    +0.148 HD
ENDBRANCH  12  14
ENDBRANCH   1   8
BRANCH   1  20
ATOM     19  C   UNL     1       1.994   1.753   3.744  0.00  0.00    +0.022 C 
ATOM     20  C   UNL     1       1.384   0.356   3.610  0.00  0.00    +0.039 C 
BRANCH  20  21
ATOM     21  N   UNL     1      -0.050   0.416   3.922  0.00  0.00    -0.329 NA
ATOM     22  H   UNL     1      -0.501  -0.465   3.722  0.00  0.00    +0.118 HD
ATOM     23  H   UNL     1      -0.200   0.688   4.882  0.00  0.00    +0.118 HD
ENDBRANCH  20  21
ENDBRANCH   1  20
TORSDOF 5
