REMARK  Name = ZINC56604821
REMARK  9 active torsions:
REMARK  status: ('A' for Active; 'I' for Inactive)
REMARK    1  A    between atoms: C_1  and  C_2
REMARK    2  A    between atoms: C_2  and  C_3
REMARK    3  A    between atoms: C_2  and  C_4
REMARK    4  A    between atoms: C_2  and  C_5
REMARK    5  A    between atoms: C_5  and  C_6
REMARK    6  A    between atoms: C_6  and  N_7
REMARK    7  A    between atoms: N_15  and  C_16
REMARK    8  A    between atoms: C_21  and  C_22
REMARK    9  A    between atoms: C_22  and  C_23
REMARK                            x       y       z     vdW  Elec       q    Type
REMARK                         _______ _______ _______ _____ _____    ______ ____
ROOT
ATOM      1  N   UNL     1       2.704  -0.704  -2.726  0.00  0.00    +0.382 N 
ATOM      2  C   UNL     1       2.113  -0.356  -4.025  0.00  0.00    -0.059 C 
ATOM      3  C   UNL     1       2.978  -0.934  -5.150  0.00  0.00    +0.091 C 
ATOM      4  N   UNL     1       4.359  -0.461  -4.965  0.00  0.00    -0.289 N 
ATOM      5  C   UNL     1       4.976  -0.622  -3.639  0.00  0.00    +0.091 C 
ATOM      6  C   UNL     1       4.016  -0.059  -2.586  0.00  0.00    -0.059 C 
ATOM      7  C   UNL     1       5.040   0.103  -5.982  0.00  0.00    +0.306 C 
ATOM      8  O   UNL     1       4.549   0.145  -7.094  0.00  0.00    -0.252 OA
ATOM      9  N   UNL     1       6.265   0.621  -5.768  0.00  0.00    -0.269 N 
ATOM     10  H   UNL     1       6.686   0.529  -4.898  0.00  0.00    +0.156 HD
ATOM     11  H   UNL     1       2.814  -1.705  -2.667  0.00  0.00    -0.082 HD
ENDROOT
BRANCH   9  12
ATOM     12  C   UNL     1       6.932   1.293  -6.799  0.00  0.00    +0.038 A 
ATOM     13  C   UNL     1       6.222   1.759  -7.898  0.00  0.00    +0.023 A 
ATOM     14  C   UNL     1       6.883   2.422  -8.914  0.00  0.00    +0.002 A 
ATOM     15  C   UNL     1       8.249   2.622  -8.838  0.00  0.00    +0.000 A 
ATOM     16  C   UNL     1       8.958   2.159  -7.745  0.00  0.00    +0.006 A 
ATOM     17  C   UNL     1       8.302   1.500  -6.722  0.00  0.00    -0.017 A 
BRANCH  17  18
ATOM     18  C   UNL     1       9.075   1.002  -5.529  0.00  0.00    +0.132 C 
BRANCH  18  19
ATOM     19  C   UNL     1       9.451  -0.442  -5.741  0.00  0.00    +0.215 C 
ATOM     20  O   UNL     1       9.124  -1.010  -6.761  0.00  0.00    -0.276 OA
ATOM     21  N   UNL     1      10.152  -1.102  -4.797  0.00  0.00    -0.329 N 
ATOM     22  H   UNL     1      10.413  -0.648  -3.981  0.00  0.00    +0.145 HD
ATOM     23  H   UNL     1      10.394  -2.031  -4.934  0.00  0.00    +0.145 HD
ENDBRANCH  18  19
ENDBRANCH  17  18
ENDBRANCH   9  12
BRANCH   1  24
ATOM     24  C   UNL     1       1.818  -0.245  -1.648  0.00  0.00    -0.078 C 
BRANCH  24  25
ATOM     25  C   UNL     1       0.493  -1.008  -1.719  0.00  0.00    -0.013 C 
BRANCH  25  27
ATOM     26  C   UNL     1      -0.695   0.968  -0.756  0.00  0.00    +0.010 C 
ATOM     27  C   UNL     1      -0.430  -0.530  -0.596  0.00  0.00    -0.039 C 
ATOM     28  C   UNL     1       0.236  -0.789   0.757  0.00  0.00    +0.010 C 
ATOM     29  C   UNL     1      -1.755  -1.293  -0.666  0.00  0.00    +0.010 C 
ENDBRANCH  25  27
ENDBRANCH  24  25
ENDBRANCH   1  24
TORSDOF 6
