REMARK  Name = ZINC64644530
REMARK  5 active torsions:
REMARK  status: ('A' for Active; 'I' for Inactive)
REMARK    1  A    between atoms: C_3  and  C_6
REMARK    2  A    between atoms: C_6  and  N_7
REMARK    3  A    between atoms: C_11  and  C_13
REMARK    4  A    between atoms: C_13  and  N_14
REMARK    5  A    between atoms: C_20  and  C_22
REMARK                            x       y       z     vdW  Elec       q    Type
REMARK                         _______ _______ _______ _____ _____    ______ ____
ROOT
ATOM      1  C   UNL     1       7.429   3.486   2.772  0.00  0.00    +0.107 C 
ENDROOT
BRANCH   1   2
ATOM      2  N   UNL     1       7.826   3.822   4.141  0.00  0.00    -0.299 N 
ATOM      3  C   UNL     1       9.024   4.393   4.375  0.00  0.00    +0.302 C 
ATOM      4  O   UNL     1       9.776   4.629   3.449  0.00  0.00    -0.253 OA
ATOM      5  N   UNL     1       9.389   4.702   5.635  0.00  0.00    -0.285 N 
ATOM      6  C   UNL     1       8.582   4.466   6.846  0.00  0.00    +0.110 C 
ATOM      7  C   UNL     1       9.612   4.391   8.001  0.00  0.00    +0.033 C 
ATOM      8  C   UNL     1      10.645   5.464   7.567  0.00  0.00    +0.094 C 
ATOM      9  C   UNL     1      10.661   5.325   6.030  0.00  0.00    +0.122 C 
ATOM     10  H   UNL     1       7.226   3.633   4.880  0.00  0.00    +0.150 HD
BRANCH   8  11
ATOM     11  C   UNL     1      12.004   5.159   8.141  0.00  0.00    +0.215 C 
ATOM     12  O   UNL     1      12.162   4.179   8.838  0.00  0.00    -0.276 OA
ATOM     13  N   UNL     1      13.044   5.976   7.881  0.00  0.00    -0.329 N 
ATOM     14  H   UNL     1      12.918   6.760   7.324  0.00  0.00    +0.145 HD
ATOM     15  H   UNL     1      13.919   5.779   8.251  0.00  0.00    +0.145 HD
ENDBRANCH   8  11
ENDBRANCH   1   2
BRANCH   1  20
ATOM     16  N   UNL     1       4.235   2.004   1.357  0.00  0.00    +0.383 N 
ATOM     17  C   UNL     1       4.291   0.689   2.007  0.00  0.00    -0.078 C 
ATOM     18  C   UNL     1       4.707   0.857   3.470  0.00  0.00    -0.018 C 
ATOM     19  C   UNL     1       6.087   1.518   3.531  0.00  0.00    +0.001 C 
ATOM     20  C   UNL     1       6.036   2.854   2.785  0.00  0.00    -0.011 C 
ATOM     21  C   UNL     1       5.571   2.612   1.347  0.00  0.00    -0.073 C 
ATOM     22  H   UNL     1       3.599   2.601   1.864  0.00  0.00    -0.081 HD
BRANCH  16  23
ATOM     23  C   UNL     1       3.761   1.845  -0.024  0.00  0.00    -0.036 C 
BRANCH  23  26
ATOM     24  C   UNL     1      -0.016   1.351   0.009  0.00  0.00    +0.008 A 
ATOM     25  C   UNL     1       1.183   2.038   0.002  0.00  0.00    +0.009 A 
ATOM     26  C   UNL     1       2.343   1.336  -0.013  0.00  0.00    -0.027 A 
ATOM     27  S   UNL     1       1.754  -0.349  -0.017  0.00  0.00    -0.103 S 
ATOM     28  C   UNL     1       0.002  -0.004   0.002  0.00  0.00    +0.045 A 
ENDBRANCH  23  26
ENDBRANCH  16  23
ENDBRANCH   1  20
TORSDOF 5
