REMARK  Name = ZINC50395971
REMARK  5 active torsions:
REMARK  status: ('A' for Active; 'I' for Inactive)
REMARK    1  A    between atoms: C_3  and  C_8
REMARK    2  A    between atoms: C_8  and  C_10
REMARK    3  A    between atoms: C_8  and  O_20
REMARK    4  A    between atoms: C_10  and  N_11
REMARK    5  A    between atoms: N_11  and  C_12
REMARK                            x       y       z     vdW  Elec       q    Type
REMARK                         _______ _______ _______ _____ _____    ______ ____
ROOT
ATOM      1  C   UNL     1       4.096   2.464  -1.484  0.00  0.00    -0.045 C 
ENDROOT
BRANCH   1   2
ATOM      2  N   UNL     1       5.421   3.097  -1.472  0.00  0.00    +0.388 N 
ATOM      3  H   UNL     1       5.343   4.034  -1.106  0.00  0.00    -0.085 HD
ATOM      4  H   UNL     1       6.046   2.559  -0.889  0.00  0.00    -0.085 HD
BRANCH   2   5
ATOM      5  C   UNL     1       5.952   3.149  -2.841  0.00  0.00    +0.016 C 
ATOM      6  C   UNL     1       6.194   1.724  -3.346  0.00  0.00    -0.005 C 
ATOM      7  C   UNL     1       6.996   1.803  -4.651  0.00  0.00    +0.018 C 
ATOM      8  C   UNL     1       8.397   2.328  -4.334  0.00  0.00    +0.104 C 
ATOM      9  N   UNL     1       8.318   3.547  -3.540  0.00  0.00    -0.317 N 
ATOM     10  C   UNL     1       7.241   3.918  -2.848  0.00  0.00    +0.199 C 
ATOM     11  O   UNL     1       7.307   4.934  -2.189  0.00  0.00    -0.278 OA
ATOM     12  H   UNL     1       9.097   4.123  -3.512  0.00  0.00    +0.149 HD
ENDBRANCH   2   5
ENDBRANCH   1   2
BRANCH   1  13
ATOM     13  C   UNL     1       3.488   2.528  -0.081  0.00  0.00    +0.128 C 
BRANCH  13  16
ATOM     14  C   UNL     1      -0.253   2.056  -0.273  0.00  0.00    +0.001 A 
ATOM     15  C   UNL     1       0.995   2.651  -0.261  0.00  0.00    +0.006 A 
ATOM     16  C   UNL     1       2.128   1.878  -0.093  0.00  0.00    -0.020 A 
ATOM     17  C   UNL     1       2.014   0.509   0.063  0.00  0.00    +0.021 A 
ATOM     18  C   UNL     1       0.766  -0.086   0.052  0.00  0.00    +0.018 A 
ATOM     19  C   UNL     1      -0.368   0.688  -0.116  0.00  0.00    +0.015 A 
ATOM     20 BR   UNL     1       0.611  -1.959   0.266  0.00  0.00    -0.050 Br
ENDBRANCH  13  16
BRANCH  13  21
ATOM     21  O   UNL     1       4.337   1.838   0.838  0.00  0.00    -0.389 OA
ATOM     22  H   UNL     1       4.469   0.903   0.626  0.00  0.00    +0.210 HD
ENDBRANCH  13  21
ENDBRANCH   1  13
TORSDOF 5
