REMARK  Name = ZINC39933353
REMARK  9 active torsions:
REMARK  status: ('A' for Active; 'I' for Inactive)
REMARK    1  A    between atoms: C_1  and  C_2
REMARK    2  A    between atoms: C_6  and  N_8
REMARK    3  A    between atoms: C_9  and  S_23
REMARK    4  A    between atoms: C_13  and  C_14
REMARK    5  A    between atoms: S_23  and  C_24
REMARK    6  A    between atoms: C_24  and  C_26
REMARK    7  A    between atoms: C_24  and  C_27
REMARK    8  A    between atoms: N_29  and  C_30
REMARK    9  A    between atoms: C_33  and  C_36
REMARK                            x       y       z     vdW  Elec       q    Type
REMARK                         _______ _______ _______ _____ _____    ______ ____
ROOT
ATOM      1  N   UNL     1      -0.053  -2.712   2.492  0.00  0.00    -0.254 N 
ATOM      2  C   UNL     1      -0.043  -4.184   2.456  0.00  0.00    +0.242 C 
ATOM      3  N   UNL     1       0.023  -4.581   3.872  0.00  0.00    -0.237 N 
ATOM      4  N   UNL     1       0.047  -3.396   4.617  0.00  0.00    -0.169 NA
ATOM      5  C   UNL     1       0.010  -2.346   3.839  0.00  0.00    +0.151 C 
ATOM      6  H   UNL     1       0.045  -5.486   4.221  0.00  0.00    +0.171 HD
ENDROOT
BRANCH   5   7
ATOM      7  C   UNL     1       0.028  -1.020   4.298  0.00  0.00    +0.022 C 
ATOM      8  C   UNL     1       0.192  -0.585   5.614  0.00  0.00    +0.006 A 
ATOM      9  C   UNL     1       0.380  -1.276   6.830  0.00  0.00    +0.010 A 
ATOM     10  C   UNL     1       0.513  -0.579   7.987  0.00  0.00    +0.001 A 
ATOM     11  C   UNL     1       0.470   0.817   8.009  0.00  0.00    +0.002 A 
ATOM     12  C   UNL     1       0.292   1.545   6.879  0.00  0.00    +0.026 A 
ATOM     13  C   UNL     1       0.145   0.886   5.631  0.00  0.00    +0.043 A 
ATOM     14  N   UNL     1      -0.035   1.357   4.413  0.00  0.00    -0.380 N 
ATOM     15  C   UNL     1      -0.119   0.237   3.469  0.00  0.00    +0.152 C 
ATOM     16  H   UNL     1      -0.099   2.295   4.177  0.00  0.00    +0.160 HD
ENDBRANCH   5   7
BRANCH   1  22
ATOM     17  C   UNL     1      -2.564  -0.851  -1.302  0.00  0.00    +0.044 C 
ATOM     18  C   UNL     1      -1.314  -0.928  -0.464  0.00  0.00    -0.049 A 
ATOM     19  C   UNL     1      -0.220  -0.144  -0.782  0.00  0.00    +0.003 A 
ATOM     20  C   UNL     1       0.929  -0.211  -0.015  0.00  0.00    +0.002 A 
ATOM     21  C   UNL     1       0.988  -1.062   1.071  0.00  0.00    +0.023 A 
ATOM     22  C   UNL     1      -0.109  -1.851   1.393  0.00  0.00    +0.038 A 
ATOM     23  C   UNL     1      -1.264  -1.777   0.625  0.00  0.00    +0.027 A 
ENDBRANCH   1  22
BRANCH   2  24
ATOM     24  S   UNL     1       1.411  -4.787   1.556  0.00  0.00    -0.105 S 
BRANCH  24  25
ATOM     25  C   UNL     1       2.807  -4.332   2.622  0.00  0.00    +0.133 C 
ATOM     26  C   UNL     1       3.014  -2.817   2.572  0.00  0.00    +0.029 C 
BRANCH  25  27
ATOM     27  C   UNL     1       4.055  -5.026   2.139  0.00  0.00    +0.230 C 
ATOM     28  O   UNL     1       4.148  -5.368   0.980  0.00  0.00    -0.274 OA
ATOM     29  N   UNL     1       5.066  -5.266   2.997  0.00  0.00    -0.285 N 
ATOM     30  H   UNL     1       4.963  -5.060   3.939  0.00  0.00    +0.155 HD
BRANCH  29  31
ATOM     31  C   UNL     1       6.262  -5.810   2.529  0.00  0.00    +0.033 A 
ATOM     32  C   UNL     1       6.729  -5.474   1.262  0.00  0.00    +0.024 A 
ATOM     33  C   UNL     1       7.909  -6.010   0.797  0.00  0.00    +0.015 A 
ATOM     34  C   UNL     1       8.638  -6.892   1.600  0.00  0.00    +0.037 A 
ATOM     35  C   UNL     1       8.166  -7.227   2.872  0.00  0.00    +0.015 A 
ATOM     36  C   UNL     1       6.988  -6.684   3.332  0.00  0.00    +0.024 A 
BRANCH  34  37
ATOM     37  C   UNL     1       9.903  -7.468   1.105  0.00  0.00    +0.242 C 
ATOM     38  O   UNL     1      10.312  -7.176  -0.003  0.00  0.00    -0.270 OA
ATOM     39  N   UNL     1      10.605  -8.319   1.879  0.00  0.00    -0.325 N 
ATOM     40  H   UNL     1      10.279  -8.552   2.763  0.00  0.00    +0.145 HD
ATOM     41  H   UNL     1      11.437  -8.698   1.554  0.00  0.00    +0.145 HD
ENDBRANCH  34  37
ENDBRANCH  29  31
ENDBRANCH  25  27
ENDBRANCH  24  25
ENDBRANCH   2  24
TORSDOF 7
