REMARK  Name = ZINC14990835
REMARK  8 active torsions:
REMARK  status: ('A' for Active; 'I' for Inactive)
REMARK    1  A    between atoms: C_1  and  C_2
REMARK    2  A    between atoms: C_3  and  C_4
REMARK    3  A    between atoms: C_3  and  C_5
REMARK    4  A    between atoms: C_5  and  N_61
REMARK    5  A    between atoms: C_8  and  C_11
REMARK    6  A    between atoms: C_8  and  O_32
REMARK    7  A    between atoms: C_18  and  C_20
REMARK    8  A    between atoms: N_22  and  C_23
REMARK                            x       y       z     vdW  Elec       q    Type
REMARK                         _______ _______ _______ _____ _____    ______ ____
ROOT
ATOM      1  C   UNL     1      -6.262   6.756   0.644  0.00  0.00    -0.015 A 
ATOM      2  C   UNL     1      -6.871   5.511   0.573  0.00  0.00    +0.010 A 
ATOM      3  C   UNL     1      -6.118   4.364   0.444  0.00  0.00    +0.047 A 
ATOM      4  C   UNL     1      -4.732   4.450   0.383  0.00  0.00    +0.136 A 
ATOM      5  C   UNL     1      -4.119   5.715   0.455  0.00  0.00    +0.021 A 
ATOM      6  C   UNL     1      -4.902   6.865   0.586  0.00  0.00    +0.018 A 
ATOM      7  C   UNL     1      -2.681   5.465   0.364  0.00  0.00    +0.063 A 
ATOM      8  C   UNL     1      -2.540   4.119   0.249  0.00  0.00    +0.191 A 
ATOM      9  O   UNL     1      -3.755   3.531   0.256  0.00  0.00    -0.450 OA
ENDROOT
BRANCH   1  12
ATOM     10  C   UNL     1      -9.339   9.009   0.310  0.00  0.00    -0.075 C 
ATOM     11  C   UNL     1      -8.464   7.770   0.111  0.00  0.00    +0.021 C 
ATOM     12  C   UNL     1      -7.107   7.996   0.785  0.00  0.00    +0.088 C 
ATOM     13  C   UNL     1      -7.327   8.299   2.269  0.00  0.00    +0.021 C 
ATOM     14  C   UNL     1      -8.237   9.522   2.406  0.00  0.00    -0.075 C 
ATOM     15  N   UNL     1      -9.534   9.232   1.759  0.00  0.00    +0.382 N 
ATOM     16  H   UNL     1      -9.931   8.382   2.176  0.00  0.00    -0.081 HD
BRANCH  12  17
ATOM     17  O   UNL     1      -6.444   9.099   0.165  0.00  0.00    -0.384 OA
ATOM     18  H   UNL     1      -5.577   9.300   0.543  0.00  0.00    +0.211 HD
ENDBRANCH  12  17
BRANCH  15  19
ATOM     19  C   UNL     1     -10.469  10.354   1.976  0.00  0.00    -0.048 C 
BRANCH  19  22
ATOM     20  C   UNL     1      -9.662  12.117   5.291  0.00  0.00    +0.035 C 
ATOM     21  C   UNL     1      -9.686  11.730   3.834  0.00  0.00    -0.033 C 
ATOM     22  C   UNL     1     -10.446  10.742   3.432  0.00  0.00    -0.093 C 
ATOM     23  C   UNL     1     -11.297   9.993   4.424  0.00  0.00    +0.037 C 
ENDBRANCH  19  22
ENDBRANCH  15  19
ENDBRANCH   1  12
BRANCH   8  24
ATOM     24  C   UNL     1      -1.258   3.411   0.128  0.00  0.00    +0.284 C 
ATOM     25  O   UNL     1      -0.215   4.037   0.127  0.00  0.00    -0.266 OA
ATOM     26  N   UNL     1      -1.238   2.068   0.019  0.00  0.00    -0.279 N 
ATOM     27  H   UNL     1      -2.071   1.574  -0.047  0.00  0.00    +0.155 HD
BRANCH  26  28
ATOM     28  C   UNL     1      -0.017   1.385   0.002  0.00  0.00    +0.037 A 
ATOM     29  C   UNL     1       1.089   1.955  -0.616  0.00  0.00    +0.027 A 
ATOM     30  C   UNL     1       2.294   1.279  -0.640  0.00  0.00    +0.051 A 
ATOM     31  C   UNL     1       2.404   0.032  -0.046  0.00  0.00    +0.166 A 
ATOM     32  C   UNL     1       1.296  -0.543   0.574  0.00  0.00    +0.168 A 
ATOM     33  C   UNL     1       0.089   0.135   0.597  0.00  0.00    +0.072 A 
ATOM     34  O   UNL     1       1.660  -1.759   1.076  0.00  0.00    -0.453 OA
ATOM     35  C   UNL     1       2.886  -2.102   0.403  0.00  0.00    +0.466 C 
ATOM     36  O   UNL     1       3.461  -0.825   0.068  0.00  0.00    -0.453 OA
ENDBRANCH  26  28
ENDBRANCH   8  24
TORSDOF 6
