REMARK  Name = ZINC47766617
REMARK  9 active torsions:
REMARK  status: ('A' for Active; 'I' for Inactive)
REMARK    1  A    between atoms: C_1  and  C_2
REMARK    2  A    between atoms: C_2  and  C_3
REMARK    3  A    between atoms: C_3  and  O_4
REMARK    4  A    between atoms: O_4  and  C_5
REMARK    5  A    between atoms: C_7  and  C_29
REMARK    6  A    between atoms: C_10  and  N_11
REMARK    7  A    between atoms: N_14  and  C_15
REMARK    8  A    between atoms: C_15  and  C_16
REMARK    9  A    between atoms: N_25  and  C_28
REMARK                            x       y       z     vdW  Elec       q    Type
REMARK                         _______ _______ _______ _____ _____    ______ ____
ROOT
ATOM      1  N   UNL     1       0.841  -4.700   1.304  0.00  0.00    -0.266 N 
ATOM      2  C   UNL     1       0.988  -6.040   1.310  0.00  0.00    +0.304 C 
ATOM      3  O   UNL     1       1.549  -6.586   2.241  0.00  0.00    -0.252 OA
ATOM      4  N   UNL     1       0.514  -6.775   0.284  0.00  0.00    -0.295 N 
ATOM      5  H   UNL     1       0.322  -4.273   0.604  0.00  0.00    +0.156 HD
ATOM      6  H   UNL     1       0.067  -6.340  -0.458  0.00  0.00    +0.151 HD
ENDROOT
BRANCH   1  12
ATOM      7  C   UNL     1       0.913  -2.674   2.627  0.00  0.00    +0.142 A 
ATOM      8  C   UNL     1       1.503  -1.914   3.624  0.00  0.00    +0.051 A 
ATOM      9  C   UNL     1       2.611  -2.396   4.296  0.00  0.00    -0.047 A 
ATOM     10  C   UNL     1       3.134  -3.635   3.976  0.00  0.00    +0.005 A 
ATOM     11  C   UNL     1       2.552  -4.399   2.982  0.00  0.00    +0.027 A 
ATOM     12  C   UNL     1       1.436  -3.925   2.308  0.00  0.00    +0.077 A 
ATOM     13  C   UNL     1       3.251  -1.567   5.380  0.00  0.00    +0.044 C 
BRANCH   7  14
ATOM     14  O   UNL     1      -0.176  -2.202   1.964  0.00  0.00    -0.490 OA
BRANCH  14  15
ATOM     15  C   UNL     1      -0.658  -0.911   2.345  0.00  0.00    +0.229 C 
BRANCH  15  17
ATOM     16  C   UNL     1      -2.395   0.830   1.903  0.00  0.00    +0.007 C 
ATOM     17  C   UNL     1      -1.879  -0.552   1.496  0.00  0.00    +0.038 C 
ENDBRANCH  15  17
ENDBRANCH  14  15
ENDBRANCH   7  14
ENDBRANCH   1  12
BRANCH   4  18
ATOM     18  C   UNL     1       0.674  -8.231   0.291  0.00  0.00    +0.141 C 
BRANCH  18  19
ATOM     19  C   UNL     1       0.063  -8.810  -0.959  0.00  0.00    -0.026 A 
ATOM     20  C   UNL     1      -1.273  -9.190  -0.985  0.00  0.00    +0.023 A 
ATOM     21  C   UNL     1      -1.803  -9.716  -2.146  0.00  0.00    +0.084 A 
ATOM     22  N   UNL     1      -1.058  -9.861  -3.225  0.00  0.00    -0.350 N 
ATOM     23  C   UNL     1       0.218  -9.512  -3.240  0.00  0.00    +0.099 A 
ATOM     24  C   UNL     1       0.817  -8.969  -2.107  0.00  0.00    +0.047 A 
ATOM     25  N   UNL     1       0.966  -9.683  -4.399  0.00  0.00    -0.320 N 
ATOM     26  C   UNL     1       2.413  -9.418  -4.411  0.00  0.00    +0.088 C 
ATOM     27  C   UNL     1       3.123 -10.629  -5.026  0.00  0.00    -0.060 C 
ATOM     28  N   UNL     1       2.548 -10.914  -6.347  0.00  0.00    +0.380 N 
ATOM     29  C   UNL     1       1.142 -11.311  -6.204  0.00  0.00    -0.060 C 
ATOM     30  C   UNL     1       0.334 -10.140  -5.646  0.00  0.00    +0.088 C 
ATOM     31  C   UNL     1       3.301 -12.004  -6.982  0.00  0.00    -0.096 C 
ATOM     32  H   UNL     1      -1.456 -10.234  -4.028  0.00  0.00    +0.166 HD
ATOM     33  H   UNL     1       2.606 -10.088  -6.923  0.00  0.00    -0.082 HD
ENDBRANCH  18  19
ENDBRANCH   4  18
TORSDOF 6
