REMARK  Name = ZINC66476294
REMARK  7 active torsions:
REMARK  status: ('A' for Active; 'I' for Inactive)
REMARK    1  A    between atoms: N_9  and  C_11
REMARK    2  A    between atoms: C_11  and  C_12
REMARK    3  A    between atoms: C_12  and  C_14
REMARK    4  A    between atoms: C_12  and  O_29
REMARK    5  A    between atoms: C_14  and  S_15
REMARK    6  A    between atoms: S_15  and  C_16
REMARK    7  A    between atoms: C_19  and  C_22
REMARK                            x       y       z     vdW  Elec       q    Type
REMARK                         _______ _______ _______ _____ _____    ______ ____
ROOT
ATOM      1  C   UNL     1       5.908  -2.179   1.160  0.00  0.00    +0.108 C 
ENDROOT
BRANCH   1   2
ATOM      2  O   UNL     1       5.521  -2.425   2.513  0.00  0.00    -0.393 OA
ATOM      3  H   UNL     1       5.441  -3.363   2.735  0.00  0.00    +0.210 HD
ENDBRANCH   1   2
BRANCH   1   4
ATOM      4  C   UNL     1       4.866  -2.780   0.214  0.00  0.00    -0.046 C 
BRANCH   4  13
ATOM      5  C   UNL     1      -0.017   1.376   0.010  0.00  0.00    +0.000 A 
ATOM      6  C   UNL     1       1.173   2.080   0.002  0.00  0.00    +0.000 A 
ATOM      7  C   UNL     1       2.375   1.401  -0.015  0.00  0.00    +0.002 A 
ATOM      8  C   UNL     1       2.395   0.014  -0.023  0.00  0.00    -0.061 A 
ATOM      9  C   UNL     1       1.208  -0.687  -0.013  0.00  0.00    -0.048 A 
ATOM     10  C   UNL     1       0.002  -0.004   0.002  0.00  0.00    +0.004 A 
ATOM     11  C   UNL     1       1.186  -2.194  -0.014  0.00  0.00    +0.017 C 
ATOM     12  C   UNL     1       2.554  -2.732  -0.434  0.00  0.00    -0.074 C 
ATOM     13  N   UNL     1       3.587  -2.079   0.386  0.00  0.00    +0.384 N 
ATOM     14  C   UNL     1       3.728  -0.686  -0.046  0.00  0.00    -0.043 C 
ATOM     15  H   UNL     1       3.313  -2.106   1.357  0.00  0.00    -0.081 HD
ENDBRANCH   4  13
ENDBRANCH   1   4
BRANCH   1  16
ATOM     16  C   UNL     1       7.270  -2.822   0.894  0.00  0.00    +0.106 C 
BRANCH  16  17
ATOM     17  S   UNL     1       8.505  -2.110   2.015  0.00  0.00    -0.084 S 
BRANCH  17  18
ATOM     18  C   UNL     1       9.998  -2.943   1.590  0.00  0.00    +0.185 A 
ATOM     19  N   UNL     1      10.131  -3.864   0.661  0.00  0.00    -0.201 NA
ATOM     20  H   UNL     1      11.419  -2.119   2.870  0.00  0.00    +0.191 HD
ATOM     21  C   UNL     1      11.407  -4.274   0.613  0.00  0.00    +0.185 A 
ATOM     22  N   UNL     1      12.100  -3.616   1.514  0.00  0.00    -0.151 NA
ATOM     23  N   UNL     1      11.209  -2.742   2.157  0.00  0.00    -0.253 N 
BRANCH  21  24
ATOM     24  C   UNL     1      11.948  -5.304  -0.308  0.00  0.00    +0.056 A 
ATOM     25  C   UNL     1      11.109  -5.930  -1.228  0.00  0.00    +0.014 A 
ATOM     26  C   UNL     1      11.617  -6.887  -2.082  0.00  0.00    +0.001 A 
ATOM     27  C   UNL     1      12.957  -7.227  -2.028  0.00  0.00    +0.003 A 
ATOM     28  C   UNL     1      13.796  -6.611  -1.118  0.00  0.00    +0.039 A 
ATOM     29  C   UNL     1      13.300  -5.646  -0.260  0.00  0.00    +0.134 A 
ATOM     30  F   UNL     1      14.121  -5.040   0.625  0.00  0.00    -0.205 F 
ENDBRANCH  21  24
ENDBRANCH  17  18
ENDBRANCH  16  17
ENDBRANCH   1  16
TORSDOF 7
