REMARK  Name = ZINC40366637
REMARK  9 active torsions:
REMARK  status: ('A' for Active; 'I' for Inactive)
REMARK    1  A    between atoms: C_1  and  C_2
REMARK    2  A    between atoms: C_2  and  C_3
REMARK    3  A    between atoms: C_2  and  C_4
REMARK    4  A    between atoms: C_2  and  N_6
REMARK    5  A    between atoms: C_4  and  N_5
REMARK    6  A    between atoms: N_6  and  S_7
REMARK    7  A    between atoms: S_7  and  C_10
REMARK    8  A    between atoms: N_12  and  C_19
REMARK    9  A    between atoms: N_15  and  C_18
REMARK                            x       y       z     vdW  Elec       q    Type
REMARK                         _______ _______ _______ _____ _____    ______ ____
ROOT
ATOM      1  S   UNL     1       1.606  -0.796  -1.172  0.00  0.00    +0.065 S 
ATOM      2  O   UNL     1       1.906  -1.437  -2.404  0.00  0.00    -0.153 OA
ATOM      3  O   UNL     1       1.960   0.555  -0.909  0.00  0.00    -0.153 OA
ENDROOT
BRANCH   1   4
ATOM      4  C   UNL     1       2.351  -1.767   0.096  0.00  0.00    +0.186 A 
ATOM      5  C   UNL     1       3.121  -1.185   1.040  0.00  0.00    +0.124 A 
ATOM      6  N   UNL     1       3.692  -1.954   2.017  0.00  0.00    -0.301 N 
ATOM      7  C   UNL     1       3.494  -3.284   2.045  0.00  0.00    +0.332 A 
ATOM      8  O   UNL     1       4.012  -3.949   2.922  0.00  0.00    -0.246 OA
ATOM      9  N   UNL     1       2.731  -3.890   1.117  0.00  0.00    -0.262 N 
ATOM     10  C   UNL     1       2.146  -3.167   0.141  0.00  0.00    +0.283 A 
ATOM     11  O   UNL     1       1.451  -3.713  -0.697  0.00  0.00    -0.265 OA
ATOM     12  C   UNL     1       2.531  -5.340   1.170  0.00  0.00    +0.157 C 
ATOM     13  C   UNL     1       4.528  -1.322   3.042  0.00  0.00    +0.153 C 
ENDBRANCH   1   4
BRANCH   1  14
ATOM     14  N   UNL     1      -0.034  -0.903  -0.970  0.00  0.00    -0.186 NA
ATOM     15  H   UNL     1      -0.577  -1.354  -1.636  0.00  0.00    +0.149 HD
BRANCH  14  17
ATOM     16  C   UNL     1      -0.530   1.206   0.165  0.00  0.00    +0.027 C 
ATOM     17  C   UNL     1      -0.667  -0.317   0.214  0.00  0.00    +0.019 C 
ATOM     18  C   UNL     1       0.019  -0.850   1.474  0.00  0.00    +0.027 C 
BRANCH  17  19
ATOM     19  C   UNL     1      -2.149  -0.696   0.242  0.00  0.00    -0.063 C 
BRANCH  19  20
ATOM     20  N   UNL     1      -2.280  -2.158   0.289  0.00  0.00    +0.379 N 
ATOM     21  H   UNL     1      -1.844  -2.562  -0.526  0.00  0.00    -0.090 HD
ATOM     22  H   UNL     1      -1.827  -2.509   1.120  0.00  0.00    -0.090 HD
ATOM     23  H   UNL     1      -3.257  -2.408   0.307  0.00  0.00    -0.090 HD
ENDBRANCH  19  20
ENDBRANCH  17  19
ENDBRANCH  14  17
ENDBRANCH   1  14
TORSDOF 5
