REMARK  Name = ZINC05387024
REMARK  5 active torsions:
REMARK  status: ('A' for Active; 'I' for Inactive)
REMARK    1  A    between atoms: C_1  and  O_2
REMARK    2  A    between atoms: O_2  and  C_3
REMARK    3  A    between atoms: C_8  and  C_23
REMARK    4  A    between atoms: N_10  and  C_11
REMARK    5  A    between atoms: C_15  and  C_17
REMARK                            x       y       z     vdW  Elec       q    Type
REMARK                         _______ _______ _______ _____ _____    ______ ____
ROOT
ATOM      1  C   UNL     1       1.224  -1.178  -0.827  0.00  0.00    +0.124 A 
ATOM      2  C   UNL     1       2.463  -0.751  -1.299  0.00  0.00    +0.046 A 
ATOM      3  C   UNL     1       3.171  -1.518  -2.178  0.00  0.00    +0.015 A 
ATOM      4  C   UNL     1       2.646  -2.741  -2.618  0.00  0.00    +0.018 A 
ATOM      5  C   UNL     1       3.357  -3.532  -3.560  0.00  0.00    +0.028 A 
ATOM      6  C   UNL     1       2.713  -4.625  -4.114  0.00  0.00    +0.078 A 
ATOM      7  C   UNL     1       1.316  -4.870  -3.706  0.00  0.00    +0.210 A 
ATOM      8  N   UNL     1       0.482  -5.521  -4.488  0.00  0.00    -0.325 N 
ATOM      9  O   UNL     1       0.922  -4.399  -2.495  0.00  0.00    -0.438 OA
ATOM     10  C   UNL     1       1.408  -3.190  -2.120  0.00  0.00    +0.141 A 
ATOM     11  C   UNL     1       0.701  -2.398  -1.230  0.00  0.00    +0.092 A 
ATOM     12  H   UNL     1      -0.393  -5.778  -4.157  0.00  0.00    +0.169 HD
ENDROOT
BRANCH   6  13
ATOM     13  C   UNL     1       3.397  -5.511  -5.075  0.00  0.00    +0.144 A 
ATOM     14  N   UNL     1       4.032  -5.096  -6.216  0.00  0.00    -0.338 N 
ATOM     15  H   UNL     1       4.110  -4.182  -6.531  0.00  0.00    +0.167 HD
ATOM     16  C   UNL     1       4.539  -6.223  -6.834  0.00  0.00    +0.066 A 
ATOM     17  C   UNL     1       5.264  -6.439  -7.998  0.00  0.00    +0.028 A 
ATOM     18  C   UNL     1       5.629  -7.723  -8.347  0.00  0.00    +0.002 A 
ATOM     19  C   UNL     1       5.276  -8.798  -7.544  0.00  0.00    +0.002 A 
ATOM     20  C   UNL     1       4.563  -8.605  -6.395  0.00  0.00    +0.030 A 
ATOM     21  C   UNL     1       4.182  -7.312  -6.019  0.00  0.00    +0.089 A 
ATOM     22  N   UNL     1       3.494  -6.815  -4.964  0.00  0.00    -0.228 NA
ENDBRANCH   6  13
BRANCH   8  23
ATOM     23  C   UNL     1       0.848  -5.835  -5.768  0.00  0.00    +0.043 A 
ATOM     24  C   UNL     1       1.228  -4.824  -6.656  0.00  0.00    +0.026 A 
ATOM     25  C   UNL     1       1.598  -5.140  -7.948  0.00  0.00    +0.003 A 
ATOM     26  C   UNL     1       1.595  -6.455  -8.372  0.00  0.00    +0.013 A 
ATOM     27  C   UNL     1       1.217  -7.474  -7.496  0.00  0.00    +0.038 A 
ATOM     28  C   UNL     1       0.848  -7.165  -6.188  0.00  0.00    +0.038 A 
BRANCH  27  29
ATOM     29  C   UNL     1       1.215  -8.881  -7.952  0.00  0.00    +0.242 C 
ATOM     30  O   UNL     1       0.886  -9.768  -7.189  0.00  0.00    -0.270 OA
ATOM     31  N   UNL     1       1.578  -9.180  -9.216  0.00  0.00    -0.325 N 
ATOM     32  H   UNL     1       1.840  -8.472  -9.825  0.00  0.00    +0.145 HD
ATOM     33  H   UNL     1       1.576 -10.102  -9.515  0.00  0.00    +0.145 HD
ENDBRANCH  27  29
ENDBRANCH   8  23
BRANCH   1  35
ATOM     34  C   UNL     1       1.120   0.847   0.412  0.00  0.00    +0.277 C 
ATOM     35  O   UNL     1       0.526  -0.398   0.037  0.00  0.00    -0.495 OA
ENDBRANCH   1  35
TORSDOF 4
