REMARK  Name = ZINC39631290
REMARK  12 active torsions:
REMARK  status: ('A' for Active; 'I' for Inactive)
REMARK    1  A    between atoms: C_1  and  C_2
REMARK    2  A    between atoms: C_2  and  C_4
REMARK    3  A    between atoms: C_2  and  N_11
REMARK    4  A    between atoms: C_4  and  C_5
REMARK    5  A    between atoms: C_5  and  C_6
REMARK    6  A    between atoms: C_6  and  C_7
REMARK    7  A    between atoms: C_7  and  C_8
REMARK    8  A    between atoms: C_7  and  C_9
REMARK    9  A    between atoms: C_7  and  O_10
REMARK   10  A    between atoms: C_12  and  C_14
REMARK   11  A    between atoms: C_25  and  C_27
REMARK   12  A    between atoms: C_32  and  C_33
REMARK                            x       y       z     vdW  Elec       q    Type
REMARK                         _______ _______ _______ _____ _____    ______ ____
ROOT
ATOM      1  C   UNL     1       1.152  -0.796   4.079  0.00  0.00    +0.100 C 
ATOM      2  C   UNL     1       1.440  -2.255   3.659  0.00  0.00    +0.121 C 
ATOM      3  N   UNL     1       1.127  -3.059   4.864  0.00  0.00    -0.296 N 
ATOM      4  C   UNL     1      -0.087  -2.421   5.428  0.00  0.00    +0.115 C 
ATOM      5  C   UNL     1       0.149  -0.909   5.240  0.00  0.00    -0.004 C 
ATOM      6  C   UNL     1       0.740  -0.305   6.510  0.00  0.00    -0.010 C 
ATOM      7  C   UNL     1      -0.296  -0.379   7.634  0.00  0.00    -0.082 C 
ATOM      8  N   UNL     1      -1.505   0.353   7.237  0.00  0.00    +0.379 N 
ATOM      9  C   UNL     1      -2.119  -0.290   6.069  0.00  0.00    -0.082 C 
ATOM     10  C   UNL     1      -1.159  -0.213   4.878  0.00  0.00    -0.010 C 
ATOM     11  C   UNL     1       1.794  -4.130   5.338  0.00  0.00    +0.247 C 
ATOM     12  O   UNL     1       1.353  -4.749   6.287  0.00  0.00    -0.270 OA
ATOM     13  H   UNL     1      -2.162   0.355   8.002  0.00  0.00    -0.086 HD
ATOM     14  H   UNL     1      -1.260   1.304   7.005  0.00  0.00    -0.086 HD
ENDROOT
BRANCH  11  15
ATOM     15  C   UNL     1       3.061  -4.551   4.705  0.00  0.00    +0.049 A 
ATOM     16  C   UNL     1       3.220  -4.454   3.321  0.00  0.00    +0.013 A 
ATOM     17  C   UNL     1       4.406  -4.848   2.737  0.00  0.00    +0.001 A 
ATOM     18  C   UNL     1       5.436  -5.340   3.519  0.00  0.00    +0.001 A 
ATOM     19  C   UNL     1       5.285  -5.440   4.890  0.00  0.00    +0.013 A 
ATOM     20  C   UNL     1       4.106  -5.043   5.488  0.00  0.00    +0.067 A 
BRANCH  20  21
ATOM     21  C   UNL     1       3.946  -5.147   6.983  0.00  0.00    +0.418 C 
ATOM     22  F   UNL     1       5.119  -5.664   7.543  0.00  0.00    -0.166 F 
ATOM     23  F   UNL     1       3.695  -3.877   7.514  0.00  0.00    -0.166 F 
ATOM     24  F   UNL     1       2.874  -5.996   7.279  0.00  0.00    -0.166 F 
ENDBRANCH  20  21
ENDBRANCH  11  15
BRANCH   1  26
ATOM     25  N   UNL     1       0.744   1.298   2.827  0.00  0.00    -0.312 N 
ATOM     26  C   UNL     1       0.543  -0.030   2.933  0.00  0.00    +0.218 C 
ATOM     27  O   UNL     1      -0.128  -0.610   2.105  0.00  0.00    -0.275 OA
ATOM     28  H   UNL     1       1.281   1.762   3.488  0.00  0.00    +0.149 HD
BRANCH  25  30
ATOM     29  C   UNL     1      -1.283   2.436   2.067  0.00  0.00    +0.028 C 
ATOM     30  C   UNL     1       0.152   2.042   1.712  0.00  0.00    +0.070 C 
BRANCH  30  31
ATOM     31  C   UNL     1       0.976   3.303   1.446  0.00  0.00    +0.022 C 
BRANCH  31  32
ATOM     32  C   UNL     1       2.376   2.908   0.971  0.00  0.00    +0.005 C 
BRANCH  32  33
ATOM     33  C   UNL     1       3.200   4.169   0.704  0.00  0.00    +0.034 C 
BRANCH  33  34
ATOM     34  C   UNL     1       4.599   3.773   0.229  0.00  0.00    +0.061 C 
ATOM     35  C   UNL     1       5.462   5.028   0.082  0.00  0.00    +0.041 C 
ATOM     36  C   UNL     1       5.238   2.832   1.252  0.00  0.00    +0.041 C 
BRANCH  34  37
ATOM     37  O   UNL     1       4.503   3.111  -1.034  0.00  0.00    -0.389 OA
ATOM     38  H   UNL     1       4.107   3.650  -1.732  0.00  0.00    +0.210 HD
ENDBRANCH  34  37
ENDBRANCH  33  34
ENDBRANCH  32  33
ENDBRANCH  31  32
ENDBRANCH  30  31
ENDBRANCH  25  30
ENDBRANCH   1  26
TORSDOF 9
