REMARK  Name = ZINC13464900
REMARK  10 active torsions:
REMARK  status: ('A' for Active; 'I' for Inactive)
REMARK    1  A    between atoms: C_1  and  C_2
REMARK    2  A    between atoms: C_10  and  C_21
REMARK    3  A    between atoms: N_12  and  C_13
REMARK    4  A    between atoms: C_13  and  C_14
REMARK    5  A    between atoms: C_14  and  C_15
REMARK    6  A    between atoms: N_23  and  C_24
REMARK    7  A    between atoms: C_24  and  C_25
REMARK    8  A    between atoms: C_25  and  C_26
REMARK    9  A    between atoms: C_26  and  O_27
REMARK   10  A    between atoms: O_27  and  C_28
REMARK                            x       y       z     vdW  Elec       q    Type
REMARK                         _______ _______ _______ _____ _____    ______ ____
ROOT
ATOM      1  C   UNL     1      -5.291  -7.163   0.252  0.00  0.00    +0.045 C 
ATOM      2  C   UNL     1      -4.799  -5.739   0.240  0.00  0.00    -0.034 A 
ATOM      3  C   UNL     1      -5.713  -4.681   0.343  0.00  0.00    +0.008 A 
ATOM      4  C   UNL     1      -5.259  -3.396   0.332  0.00  0.00    +0.047 A 
ATOM      5  C   UNL     1      -3.879  -3.148   0.216  0.00  0.00    +0.143 A 
ATOM      6  N   UNL     1      -3.448  -1.886   0.206  0.00  0.00    -0.211 NA
ATOM      7  C   UNL     1      -2.159  -1.592   0.101  0.00  0.00    +0.150 A 
ATOM      8  C   UNL     1      -1.216  -2.640  -0.005  0.00  0.00    +0.083 A 
ATOM      9  C   UNL     1       0.154  -2.364  -0.117  0.00  0.00    +0.033 A 
ATOM     10  C   UNL     1       0.585  -1.044  -0.126  0.00  0.00    +0.078 A 
ATOM     11  C   UNL     1      -0.410   0.033  -0.016  0.00  0.00    +0.119 A 
ATOM     12  N   UNL     1      -1.748  -0.282   0.098  0.00  0.00    -0.311 N 
ATOM     13  C   UNL     1      -1.684  -3.980   0.007  0.00  0.00    +0.268 A 
ATOM     14  O   UNL     1      -0.904  -4.912  -0.083  0.00  0.00    -0.267 OA
ATOM     15  N   UNL     1      -3.013  -4.200   0.118  0.00  0.00    -0.267 N 
ATOM     16  C   UNL     1      -3.476  -5.482   0.131  0.00  0.00    +0.099 A 
ATOM     17  H   UNL     1       0.894   1.604  -0.019  0.00  0.00    +0.157 HD
ATOM     18  N   UNL     1      -0.087   1.324  -0.022  0.00  0.00    -0.384 N 
ATOM     19  H   UNL     1      -0.825   2.038  -0.029  0.00  0.00    +0.157 HD
ENDROOT
BRANCH  10  20
ATOM     20  C   UNL     1       2.013  -0.729  -0.242  0.00  0.00    +0.248 C 
ATOM     21  O   UNL     1       2.392   0.423  -0.144  0.00  0.00    -0.270 OA
ATOM     22  N   UNL     1       2.906  -1.716  -0.458  0.00  0.00    -0.311 N 
ATOM     23  H   UNL     1       2.604  -2.634  -0.536  0.00  0.00    +0.149 HD
BRANCH  22  24
ATOM     24  C   UNL     1       4.332  -1.401  -0.574  0.00  0.00    +0.107 C 
BRANCH  24  25
ATOM     25  C   UNL     1       5.121  -2.689  -0.815  0.00  0.00    +0.047 C 
BRANCH  25  26
ATOM     26  C   UNL     1       6.610  -2.360  -0.937  0.00  0.00    +0.161 C 
BRANCH  26  27
ATOM     27  O   UNL     1       7.347  -3.564  -1.162  0.00  0.00    -0.383 OA
ATOM     28  C   UNL     1       8.757  -3.367  -1.290  0.00  0.00    +0.193 C 
ENDBRANCH  26  27
ENDBRANCH  25  26
ENDBRANCH  24  25
ENDBRANCH  22  24
ENDBRANCH  10  20
BRANCH  12  29
ATOM     29  C   UNL     1      -2.739   0.791   0.213  0.00  0.00    +0.130 C 
BRANCH  29  30
ATOM     30  C   UNL     1      -3.215   1.197  -1.183  0.00  0.00    +0.057 C 
BRANCH  30  31
ATOM     31  C   UNL     1      -4.234   2.301  -1.065  0.00  0.00    -0.046 A 
ATOM     32  C   UNL     1      -5.577   1.992  -0.956  0.00  0.00    +0.004 A 
ATOM     33  C   UNL     1      -6.512   3.003  -0.842  0.00  0.00    +0.000 A 
ATOM     34  C   UNL     1      -6.105   4.324  -0.848  0.00  0.00    +0.000 A 
ATOM     35  C   UNL     1      -4.763   4.634  -0.963  0.00  0.00    +0.000 A 
ATOM     36  C   UNL     1      -3.828   3.622  -1.071  0.00  0.00    +0.004 A 
ENDBRANCH  30  31
ENDBRANCH  29  30
ENDBRANCH  12  29
TORSDOF 8
