REMARK  Name = ZINC66243021
REMARK  7 active torsions:
REMARK  status: ('A' for Active; 'I' for Inactive)
REMARK    1  A    between atoms: C_2  and  C_3
REMARK    2  A    between atoms: C_3  and  N_4
REMARK    3  A    between atoms: N_7  and  C_8
REMARK    4  A    between atoms: C_8  and  C_9
REMARK    5  A    between atoms: C_14  and  C_15
REMARK    6  A    between atoms: C_15  and  N_16
REMARK    7  A    between atoms: N_19  and  C_22
REMARK                            x       y       z     vdW  Elec       q    Type
REMARK                         _______ _______ _______ _____ _____    ______ ____
ROOT
ATOM      1  C   UNL     1       3.601  -5.074   3.670  0.00  0.00    -0.024 A 
ATOM      2  C   UNL     1       4.281  -4.739   4.827  0.00  0.00    +0.006 A 
ATOM      3  C   UNL     1       4.001  -5.400   6.008  0.00  0.00    +0.000 A 
ATOM      4  C   UNL     1       3.042  -6.395   6.034  0.00  0.00    +0.000 A 
ATOM      5  C   UNL     1       2.361  -6.729   4.878  0.00  0.00    +0.005 A 
ATOM      6  C   UNL     1       2.638  -6.065   3.697  0.00  0.00    -0.029 A 
ENDROOT
BRANCH   1   7
ATOM      7  C   UNL     1       3.905  -4.354   2.382  0.00  0.00    +0.151 C 
BRANCH   7  11
ATOM      8  N   UNL     1       2.009  -1.678   0.769  0.00  0.00    -0.354 N 
ATOM      9  C   UNL     1       2.933  -2.568   0.998  0.00  0.00    +0.169 C 
ATOM     10  N   UNL     1       3.974  -2.722   0.113  0.00  0.00    -0.371 N 
ATOM     11  N   UNL     1       2.867  -3.353   2.124  0.00  0.00    -0.354 N 
ATOM     12  H   UNL     1       4.021  -2.168  -0.682  0.00  0.00    +0.159 HD
ATOM     13  H   UNL     1       4.662  -3.385   0.283  0.00  0.00    +0.159 HD
ATOM     14  H   UNL     1       2.132  -3.245   2.749  0.00  0.00    +0.163 HD
ATOM     15  H   UNL     1       1.275  -1.569   1.393  0.00  0.00    +0.163 HD
BRANCH   8  16
ATOM     16  C   UNL     1       2.080  -0.841  -0.432  0.00  0.00    +0.142 C 
BRANCH  16  18
ATOM     17  C   UNL     1       1.096   1.390  -0.563  0.00  0.00    +0.005 C 
ATOM     18  C   UNL     1       0.902   0.098  -0.460  0.00  0.00    -0.014 C 
ENDBRANCH  16  18
ENDBRANCH   8  16
ENDBRANCH   7  11
ENDBRANCH   1   7
BRANCH   6  19
ATOM     19  C   UNL     1       1.892  -6.425   2.438  0.00  0.00    +0.120 C 
BRANCH  19  20
ATOM     20  N   UNL     1       0.860  -5.414   2.174  0.00  0.00    -0.295 NA
ATOM     21  C   UNL     1      -0.132  -5.379   3.257  0.00  0.00    +0.103 C 
ATOM     22  C   UNL     1      -1.083  -4.197   3.037  0.00  0.00    +0.120 C 
ATOM     23  N   UNL     1      -1.645  -4.297   1.681  0.00  0.00    -0.327 N 
ATOM     24  C   UNL     1      -0.717  -4.473   0.554  0.00  0.00    +0.120 C 
ATOM     25  C   UNL     1       0.219  -5.644   0.872  0.00  0.00    +0.103 C 
BRANCH  23  26
ATOM     26  C   UNL     1      -3.024  -4.227   1.471  0.00  0.00    +0.030 A 
ATOM     27  C   UNL     1      -3.892  -4.169   2.554  0.00  0.00    +0.023 A 
ATOM     28  C   UNL     1      -5.255  -4.099   2.342  0.00  0.00    +0.002 A 
ATOM     29  C   UNL     1      -5.756  -4.087   1.053  0.00  0.00    +0.000 A 
ATOM     30  C   UNL     1      -4.895  -4.144  -0.028  0.00  0.00    +0.002 A 
ATOM     31  C   UNL     1      -3.531  -4.208   0.177  0.00  0.00    +0.023 A 
ENDBRANCH  23  26
ENDBRANCH  19  20
ENDBRANCH   6  19
TORSDOF 7
