REMARK  Name = ZINC03669892
REMARK  9 active torsions:
REMARK  status: ('A' for Active; 'I' for Inactive)
REMARK    1  A    between atoms: C_1  and  C_2
REMARK    2  A    between atoms: C_6  and  C_7
REMARK    3  A    between atoms: C_9  and  C_32
REMARK    4  A    between atoms: C_10  and  N_31
REMARK    5  A    between atoms: N_11  and  C_21
REMARK    6  A    between atoms: C_17  and  C_19
REMARK    7  A    between atoms: C_17  and  C_20
REMARK    8  A    between atoms: C_24  and  S_27
REMARK    9  A    between atoms: S_27  and  N_30
REMARK                            x       y       z     vdW  Elec       q    Type
REMARK                         _______ _______ _______ _____ _____    ______ ____
ROOT
ATOM      1  C   UNL     1      -2.823   3.711   0.227  0.00  0.00    +0.104 C 
ATOM      2  C   UNL     1      -1.519   3.134  -0.239  0.00  0.00    +0.077 C 
ATOM      3  C   UNL     1      -1.356   1.793  -0.384  0.00  0.00    +0.107 C 
ATOM      4  N   UNL     1      -2.391   0.936  -0.086  0.00  0.00    -0.260 N 
ATOM      5  C   UNL     1      -3.429   1.347   0.709  0.00  0.00    +0.025 C 
ATOM      6  C   UNL     1      -3.672   2.661   0.899  0.00  0.00    +0.026 C 
ATOM      7  C   UNL     1      -4.724   3.091   1.725  0.00  0.00    +0.162 C 
ATOM      8  O   UNL     1      -4.921   4.282   1.869  0.00  0.00    -0.292 OA
ATOM      9  C   UNL     1      -5.612   2.106   2.435  0.00  0.00    +0.086 C 
ATOM     10  C   UNL     1      -4.821   0.820   2.697  0.00  0.00    -0.023 C 
ATOM     11  C   UNL     1      -4.293   0.295   1.360  0.00  0.00    +0.058 C 
ATOM     12  C   UNL     1      -3.648   1.119   3.632  0.00  0.00    +0.011 C 
ATOM     13  C   UNL     1      -5.736  -0.225   3.339  0.00  0.00    +0.011 C 
ENDROOT
BRANCH   1  19
ATOM     14  C   UNL     1      -3.660   6.635  -0.198  0.00  0.00    +0.044 C 
ATOM     15  C   UNL     1      -3.965   5.545  -1.192  0.00  0.00    -0.039 A 
ATOM     16  C   UNL     1      -4.646   5.830  -2.361  0.00  0.00    +0.011 A 
ATOM     17  C   UNL     1      -4.910   4.825  -3.230  0.00  0.00    +0.046 A 
ATOM     18  S   UNL     1      -4.181   3.421  -2.404  0.00  0.00    -0.100 S 
ATOM     19  C   UNL     1      -3.573   4.269  -0.956  0.00  0.00    +0.005 A 
ENDBRANCH   1  19
BRANCH   4  20
ATOM     20  C   UNL     1      -2.382  -0.367  -0.597  0.00  0.00    +0.040 A 
ATOM     21  C   UNL     1      -3.033  -0.650  -1.791  0.00  0.00    +0.026 A 
ATOM     22  C   UNL     1      -3.017  -1.935  -2.297  0.00  0.00    +0.030 A 
ATOM     23  C   UNL     1      -2.365  -2.942  -1.609  0.00  0.00    +0.105 A 
ATOM     24  C   UNL     1      -1.720  -2.665  -0.417  0.00  0.00    +0.030 A 
ATOM     25  C   UNL     1      -1.727  -1.381   0.091  0.00  0.00    +0.026 A 
BRANCH  23  26
ATOM     26  S   UNL     1      -2.353  -4.582  -2.253  0.00  0.00    +0.056 S 
ATOM     27  O   UNL     1      -2.561  -4.470  -3.654  0.00  0.00    -0.153 OA
ATOM     28  O   UNL     1      -1.214  -5.228  -1.702  0.00  0.00    -0.153 OA
BRANCH  26  29
ATOM     29  N   UNL     1      -3.681  -5.359  -1.639  0.00  0.00    -0.204 NA
ATOM     30  H   UNL     1      -4.112  -6.062  -2.150  0.00  0.00    +0.144 HD
ATOM     31  H   UNL     1      -4.028  -5.111  -0.767  0.00  0.00    +0.144 HD
ENDBRANCH  26  29
ENDBRANCH  23  26
ENDBRANCH   4  20
BRANCH   3  32
ATOM     32  N   UNL     1      -0.155   1.292  -0.824  0.00  0.00    -0.345 N 
ATOM     33  H   UNL     1      -0.006   0.333  -0.841  0.00  0.00    +0.144 HD
ATOM     34  H   UNL     1       0.543   1.896  -1.122  0.00  0.00    +0.144 HD
ENDBRANCH   3  32
BRANCH   2  35
ATOM     35  C   UNL     1      -0.428   4.012  -0.540  0.00  0.00    +0.099 C 
ATOM     36  N   UNL     1       0.437   4.708  -0.779  0.00  0.00    -0.191 NA
ENDBRANCH   2  35
TORSDOF 6
