REMARK  Name = ZINC12605403
REMARK  8 active torsions:
REMARK  status: ('A' for Active; 'I' for Inactive)
REMARK    1  A    between atoms: N_6  and  C_7
REMARK    2  A    between atoms: C_7  and  C_8
REMARK    3  A    between atoms: C_8  and  N_9
REMARK    4  A    between atoms: C_10  and  C_12
REMARK    5  A    between atoms: C_12  and  C_13
REMARK    6  A    between atoms: C_16  and  N_19
REMARK    7  A    between atoms: N_19  and  S_20
REMARK    8  A    between atoms: S_20  and  C_23
REMARK                            x       y       z     vdW  Elec       q    Type
REMARK                         _______ _______ _______ _____ _____    ______ ____
ROOT
ATOM      1  C   UNL     1       1.239   2.082   0.074  0.00  0.00    -0.039 A 
ATOM      2  C   UNL     1       0.042   1.392   0.131  0.00  0.00    +0.006 A 
ATOM      3  C   UNL     1       0.037   0.012   0.100  0.00  0.00    +0.025 A 
ATOM      4  C   UNL     1       1.237  -0.684   0.011  0.00  0.00    +0.048 A 
ATOM      5  C   UNL     1       2.437   0.013  -0.046  0.00  0.00    +0.025 A 
ATOM      6  C   UNL     1       2.435   1.393  -0.015  0.00  0.00    +0.006 A 
ENDROOT
BRANCH   4   7
ATOM      7  N   UNL     1       1.235  -2.080  -0.021  0.00  0.00    -0.216 N 
ATOM      8  H   UNL     1       0.691  -2.579   0.608  0.00  0.00    +0.174 HD
BRANCH   7   9
ATOM      9  S   UNL     1       2.163  -2.884  -1.133  0.00  0.00    +0.072 S 
ATOM     10  O   UNL     1       3.481  -2.368  -1.012  0.00  0.00    -0.150 OA
ATOM     11  O   UNL     1       1.869  -4.266  -0.984  0.00  0.00    -0.150 OA
BRANCH   9  12
ATOM     12  C   UNL     1       1.584  -2.415  -2.730  0.00  0.00    +0.111 A 
ATOM     13  C   UNL     1       0.515  -3.081  -3.300  0.00  0.00    +0.049 A 
ATOM     14  C   UNL     1       0.056  -2.710  -4.552  0.00  0.00    +0.044 A 
ATOM     15  C   UNL     1       0.675  -1.680  -5.237  0.00  0.00    +0.040 A 
ATOM     16  C   UNL     1       1.748  -1.018  -4.669  0.00  0.00    +0.044 A 
ATOM     17  C   UNL     1       2.203  -1.386  -3.415  0.00  0.00    +0.049 A 
ATOM     18 CL   UNL     1       2.525   0.276  -5.528  0.00  0.00    -0.083 Cl
ATOM     19 CL   UNL     1      -1.291  -3.541  -5.265  0.00  0.00    -0.083 Cl
ENDBRANCH   9  12
ENDBRANCH   7   9
ENDBRANCH   4   7
BRANCH   1  20
ATOM     20  C   UNL     1       1.241   3.589   0.108  0.00  0.00    +0.130 C 
BRANCH  20  22
ATOM     21  N   UNL     1       1.343   5.378   1.812  0.00  0.00    -0.314 N 
ATOM     22  C   UNL     1       1.327   4.059   1.537  0.00  0.00    +0.217 C 
ATOM     23  O   UNL     1       1.382   3.251   2.439  0.00  0.00    -0.275 OA
ATOM     24  H   UNL     1       1.299   6.025   1.091  0.00  0.00    +0.149 HD
BRANCH  21  25
ATOM     25  C   UNL     1       1.427   5.836   3.201  0.00  0.00    +0.123 C 
BRANCH  25  26
ATOM     26  C   UNL     1       1.429   7.365   3.236  0.00  0.00    +0.121 C 
BRANCH  26  32
ATOM     27  C   UNL     1       1.484  11.456   4.166  0.00  0.00    +0.005 A 
ATOM     28  C   UNL     1       1.564  11.841   5.498  0.00  0.00    +0.018 A 
ATOM     29  C   UNL     1       1.624  10.872   6.480  0.00  0.00    +0.084 A 
ATOM     30  C   UNL     1       1.529   9.183   4.909  0.00  0.00    +0.096 A 
ATOM     31  C   UNL     1       1.466  10.105   3.869  0.00  0.00    +0.041 A 
ATOM     32  N   UNL     1       1.513   7.823   4.625  0.00  0.00    -0.329 N 
ATOM     33  H   UNL     1       1.557   7.176   5.347  0.00  0.00    +0.147 HD
ATOM     34  N   UNL     1       1.603   9.536   6.225  0.00  0.00    -0.350 N 
ATOM     35  H   UNL     1       1.640   8.837   6.976  0.00  0.00    +0.166 HD
ENDBRANCH  26  32
ENDBRANCH  25  26
ENDBRANCH  21  25
ENDBRANCH  20  22
ENDBRANCH   1  20
TORSDOF 8
