REMARK  Name = ZINC13039934
REMARK  12 active torsions:
REMARK  status: ('A' for Active; 'I' for Inactive)
REMARK    1  A    between atoms: C_1  and  C_2
REMARK    2  A    between atoms: C_2  and  C_4
REMARK    3  A    between atoms: C_2  and  N_11
REMARK    4  A    between atoms: N_11  and  C_12
REMARK    5  A    between atoms: C_12  and  C_13
REMARK    6  A    between atoms: N_15  and  C_16
REMARK    7  A    between atoms: C_17  and  C_25
REMARK    8  A    between atoms: C_21  and  C_22
REMARK    9  A    between atoms: C_22  and  C_23
REMARK   10  A    between atoms: C_22  and  C_24
REMARK   11  A    between atoms: C_25  and  C_26
REMARK   12  A    between atoms: C_25  and  C_27
REMARK                            x       y       z     vdW  Elec       q    Type
REMARK                         _______ _______ _______ _____ _____    ______ ____
ROOT
ATOM      1  C   UNL     1       0.042  -1.025  -3.796  0.00  0.00    +0.200 C 
ATOM      2  O   UNL     1       0.498  -2.147  -3.849  0.00  0.00    -0.278 OA
ATOM      3  N   UNL     1       0.134  -0.209  -4.865  0.00  0.00    -0.287 N 
ATOM      4  H   UNL     1      -0.273   0.671  -4.840  0.00  0.00    +0.155 HD
ENDROOT
BRANCH   3   5
ATOM      5  C   UNL     1       0.816  -0.633  -6.012  0.00  0.00    +0.040 A 
ATOM      6  C   UNL     1       2.116  -1.111  -5.911  0.00  0.00    -0.023 A 
ATOM      7  C   UNL     1       2.786  -1.528  -7.044  0.00  0.00    +0.006 A 
ATOM      8  C   UNL     1       2.164  -1.470  -8.278  0.00  0.00    +0.001 A 
ATOM      9  C   UNL     1       0.871  -0.993  -8.382  0.00  0.00    +0.006 A 
ATOM     10  C   UNL     1       0.192  -0.581  -7.251  0.00  0.00    -0.023 A 
BRANCH  10  11
ATOM     11  C   UNL     1      -1.220  -0.068  -7.364  0.00  0.00    +0.015 C 
ATOM     12  C   UNL     1      -1.248   1.154  -8.284  0.00  0.00    +0.012 C 
ATOM     13  C   UNL     1      -2.115  -1.165  -7.946  0.00  0.00    +0.012 C 
ENDBRANCH  10  11
BRANCH   6  14
ATOM     14  C   UNL     1       2.794  -1.175  -4.567  0.00  0.00    +0.015 C 
ATOM     15  C   UNL     1       3.360  -2.579  -4.347  0.00  0.00    +0.012 C 
ATOM     16  C   UNL     1       3.933  -0.154  -4.521  0.00  0.00    +0.012 C 
ENDBRANCH   6  14
ENDBRANCH   3   5
BRANCH   1  17
ATOM     17  C   UNL     1      -0.627  -0.542  -2.535  0.00  0.00    +0.016 C 
BRANCH  17  18
ATOM     18  N   UNL     1      -0.598  -1.609  -1.526  0.00  0.00    +0.389 N 
ATOM     19  H   UNL     1       0.360  -1.856  -1.325  0.00  0.00    -0.084 HD
ATOM     20  H   UNL     1      -1.087  -2.418  -1.878  0.00  0.00    -0.084 HD
BRANCH  18  22
ATOM     21  C   UNL     1      -0.437   0.011   0.304  0.00  0.00    -0.009 C 
ATOM     22  C   UNL     1      -1.250  -1.137  -0.297  0.00  0.00    -0.043 C 
BRANCH  22  23
ATOM     23  C   UNL     1      -1.330  -2.269   0.695  0.00  0.00    -0.060 A 
ATOM     24  C   UNL     1      -0.264  -3.139   0.839  0.00  0.00    +0.002 A 
ATOM     25  C   UNL     1      -0.337  -4.177   1.748  0.00  0.00    +0.002 A 
ATOM     26  C   UNL     1      -1.476  -4.347   2.514  0.00  0.00    +0.020 A 
ATOM     27  C   UNL     1      -2.542  -3.478   2.370  0.00  0.00    +0.041 A 
ATOM     28  C   UNL     1      -2.466  -2.435   1.464  0.00  0.00    +0.022 A 
ATOM     29 CL   UNL     1      -3.972  -3.692   3.331  0.00  0.00    -0.084 Cl
ENDBRANCH  22  23
ENDBRANCH  18  22
ENDBRANCH  17  18
ENDBRANCH   1  17
TORSDOF 7
