REMARK  Name = ZINC22804112
REMARK  9 active torsions:
REMARK  status: ('A' for Active; 'I' for Inactive)
REMARK    1  A    between atoms: C_1  and  C_2
REMARK    2  A    between atoms: C_5  and  S_27
REMARK    3  A    between atoms: C_7  and  N_8
REMARK    4  A    between atoms: C_9  and  C_11
REMARK    5  A    between atoms: C_11  and  N_12
REMARK    6  A    between atoms: N_15  and  C_18
REMARK    7  A    between atoms: C_18  and  C_19
REMARK    8  A    between atoms: C_20  and  C_21
REMARK    9  A    between atoms: S_27  and  N_30
REMARK                            x       y       z     vdW  Elec       q    Type
REMARK                         _______ _______ _______ _____ _____    ______ ____
ROOT
ATOM      1  N   UNL     1       0.025  -0.015   2.417  0.00  0.00    -0.284 N 
ATOM      2  C   UNL     1      -0.056  -0.694   3.578  0.00  0.00    +0.231 C 
ATOM      3  O   UNL     1      -0.040  -1.907   3.573  0.00  0.00    -0.274 OA
ATOM      4  H   UNL     1       0.078   0.954   2.425  0.00  0.00    +0.155 HD
ENDROOT
BRANCH   1  11
ATOM      5  C   UNL     1      -1.264   1.184   0.181  0.00  0.00    +0.045 C 
ATOM      6  C   UNL     1      -0.584  -0.158   0.084  0.00  0.00    -0.029 A 
ATOM      7  C   UNL     1      -0.568  -0.840  -1.117  0.00  0.00    +0.007 A 
ATOM      8  C   UNL     1       0.055  -2.071  -1.206  0.00  0.00    +0.029 A 
ATOM      9  C   UNL     1       0.666  -2.622  -0.095  0.00  0.00    +0.107 A 
ATOM     10  C   UNL     1       0.655  -1.945   1.108  0.00  0.00    +0.052 A 
ATOM     11  C   UNL     1       0.034  -0.706   1.201  0.00  0.00    +0.038 A 
BRANCH   9  12
ATOM     12  S   UNL     1       1.460  -4.191  -0.214  0.00  0.00    +0.061 S 
ATOM     13  O   UNL     1       1.482  -4.736   1.098  0.00  0.00    -0.153 OA
ATOM     14  O   UNL     1       0.858  -4.868  -1.310  0.00  0.00    -0.153 OA
BRANCH  12  15
ATOM     15  N   UNL     1       3.036  -3.912  -0.638  0.00  0.00    -0.172 NA
ATOM     16  C   UNL     1       3.440  -3.845  -2.051  0.00  0.00    +0.137 C 
ATOM     17  C   UNL     1       4.249  -2.560  -2.263  0.00  0.00    +0.177 C 
ATOM     18  O   UNL     1       5.303  -2.504  -1.298  0.00  0.00    -0.377 OA
ATOM     19  C   UNL     1       4.853  -2.444   0.058  0.00  0.00    +0.177 C 
ATOM     20  C   UNL     1       4.073  -3.717   0.388  0.00  0.00    +0.137 C 
ENDBRANCH  12  15
ENDBRANCH   9  12
ENDBRANCH   1  11
BRANCH   2  21
ATOM     21  C   UNL     1      -0.168   0.052   4.882  0.00  0.00    +0.180 C 
BRANCH  21  22
ATOM     22  N   UNL     1      -0.242  -0.908   5.992  0.00  0.00    -0.298 NA
ATOM     23  C   UNL     1      -1.487  -1.686   5.933  0.00  0.00    +0.066 C 
ATOM     24  C   UNL     1      -1.498  -2.712   7.067  0.00  0.00    -0.063 C 
ATOM     25  N   UNL     1      -1.395  -2.018   8.357  0.00  0.00    +0.384 N 
ATOM     26  C   UNL     1      -0.134  -1.265   8.411  0.00  0.00    -0.063 C 
ATOM     27  C   UNL     1      -0.112  -0.226   7.287  0.00  0.00    +0.066 C 
ATOM     28  H   UNL     1      -2.171  -1.381   8.460  0.00  0.00    -0.081 HD
BRANCH  25  29
ATOM     29  C   UNL     1      -1.423  -3.003   9.447  0.00  0.00    -0.051 C 
BRANCH  29  30
ATOM     30  C   UNL     1      -1.441  -2.285  10.772  0.00  0.00    -0.045 C 
ATOM     31  C   UNL     1      -2.400  -2.540  11.651  0.00  0.00    +0.002 C 
BRANCH  31  32
ATOM     32  C   UNL     1      -2.418  -1.837  12.951  0.00  0.00    -0.025 A 
ATOM     33  C   UNL     1      -1.430  -0.899  13.253  0.00  0.00    +0.008 A 
ATOM     34  C   UNL     1      -1.452  -0.245  14.468  0.00  0.00    +0.001 A 
ATOM     35  C   UNL     1      -2.450  -0.519  15.386  0.00  0.00    +0.000 A 
ATOM     36  C   UNL     1      -3.433  -1.448  15.092  0.00  0.00    +0.001 A 
ATOM     37  C   UNL     1      -3.425  -2.103  13.878  0.00  0.00    +0.008 A 
ENDBRANCH  31  32
ENDBRANCH  29  30
ENDBRANCH  25  29
ENDBRANCH  21  22
ENDBRANCH   2  21
TORSDOF 8
