REMARK  Name = ZINC55131648
REMARK  9 active torsions:
REMARK  status: ('A' for Active; 'I' for Inactive)
REMARK    1  A    between atoms: C_1  and  C_2
REMARK    2  A    between atoms: C_5  and  C_7
REMARK    3  A    between atoms: C_7  and  N_8
REMARK    4  A    between atoms: N_8  and  C_9
REMARK    5  A    between atoms: C_9  and  C_10
REMARK    6  A    between atoms: C_10  and  C_11
REMARK    7  A    between atoms: C_11  and  O_12
REMARK    8  A    between atoms: C_13  and  C_15
REMARK    9  A    between atoms: C_19  and  O_21
REMARK                            x       y       z     vdW  Elec       q    Type
REMARK                         _______ _______ _______ _____ _____    ______ ____
ROOT
ATOM      1  N   UNL     1       0.975  -4.431  -1.603  0.00  0.00    -0.293 N 
ATOM      2  C   UNL     1       0.081  -5.084  -2.372  0.00  0.00    +0.247 C 
ATOM      3  O   UNL     1      -0.967  -5.469  -1.893  0.00  0.00    -0.270 OA
ENDROOT
BRANCH   2   4
ATOM      4  C   UNL     1       0.376  -5.331  -3.799  0.00  0.00    +0.041 A 
ATOM      5  C   UNL     1       1.665  -5.694  -4.195  0.00  0.00    +0.016 A 
ATOM      6  C   UNL     1       1.938  -5.924  -5.527  0.00  0.00    +0.043 A 
ATOM      7  C   UNL     1       0.935  -5.797  -6.475  0.00  0.00    +0.165 A 
ATOM      8  C   UNL     1      -0.351  -5.436  -6.088  0.00  0.00    +0.153 A 
ATOM      9  C   UNL     1      -0.634  -5.208  -4.754  0.00  0.00    +0.061 A 
ATOM     10  F   UNL     1       1.209  -6.024  -7.778  0.00  0.00    -0.202 F 
BRANCH   8  11
ATOM     11  O   UNL     1      -1.331  -5.312  -7.022  0.00  0.00    -0.504 OA
ATOM     12  H   UNL     1      -1.823  -6.128  -7.188  0.00  0.00    +0.292 HD
ENDBRANCH   8  11
ENDBRANCH   2   4
BRANCH   1  13
ATOM     13  C   UNL     1       0.723  -4.264  -0.169  0.00  0.00    +0.150 C 
BRANCH  13  18
ATOM     14  C   UNL     1      -1.226   0.969   0.779  0.00  0.00    +0.051 C 
ATOM     15  C   UNL     1      -0.962  -0.490   0.514  0.00  0.00    -0.013 A 
ATOM     16  C   UNL     1      -1.849  -1.498   0.325  0.00  0.00    +0.011 A 
ATOM     17  C   UNL     1      -1.373  -2.775   0.093  0.00  0.00    +0.013 A 
ATOM     18  C   UNL     1      -0.034  -2.982   0.062  0.00  0.00    +0.007 A 
ATOM     19  S   UNL     1       0.601  -1.340   0.359  0.00  0.00    -0.097 S 
ENDBRANCH  13  18
ENDBRANCH   1  13
BRANCH   1  20
ATOM     20  C   UNL     1       2.198  -3.889  -2.200  0.00  0.00    +0.110 C 
BRANCH  20  21
ATOM     21  C   UNL     1       3.392  -4.756  -1.794  0.00  0.00    +0.047 C 
BRANCH  21  22
ATOM     22  C   UNL     1       4.642  -4.281  -2.536  0.00  0.00    +0.157 C 
BRANCH  22  23
ATOM     23  O   UNL     1       5.757  -5.091  -2.156  0.00  0.00    -0.395 OA
ATOM     24  H   UNL     1       6.586  -4.846  -2.590  0.00  0.00    +0.209 HD
ENDBRANCH  22  23
ENDBRANCH  21  22
ENDBRANCH  20  21
ENDBRANCH   1  20
TORSDOF 8
