REMARK  Name = ZINC08988871
REMARK  11 active torsions:
REMARK  status: ('A' for Active; 'I' for Inactive)
REMARK    1  A    between atoms: C_1  and  C_2
REMARK    2  A    between atoms: C_6  and  C_32
REMARK    3  A    between atoms: C_7  and  N_8
REMARK    4  A    between atoms: C_9  and  C_11
REMARK    5  A    between atoms: C_11  and  C_13
REMARK    6  A    between atoms: C_11  and  S_14
REMARK    7  A    between atoms: S_14  and  C_15
REMARK    8  A    between atoms: C_18  and  C_25
REMARK    9  A    between atoms: N_19  and  C_20
REMARK   10  A    between atoms: C_32  and  C_33
REMARK   11  A    between atoms: C_32  and  C_34
REMARK                            x       y       z     vdW  Elec       q    Type
REMARK                         _______ _______ _______ _____ _____    ______ ____
ROOT
ATOM      1  S   UNL     1       5.565   5.718   1.541  0.00  0.00    -0.073 S 
ENDROOT
BRANCH   1   2
ATOM      2  C   UNL     1       5.106   4.095   1.031  0.00  0.00    +0.193 A 
ATOM      3  N   UNL     1       5.559   3.452  -0.022  0.00  0.00    -0.122 NA
ATOM      4  N   UNL     1       5.014   2.290  -0.098  0.00  0.00    -0.128 NA
ATOM      5  C   UNL     1       4.179   2.121   0.901  0.00  0.00    +0.167 A 
ATOM      6  N   UNL     1       4.209   3.274   1.652  0.00  0.00    -0.299 N 
BRANCH   5   7
ATOM      7  C   UNL     1       3.358   0.921   1.166  0.00  0.00    +0.038 A 
ATOM      8  C   UNL     1       3.314   0.371   2.448  0.00  0.00    +0.013 A 
ATOM      9  C   UNL     1       2.545  -0.749   2.689  0.00  0.00    +0.001 A 
ATOM     10  C   UNL     1       1.823  -1.331   1.662  0.00  0.00    +0.001 A 
ATOM     11  C   UNL     1       1.857  -0.789   0.390  0.00  0.00    +0.021 A 
ATOM     12  C   UNL     1       2.623   0.332   0.135  0.00  0.00    +0.052 A 
ATOM     13 CL   UNL     1       2.671   1.008  -1.464  0.00  0.00    -0.083 Cl
ENDBRANCH   5   7
BRANCH   6  14
ATOM     14  C   UNL     1       3.441   3.559   2.866  0.00  0.00    +0.091 C 
ATOM     15  C   UNL     1       2.540   4.792   2.644  0.00  0.00    +0.025 C 
ATOM     16  C   UNL     1       2.571   5.534   4.004  0.00  0.00    +0.002 C 
ATOM     17  C   UNL     1       4.039   5.348   4.462  0.00  0.00    +0.002 C 
ATOM     18  C   UNL     1       4.393   3.912   4.022  0.00  0.00    +0.025 C 
ENDBRANCH   6  14
ENDBRANCH   1   2
BRANCH   1  19
ATOM     19  C   UNL     1       6.752   6.133   0.240  0.00  0.00    +0.137 C 
ATOM     20  C   UNL     1       6.029   6.205  -1.107  0.00  0.00    +0.029 C 
BRANCH  19  22
ATOM     21  N   UNL     1       8.556   7.804  -0.031  0.00  0.00    -0.284 N 
ATOM     22  C   UNL     1       7.384   7.467   0.543  0.00  0.00    +0.230 C 
ATOM     23  O   UNL     1       6.837   8.238   1.303  0.00  0.00    -0.274 OA
ATOM     24  H   UNL     1       8.968   7.209  -0.677  0.00  0.00    +0.155 HD
BRANCH  21  31
ATOM     25  C   UNL     1       7.266  10.231  -0.765  0.00  0.00    +0.045 C 
ATOM     26  C   UNL     1       8.584  10.219  -0.033  0.00  0.00    -0.029 A 
ATOM     27  C   UNL     1       9.201  11.409   0.300  0.00  0.00    +0.005 A 
ATOM     28  C   UNL     1      10.410  11.398   0.971  0.00  0.00    +0.001 A 
ATOM     29  C   UNL     1      11.005  10.196   1.310  0.00  0.00    +0.006 A 
ATOM     30  C   UNL     1      10.390   9.003   0.985  0.00  0.00    -0.023 A 
ATOM     31  C   UNL     1       9.179   9.011   0.306  0.00  0.00    +0.040 A 
BRANCH  30  32
ATOM     32  C   UNL     1      11.037   7.695   1.360  0.00  0.00    +0.015 C 
ATOM     33  C   UNL     1      12.414   7.598   0.701  0.00  0.00    +0.012 C 
ATOM     34  C   UNL     1      11.193   7.620   2.880  0.00  0.00    +0.012 C 
ENDBRANCH  30  32
ENDBRANCH  21  31
ENDBRANCH  19  22
ENDBRANCH   1  19
TORSDOF 7
