REMARK  Name = ZINC09633934
REMARK  9 active torsions:
REMARK  status: ('A' for Active; 'I' for Inactive)
REMARK    1  A    between atoms: C_1  and  C_2
REMARK    2  A    between atoms: C_2  and  C_4
REMARK    3  A    between atoms: C_2  and  S_18
REMARK    4  A    between atoms: C_9  and  C_12
REMARK    5  A    between atoms: S_18  and  C_19
REMARK    6  A    between atoms: C_22  and  C_25
REMARK    7  A    between atoms: N_23  and  N_24
REMARK    8  A    between atoms: C_28  and  O_31
REMARK    9  A    between atoms: O_31  and  C_32
REMARK                            x       y       z     vdW  Elec       q    Type
REMARK                         _______ _______ _______ _____ _____    ______ ____
ROOT
ATOM      1  S   UNL     1       1.685   1.712  -0.005  0.00  0.00    -0.072 S 
ENDROOT
BRANCH   1   2
ATOM      2  C   UNL     1       2.303   0.892  -1.437  0.00  0.00    +0.209 A 
ATOM      3  N   UNL     1       1.634   0.071  -2.214  0.00  0.00    -0.121 NA
ATOM      4  N   UNL     1       2.388  -0.347  -3.168  0.00  0.00    -0.127 NA
ATOM      5  C   UNL     1       3.584   0.182  -3.058  0.00  0.00    +0.182 A 
ATOM      6  N   UNL     1       3.566   0.996  -1.949  0.00  0.00    -0.224 N 
BRANCH   5   7
ATOM      7  C   UNL     1       4.733  -0.049  -3.959  0.00  0.00    +0.021 A 
ATOM      8  C   UNL     1       6.019   0.325  -3.564  0.00  0.00    +0.015 A 
ATOM      9  C   UNL     1       7.088   0.104  -4.406  0.00  0.00    +0.046 A 
ATOM     10  C   UNL     1       6.886  -0.480  -5.649  0.00  0.00    +0.127 A 
ATOM     11  C   UNL     1       5.608  -0.849  -6.048  0.00  0.00    +0.046 A 
ATOM     12  C   UNL     1       4.534  -0.636  -5.210  0.00  0.00    +0.015 A 
BRANCH  10  13
ATOM     13  O   UNL     1       7.942  -0.691  -6.478  0.00  0.00    -0.434 OA
BRANCH  13  14
ATOM     14  C   UNL     1       9.229  -0.288  -6.005  0.00  0.00    +0.541 C 
ATOM     15  F   UNL     1       9.222   1.087  -5.748  0.00  0.00    -0.166 F 
ATOM     16  F   UNL     1       9.531  -0.981  -4.828  0.00  0.00    -0.166 F 
ENDBRANCH  13  14
ENDBRANCH  10  13
ENDBRANCH   5   7
BRANCH   6  17
ATOM     17  N   UNL     1       4.595   1.749  -1.460  0.00  0.00    -0.295 N 
ATOM     18  H   UNL     1       5.145   1.223  -0.796  0.00  0.00    +0.163 HD
ATOM     19  H   UNL     1       5.173   2.101  -2.208  0.00  0.00    +0.163 HD
ENDBRANCH   6  17
ENDBRANCH   1   2
BRANCH   1  21
ATOM     20  C   UNL     1      -0.753   1.593  -1.232  0.00  0.00    +0.029 C 
ATOM     21  C   UNL     1      -0.013   1.086   0.008  0.00  0.00    +0.137 C 
BRANCH  21  22
ATOM     22  C   UNL     1      -0.718   1.572   1.248  0.00  0.00    +0.232 C 
ATOM     23  O   UNL     1      -0.347   2.587   1.798  0.00  0.00    -0.274 OA
ATOM     24  N   UNL     1      -1.761   0.878   1.746  0.00  0.00    -0.264 N 
ATOM     25  C   UNL     1      -2.411   1.326   2.889  0.00  0.00    +0.165 A 
ATOM     26  N   UNL     1      -3.439   0.798   3.526  0.00  0.00    -0.225 NA
ATOM     27  C   UNL     1      -3.938   1.364   4.615  0.00  0.00    +0.080 A 
ATOM     28  C   UNL     1      -3.378   2.518   5.088  0.00  0.00    +0.076 A 
ATOM     29  S   UNL     1      -2.073   2.767   3.891  0.00  0.00    -0.060 S 
ATOM     30  H   UNL     1      -2.057   0.066   1.306  0.00  0.00    +0.157 HD
BRANCH  27  31
ATOM     31  C   UNL     1      -5.094   0.751   5.314  0.00  0.00    +0.001 A 
ATOM     32  C   UNL     1      -5.613   1.348   6.462  0.00  0.00    +0.010 A 
ATOM     33  C   UNL     1      -6.692   0.776   7.106  0.00  0.00    +0.001 A 
ATOM     34  C   UNL     1      -7.252  -0.392   6.619  0.00  0.00    +0.000 A 
ATOM     35  C   UNL     1      -6.738  -0.990   5.483  0.00  0.00    +0.001 A 
ATOM     36  C   UNL     1      -5.662  -0.425   4.829  0.00  0.00    +0.010 A 
ENDBRANCH  27  31
ENDBRANCH  21  22
ENDBRANCH   1  21
TORSDOF 8
