REMARK  Name = ZINC63699753
REMARK  5 active torsions:
REMARK  status: ('A' for Active; 'I' for Inactive)
REMARK    1  A    between atoms: C_6  and  C_10
REMARK    2  A    between atoms: N_13  and  S_16
REMARK    3  A    between atoms: S_16  and  C_19
REMARK    4  A    between atoms: C_22  and  N_25
REMARK    5  A    between atoms: C_26  and  C_28
REMARK                            x       y       z     vdW  Elec       q    Type
REMARK                         _______ _______ _______ _____ _____    ______ ____
ROOT
ATOM      1  S   UNL     1       5.831  -6.171  -2.889  0.00  0.00    +0.061 S 
ATOM      2  O   UNL     1       4.833  -7.056  -3.380  0.00  0.00    -0.153 OA
ATOM      3  O   UNL     1       7.045  -5.929  -3.588  0.00  0.00    -0.153 OA
ENDROOT
BRANCH   1   7
ATOM      4  C   UNL     1       4.082  -2.447  -1.311  0.00  0.00    +0.034 C 
ATOM      5  C   UNL     1       5.592  -2.669  -1.427  0.00  0.00    +0.024 C 
ATOM      6  C   UNL     1       5.892  -3.461  -2.703  0.00  0.00    +0.110 C 
ATOM      7  N   UNL     1       5.100  -4.699  -2.688  0.00  0.00    -0.177 NA
ATOM      8  C   UNL     1       3.647  -4.605  -2.492  0.00  0.00    +0.110 C 
ATOM      9  C   UNL     1       3.372  -3.800  -1.218  0.00  0.00    +0.024 C 
BRANCH   4  15
ATOM     10  C   UNL     1       1.180   2.163   0.015  0.00  0.00    +0.002 A 
ATOM     11  C   UNL     1       2.444   2.772  -0.080  0.00  0.00    +0.002 A 
ATOM     12  C   UNL     1       3.590   2.063  -0.135  0.00  0.00    +0.027 A 
ATOM     13  C   UNL     1       3.537   0.595  -0.095  0.00  0.00    +0.060 A 
ATOM     14  N   UNL     1       4.457  -0.325  -0.131  0.00  0.00    -0.363 N 
ATOM     15  C   UNL     1       3.782  -1.626  -0.056  0.00  0.00    +0.177 C 
ATOM     16  N   UNL     1       2.344  -1.343   0.029  0.00  0.00    -0.363 N 
ATOM     17  C   UNL     1       2.199  -0.049   0.006  0.00  0.00    +0.060 A 
ATOM     18  C   UNL     1       1.019   0.825   0.059  0.00  0.00    +0.027 A 
ATOM     19  H   UNL     1       5.413  -0.177  -0.196  0.00  0.00    +0.162 HD
ATOM     20  H   UNL     1       1.632  -1.999   0.090  0.00  0.00    +0.162 HD
ENDBRANCH   4  15
ENDBRANCH   1   7
BRANCH   1  21
ATOM     21  C   UNL     1       6.279  -6.753  -1.288  0.00  0.00    +0.106 A 
ATOM     22  C   UNL     1       7.516  -6.435  -0.759  0.00  0.00    +0.030 A 
ATOM     23  C   UNL     1       7.870  -6.889   0.496  0.00  0.00    +0.025 A 
ATOM     24  C   UNL     1       6.982  -7.668   1.227  0.00  0.00    +0.034 A 
ATOM     25  C   UNL     1       5.740  -7.986   0.693  0.00  0.00    +0.025 A 
ATOM     26  C   UNL     1       5.390  -7.524  -0.561  0.00  0.00    +0.030 A 
BRANCH  24  27
ATOM     27  N   UNL     1       7.337  -8.130   2.498  0.00  0.00    -0.281 N 
ATOM     28  C   UNL     1       6.893  -9.328   2.928  0.00  0.00    +0.255 C 
ATOM     29  O   UNL     1       6.263 -10.049   2.176  0.00  0.00    -0.269 OA
ATOM     30  H   UNL     1       7.904  -7.589   3.070  0.00  0.00    +0.155 HD
BRANCH  28  31
ATOM     31  C   UNL     1       7.168  -9.762   4.300  0.00  0.00    +0.074 A 
ATOM     32  C   UNL     1       6.811 -10.944   4.932  0.00  0.00    +0.021 A 
ATOM     33  C   UNL     1       7.216 -11.068   6.239  0.00  0.00    +0.008 A 
ATOM     34  C   UNL     1       7.918 -10.058   6.811  0.00  0.00    +0.046 A 
ATOM     35  S   UNL     1       8.057  -8.911   5.591  0.00  0.00    -0.092 S 
ENDBRANCH  28  31
ENDBRANCH  24  27
ENDBRANCH   1  21
TORSDOF 5
