REMARK  Name = ZINC09831995
REMARK  10 active torsions:
REMARK  status: ('A' for Active; 'I' for Inactive)
REMARK    1  A    between atoms: C_1  and  C_2
REMARK    2  A    between atoms: C_2  and  C_29
REMARK    3  A    between atoms: C_5  and  C_26
REMARK    4  A    between atoms: C_6  and  N_12
REMARK    5  A    between atoms: C_9  and  C_10
REMARK    6  A    between atoms: C_9  and  C_11
REMARK    7  A    between atoms: C_13  and  C_15
REMARK    8  A    between atoms: C_15  and  C_16
REMARK    9  A    between atoms: C_16  and  S_17
REMARK   10  A    between atoms: S_17  and  C_20
REMARK                            x       y       z     vdW  Elec       q    Type
REMARK                         _______ _______ _______ _____ _____    ______ ____
ROOT
ATOM      1  C   UNL     1      -2.061   1.087  -2.176  0.00  0.00    -0.010 C 
ATOM      2  C   UNL     1      -2.382   1.159  -0.680  0.00  0.00    -0.069 C 
ATOM      3  C   UNL     1      -1.358   2.063   0.009  0.00  0.00    +0.024 C 
ATOM      4  C   UNL     1      -0.016   1.350   0.009  0.00  0.00    -0.026 A 
ATOM      5  C   UNL     1       1.285   1.987   0.001  0.00  0.00    +0.068 A 
ATOM      6  C   UNL     1       2.404   1.164  -0.026  0.00  0.00    +0.084 A 
ATOM      7  S   UNL     1       1.719  -0.433  -0.031  0.00  0.00    -0.079 S 
ATOM      8  C   UNL     1       0.002  -0.004   0.002  0.00  0.00    -0.016 A 
ATOM      9  C   UNL     1      -1.184  -0.911   0.026  0.00  0.00    -0.041 C 
ATOM     10  C   UNL     1      -1.068  -1.940  -1.107  0.00  0.00    -0.005 C 
ATOM     11  C   UNL     1      -1.181  -1.679   1.364  0.00  0.00    -0.005 C 
ATOM     12  C   UNL     1      -3.768   1.815  -0.525  0.00  0.00    -0.010 C 
ATOM     13  N   UNL     1      -2.485  -0.187  -0.065  0.00  0.00    +0.389 N 
ATOM     14  H   UNL     1      -3.130  -0.751  -0.630  0.00  0.00    -0.084 HD
ATOM     15  H   UNL     1      -2.864  -0.081   0.883  0.00  0.00    -0.084 HD
ENDROOT
BRANCH   5  16
ATOM     16  C   UNL     1       1.425   3.444   0.033  0.00  0.00    +0.244 C 
ATOM     17  O   UNL     1       1.502   4.025   1.099  0.00  0.00    -0.270 OA
ATOM     18  N   UNL     1       1.467   4.143  -1.119  0.00  0.00    -0.325 N 
ATOM     19  H   UNL     1       1.405   3.680  -1.970  0.00  0.00    +0.145 HD
ATOM     20  H   UNL     1       1.560   5.108  -1.098  0.00  0.00    +0.145 HD
ENDBRANCH   5  16
BRANCH   6  21
ATOM     21  N   UNL     1       3.739   1.526  -0.047  0.00  0.00    -0.279 N 
ATOM     22  C   UNL     1       4.694   0.577  -0.074  0.00  0.00    +0.219 C 
ATOM     23  O   UNL     1       4.385  -0.596  -0.081  0.00  0.00    -0.275 OA
ATOM     24  H   UNL     1       3.986   2.464  -0.041  0.00  0.00    +0.155 HD
BRANCH  22  25
ATOM     25  C   UNL     1       6.149   0.972  -0.096  0.00  0.00    +0.119 C 
BRANCH  25  26
ATOM     26  C   UNL     1       7.019  -0.286  -0.125  0.00  0.00    +0.181 C 
BRANCH  26  27
ATOM     27  S   UNL     1       8.769   0.189  -0.151  0.00  0.00    -0.003 S 
ATOM     28  O   UNL     1       9.087   0.819  -1.385  0.00  0.00    -0.169 OA
ATOM     29  O   UNL     1       9.131   0.792   1.083  0.00  0.00    -0.169 OA
BRANCH  27  30
ATOM     30  C   UNL     1       9.652  -1.335  -0.183  0.00  0.00    +0.088 A 
ATOM     31  C   UNL     1      10.025  -1.943   1.001  0.00  0.00    +0.027 A 
ATOM     32  C   UNL     1      10.713  -3.141   0.976  0.00  0.00    +0.002 A 
ATOM     33  C   UNL     1      11.038  -3.727  -0.234  0.00  0.00    +0.000 A 
ATOM     34  C   UNL     1      10.670  -3.116  -1.418  0.00  0.00    +0.002 A 
ATOM     35  C   UNL     1       9.977  -1.920  -1.393  0.00  0.00    +0.027 A 
ENDBRANCH  27  30
ENDBRANCH  26  27
ENDBRANCH  25  26
ENDBRANCH  22  25
ENDBRANCH   6  21
TORSDOF 6
