REMARK  Name = ZINC66563434
REMARK  12 active torsions:
REMARK  status: ('A' for Active; 'I' for Inactive)
REMARK    1  A    between atoms: C_1  and  C_2
REMARK    2  A    between atoms: C_3  and  C_7
REMARK    3  A    between atoms: C_7  and  N_8
REMARK    4  A    between atoms: N_8  and  C_9
REMARK    5  A    between atoms: N_8  and  C_10
REMARK    6  A    between atoms: C_10  and  C_12
REMARK    7  A    between atoms: C_10  and  C_13
REMARK    8  A    between atoms: N_15  and  C_16
REMARK    9  A    between atoms: C_16  and  C_17
REMARK   10  A    between atoms: C_17  and  C_18
REMARK   11  A    between atoms: C_21  and  S_24
REMARK   12  A    between atoms: S_24  and  N_27
REMARK                            x       y       z     vdW  Elec       q    Type
REMARK                         _______ _______ _______ _____ _____    ______ ____
ROOT
ATOM      1  C   UNL     1       0.636  -0.905  -5.199  0.00  0.00    +0.199 C 
ATOM      2  O   UNL     1       0.086  -1.769  -4.549  0.00  0.00    -0.278 OA
ATOM      3  N   UNL     1       0.593  -0.944  -6.546  0.00  0.00    -0.316 N 
ATOM      4  H   UNL     1       1.032  -0.254  -7.065  0.00  0.00    +0.149 HD
ENDROOT
BRANCH   1   5
ATOM      5  C   UNL     1       1.368   0.212  -4.501  0.00  0.00    +0.016 C 
ATOM      6  C   UNL     1       2.837  -0.175  -4.322  0.00  0.00    -0.004 C 
BRANCH   5   7
ATOM      7  N   UNL     1       0.760   0.449  -3.185  0.00  0.00    +0.388 N 
ATOM      8  C   UNL     1       1.427   1.584  -2.534  0.00  0.00    -0.095 C 
ATOM      9  H   UNL     1       0.865  -0.376  -2.613  0.00  0.00    -0.081 HD
BRANCH   7  10
ATOM     10  C   UNL     1      -0.668   0.750  -3.353  0.00  0.00    -0.033 C 
BRANCH  10  13
ATOM     11  C   UNL     1      -0.987   3.290  -1.586  0.00  0.00    +0.066 C 
ATOM     12  C   UNL     1      -1.488   1.925  -1.191  0.00  0.00    +0.047 A 
ATOM     13  C   UNL     1      -1.323   0.847  -1.999  0.00  0.00    -0.004 A 
ATOM     14  S   UNL     1      -2.099  -0.425  -1.014  0.00  0.00    -0.082 S 
ATOM     15  C   UNL     1      -2.541   0.535   0.296  0.00  0.00    +0.156 A 
ATOM     16  N   UNL     1      -2.102   1.722  -0.042  0.00  0.00    -0.252 NA
ENDBRANCH  10  13
ENDBRANCH   7  10
ENDBRANCH   5   7
ENDBRANCH   1   5
BRANCH   3  17
ATOM     17  C   UNL     1      -0.119  -2.030  -7.224  0.00  0.00    +0.109 C 
BRANCH  17  18
ATOM     18  C   UNL     1      -0.016  -1.839  -8.739  0.00  0.00    +0.054 C 
BRANCH  18  19
ATOM     19  C   UNL     1      -0.748  -2.957  -9.437  0.00  0.00    -0.046 A 
ATOM     20  C   UNL     1      -0.080  -4.121  -9.766  0.00  0.00    +0.005 A 
ATOM     21  C   UNL     1      -0.751  -5.146 -10.406  0.00  0.00    +0.029 A 
ATOM     22  C   UNL     1      -2.091  -5.006 -10.717  0.00  0.00    +0.105 A 
ATOM     23  C   UNL     1      -2.759  -3.842 -10.388  0.00  0.00    +0.029 A 
ATOM     24  C   UNL     1      -2.089  -2.819  -9.743  0.00  0.00    +0.005 A 
BRANCH  22  25
ATOM     25  S   UNL     1      -2.946  -6.312 -11.534  0.00  0.00    +0.056 S 
ATOM     26  O   UNL     1      -4.052  -5.718 -12.201  0.00  0.00    -0.153 OA
ATOM     27  O   UNL     1      -1.963  -7.075 -12.221  0.00  0.00    -0.153 OA
BRANCH  25  28
ATOM     28  N   UNL     1      -3.574  -7.296 -10.360  0.00  0.00    -0.204 NA
ATOM     29  H   UNL     1      -3.430  -7.087  -9.424  0.00  0.00    +0.144 HD
ATOM     30  H   UNL     1      -4.087  -8.082 -10.608  0.00  0.00    +0.144 HD
ENDBRANCH  25  28
ENDBRANCH  22  25
ENDBRANCH  18  19
ENDBRANCH  17  18
ENDBRANCH   3  17
TORSDOF 9
