REMARK  Name = ZINC38649758
REMARK  11 active torsions:
REMARK  status: ('A' for Active; 'I' for Inactive)
REMARK    1  A    between atoms: C_1  and  C_2
REMARK    2  A    between atoms: C_2  and  C_3
REMARK    3  A    between atoms: C_2  and  C_4
REMARK    4  A    between atoms: C_2  and  C_5
REMARK    5  A    between atoms: C_8  and  C_11
REMARK    6  A    between atoms: C_16  and  O_25
REMARK    7  A    between atoms: C_20  and  N_24
REMARK    8  A    between atoms: C_21  and  C_22
REMARK    9  A    between atoms: O_25  and  C_26
REMARK   10  A    between atoms: C_26  and  C_28
REMARK   11  A    between atoms: C_33  and  N_34
REMARK                            x       y       z     vdW  Elec       q    Type
REMARK                         _______ _______ _______ _____ _____    ______ ____
ROOT
ATOM      1  C   UNL     1       2.712  -1.732  -4.514  0.00  0.00    +0.098 C 
ATOM      2  C   UNL     1       3.160  -0.573  -5.363  0.00  0.00    +0.008 A 
ATOM      3  C   UNL     1       2.241   0.077  -6.168  0.00  0.00    +0.012 A 
ATOM      4  C   UNL     1       2.634   1.142  -6.954  0.00  0.00    +0.047 A 
ATOM      5  C   UNL     1       3.957   1.564  -6.938  0.00  0.00    +0.135 A 
ATOM      6  C   UNL     1       4.879   0.915  -6.134  0.00  0.00    +0.093 A 
ATOM      7  C   UNL     1       4.482  -0.155  -5.344  0.00  0.00    +0.138 A 
ATOM      8  O   UNL     1       5.397  -0.779  -4.562  0.00  0.00    -0.441 OA
ATOM      9  C   UNL     1       5.153  -2.018  -4.102  0.00  0.00    +0.199 C 
ATOM     10  C   UNL     1       3.902  -2.526  -4.053  0.00  0.00    +0.098 C 
ENDROOT
BRANCH   1  14
ATOM     11  C   UNL     1       0.594  -0.258  -1.110  0.00  0.00    -0.042 A 
ATOM     12  C   UNL     1      -0.039  -1.099  -2.006  0.00  0.00    +0.004 A 
ATOM     13  C   UNL     1       0.646  -1.576  -3.108  0.00  0.00    +0.005 A 
ATOM     14  C   UNL     1       1.964  -1.212  -3.313  0.00  0.00    -0.035 A 
ATOM     15  C   UNL     1       2.596  -0.370  -2.417  0.00  0.00    +0.005 A 
ATOM     16  C   UNL     1       1.910   0.110  -1.317  0.00  0.00    +0.004 A 
BRANCH  11  18
ATOM     17  C   UNL     1      -0.201   1.790   0.040  0.00  0.00    +0.015 C 
ATOM     18  C   UNL     1      -0.154   0.262   0.091  0.00  0.00    -0.013 C 
ATOM     19  C   UNL     1       0.561  -0.184   1.369  0.00  0.00    +0.015 C 
ATOM     20  C   UNL     1      -1.579  -0.293   0.085  0.00  0.00    +0.015 C 
ENDBRANCH  11  18
ENDBRANCH   1  14
BRANCH   9  21
ATOM     21  N   UNL     1       6.204  -2.787  -3.668  0.00  0.00    -0.328 N 
ATOM     22  H   UNL     1       7.107  -2.434  -3.697  0.00  0.00    +0.145 HD
ATOM     23  H   UNL     1       6.043  -3.683  -3.334  0.00  0.00    +0.145 HD
ENDBRANCH   9  21
BRANCH  10  24
ATOM     24  C   UNL     1       3.708  -3.853  -3.550  0.00  0.00    +0.101 C 
ATOM     25  N   UNL     1       3.555  -4.905  -3.151  0.00  0.00    -0.191 NA
ENDBRANCH  10  24
BRANCH   5  26
ATOM     26  O   UNL     1       4.345   2.612  -7.712  0.00  0.00    -0.422 OA
BRANCH  26  27
ATOM     27  C   UNL     1       3.850   3.831  -7.420  0.00  0.00    +0.347 C 
ATOM     28  O   UNL     1       3.156   3.985  -6.435  0.00  0.00    -0.244 OA
BRANCH  27  29
ATOM     29  C   UNL     1       4.152   4.979  -8.299  0.00  0.00    +0.089 A 
ATOM     30  C   UNL     1       5.477   5.313  -8.588  0.00  0.00    +0.017 A 
ATOM     31  C   UNL     1       5.751   6.386  -9.409  0.00  0.00    +0.001 A 
ATOM     32  C   UNL     1       4.717   7.133  -9.946  0.00  0.00    +0.002 A 
ATOM     33  C   UNL     1       3.402   6.808  -9.664  0.00  0.00    +0.033 A 
ATOM     34  C   UNL     1       3.113   5.733  -8.849  0.00  0.00    +0.140 A 
BRANCH  34  35
ATOM     35  N   UNL     1       1.706   5.383  -8.553  0.00  0.00    +0.057 N 
ATOM     36  O   UNL     1       0.812   6.109  -8.924  0.00  0.00    -0.126 OA
ATOM     37  O   UNL     1       1.450   4.373  -7.941  0.00  0.00    -0.126 OA
ENDBRANCH  34  35
ENDBRANCH  27  29
ENDBRANCH  26  27
ENDBRANCH   5  26
TORSDOF 8
