REMARK  Name = ZINC47613501
REMARK  9 active torsions:
REMARK  status: ('A' for Active; 'I' for Inactive)
REMARK    1  A    between atoms: C_3  and  C_27
REMARK    2  A    between atoms: C_6  and  C_7
REMARK    3  A    between atoms: C_7  and  N_8
REMARK    4  A    between atoms: N_8  and  C_9
REMARK    5  A    between atoms: N_8  and  C_17
REMARK    6  A    between atoms: C_9  and  C_10
REMARK    7  A    between atoms: C_10  and  C_11
REMARK    8  A    between atoms: C_17  and  C_18
REMARK    9  A    between atoms: C_21  and  C_24
REMARK                            x       y       z     vdW  Elec       q    Type
REMARK                         _______ _______ _______ _____ _____    ______ ____
ROOT
ATOM      1  N   UNL     1      -1.895  -0.956  -1.464  0.00  0.00    +0.385 N 
ATOM      2  H   UNL     1      -2.001  -0.231  -2.158  0.00  0.00    -0.081 HD
ENDROOT
BRANCH   1   3
ATOM      3  C   UNL     1      -1.383  -0.370  -0.218  0.00  0.00    -0.043 C 
BRANCH   3   9
ATOM      4  C   UNL     1      -0.158   1.721  -0.843  0.00  0.00    +0.002 A 
ATOM      5  C   UNL     1       1.006   2.413  -1.105  0.00  0.00    +0.013 A 
ATOM      6  C   UNL     1       2.237   1.758  -1.027  0.00  0.00    +0.037 A 
ATOM      7  C   UNL     1       2.280   0.406  -0.684  0.00  0.00    +0.013 A 
ATOM      8  C   UNL     1       1.109  -0.275  -0.424  0.00  0.00    +0.002 A 
ATOM      9  C   UNL     1      -0.107   0.380  -0.503  0.00  0.00    -0.064 A 
BRANCH   6  10
ATOM     10  C   UNL     1       3.488   2.494  -1.307  0.00  0.00    +0.242 C 
ATOM     11  O   UNL     1       3.447   3.671  -1.606  0.00  0.00    -0.270 OA
ATOM     12  N   UNL     1       4.675   1.859  -1.232  0.00  0.00    -0.325 N 
ATOM     13  H   UNL     1       4.707   0.919  -0.993  0.00  0.00    +0.145 HD
ATOM     14  H   UNL     1       5.496   2.341  -1.415  0.00  0.00    +0.145 HD
ENDBRANCH   6  10
ENDBRANCH   3   9
ENDBRANCH   1   3
BRANCH   1  15
ATOM     15  C   UNL     1      -0.951  -1.968  -1.953  0.00  0.00    -0.074 C 
BRANCH  15  16
ATOM     16  C   UNL     1      -1.403  -2.466  -3.327  0.00  0.00    +0.012 C 
BRANCH  16  17
ATOM     17  C   UNL     1      -0.475  -3.556  -3.797  0.00  0.00    -0.075 C 
ATOM     18  C   UNL     1      -0.818  -4.784  -3.575  0.00  0.00    -0.028 C 
ATOM     19  C   UNL     1       0.006  -5.973  -3.973  0.00  0.00    +0.027 C 
ATOM     20  C   UNL     1       1.046  -5.567  -5.019  0.00  0.00    +0.004 C 
ATOM     21  C   UNL     1       1.780  -4.318  -4.514  0.00  0.00    +0.005 C 
ATOM     22  C   UNL     1       0.788  -3.151  -4.500  0.00  0.00    +0.030 C 
ENDBRANCH  16  17
ENDBRANCH  15  16
ENDBRANCH   1  15
BRANCH   1  23
ATOM     23  C   UNL     1      -3.199  -1.584  -1.210  0.00  0.00    -0.043 C 
BRANCH  23  24
ATOM     24  C   UNL     1      -4.201  -0.526  -0.829  0.00  0.00    -0.064 A 
ATOM     25  C   UNL     1      -4.448  -0.259   0.506  0.00  0.00    +0.002 A 
ATOM     26  C   UNL     1      -5.365   0.709   0.861  0.00  0.00    +0.013 A 
ATOM     27  C   UNL     1      -6.044   1.420  -0.130  0.00  0.00    +0.037 A 
ATOM     28  C   UNL     1      -5.790   1.145  -1.475  0.00  0.00    +0.013 A 
ATOM     29  C   UNL     1      -4.867   0.179  -1.816  0.00  0.00    +0.002 A 
BRANCH  27  30
ATOM     30  C   UNL     1      -7.028   2.458   0.243  0.00  0.00    +0.242 C 
ATOM     31  O   UNL     1      -7.247   2.695   1.415  0.00  0.00    -0.270 OA
ATOM     32  N   UNL     1      -7.682   3.142  -0.716  0.00  0.00    -0.325 N 
ATOM     33  H   UNL     1      -7.507   2.954  -1.651  0.00  0.00    +0.145 HD
ATOM     34  H   UNL     1      -8.328   3.824  -0.471  0.00  0.00    +0.145 HD
ENDBRANCH  27  30
ENDBRANCH  23  24
ENDBRANCH   1  23
TORSDOF 9
