REMARK  Name = ZINC18374944
REMARK  6 active torsions:
REMARK  status: ('A' for Active; 'I' for Inactive)
REMARK    1  A    between atoms: C_13  and  C_15
REMARK    2  A    between atoms: C_15  and  O_16
REMARK    3  A    between atoms: O_16  and  C_17
REMARK    4  A    between atoms: C_17  and  C_19
REMARK    5  A    between atoms: C_22  and  O_38
REMARK    6  A    between atoms: C_26  and  C_28
REMARK                            x       y       z     vdW  Elec       q    Type
REMARK                         _______ _______ _______ _____ _____    ______ ____
ROOT
ATOM      1  C   UNL     1      -0.842   1.612  -3.562  0.00  0.00    +0.187 C 
ATOM      2  C   UNL     1      -2.228   0.934  -3.550  0.00  0.00    +0.066 C 
ATOM      3  C   UNL     1      -2.420   0.507  -5.029  0.00  0.00    +0.134 C 
ATOM      4  C   UNL     1      -0.974   0.126  -5.433  0.00  0.00    +0.140 C 
ATOM      5  N   UNL     1      -0.117   1.103  -4.735  0.00  0.00    -0.285 N 
ATOM      6  C   UNL     1       1.125   1.467  -5.111  0.00  0.00    +0.223 C 
ATOM      7  O   UNL     1       1.709   2.341  -4.505  0.00  0.00    -0.275 OA
ENDROOT
BRANCH   6   8
ATOM      8  C   UNL     1       1.787   0.790  -6.282  0.00  0.00    +0.048 C 
ATOM      9  C   UNL     1       1.089   1.212  -7.577  0.00  0.00    +0.019 C 
ATOM     10  C   UNL     1       1.761   0.524  -8.767  0.00  0.00    -0.009 C 
ATOM     11  C   UNL     1       3.235   0.933  -8.826  0.00  0.00    +0.007 C 
ATOM     12  C   UNL     1       3.933   0.511  -7.532  0.00  0.00    -0.009 C 
ATOM     13  C   UNL     1       3.260   1.198  -6.342  0.00  0.00    +0.019 C 
ATOM     14  C   UNL     1       3.830  -1.007  -7.368  0.00  0.00    +0.007 C 
ATOM     15  C   UNL     1       2.357  -1.415  -7.309  0.00  0.00    -0.009 C 
ATOM     16  C   UNL     1       1.659  -0.993  -8.603  0.00  0.00    +0.007 C 
ATOM     17  C   UNL     1       1.685  -0.728  -6.119  0.00  0.00    +0.019 C 
ENDBRANCH   6   8
BRANCH   1  18
ATOM     18  C   UNL     1      -0.090   1.264  -2.304  0.00  0.00    +0.328 C 
ATOM     19  O   UNL     1       0.949   0.652  -2.371  0.00  0.00    -0.249 OA
BRANCH  18  20
ATOM     20  O   UNL     1      -0.575   1.635  -1.108  0.00  0.00    -0.454 OA
BRANCH  20  21
ATOM     21  C   UNL     1       0.203   1.266   0.061  0.00  0.00    +0.327 C 
BRANCH  21  34
ATOM     22  C   UNL     1       4.175   3.719   7.389  0.00  0.00    +0.039 A 
ATOM     23  C   UNL     1       4.466   2.482   6.835  0.00  0.00    +0.116 A 
ATOM     24  N   UNL     1       3.606   1.933   5.994  0.00  0.00    -0.223 NA
ATOM     25  C   UNL     1       2.478   2.551   5.679  0.00  0.00    +0.218 A 
ATOM     26  N   UNL     1       2.172   3.737   6.186  0.00  0.00    -0.223 NA
ATOM     27  C   UNL     1       2.986   4.338   7.038  0.00  0.00    +0.116 A 
ATOM     28  N   UNL     1       1.600   1.948   4.795  0.00  0.00    -0.297 N 
ATOM     29  C   UNL     1       0.414   2.787   4.575  0.00  0.00    +0.127 C 
ATOM     30  C   UNL     1      -0.609   2.010   3.740  0.00  0.00    +0.127 C 
ATOM     31  N   UNL     1       0.051   1.534   2.516  0.00  0.00    -0.296 N 
ATOM     32  C   UNL     1       1.317   0.797   2.650  0.00  0.00    +0.127 C 
ATOM     33  C   UNL     1       2.268   1.627   3.527  0.00  0.00    +0.127 C 
ATOM     34  C   UNL     1      -0.491   1.763   1.303  0.00  0.00    +0.253 C 
ATOM     35  O   UNL     1      -1.538   2.368   1.212  0.00  0.00    -0.272 OA
ENDBRANCH  21  34
ENDBRANCH  20  21
ENDBRANCH  18  20
ENDBRANCH   1  18
BRANCH   3  36
ATOM     36  O   UNL     1      -2.901   1.597  -5.818  0.00  0.00    -0.390 OA
ATOM     37  H   UNL     1      -2.944   1.408  -6.766  0.00  0.00    +0.210 HD
ENDBRANCH   3  36
TORSDOF 6
