REMARK  Name = ZINC09821901
REMARK  6 active torsions:
REMARK  status: ('A' for Active; 'I' for Inactive)
REMARK    1  A    between atoms: C_3  and  S_27
REMARK    2  A    between atoms: C_6  and  N_7
REMARK    3  A    between atoms: C_8  and  C_10
REMARK    4  A    between atoms: C_10  and  N_68
REMARK    5  A    between atoms: C_14  and  C_16
REMARK    6  A    between atoms: S_27  and  N_30
REMARK                            x       y       z     vdW  Elec       q    Type
REMARK                         _______ _______ _______ _____ _____    ______ ____
ROOT
ATOM      1  N   UNL     1       2.356   3.889  -0.001  0.00  0.00    -0.287 N 
ATOM      2  C   UNL     1       2.336   5.233  -0.095  0.00  0.00    +0.201 C 
ATOM      3  O   UNL     1       1.278   5.827  -0.082  0.00  0.00    -0.278 OA
ATOM      4  H   UNL     1       3.202   3.419   0.057  0.00  0.00    +0.155 HD
ENDROOT
BRANCH   1  10
ATOM      5  C   UNL     1       1.081   1.924  -0.592  0.00  0.00    +0.025 A 
ATOM      6  C   UNL     1      -0.106   1.219  -0.575  0.00  0.00    +0.030 A 
ATOM      7  C   UNL     1      -1.222   1.754   0.042  0.00  0.00    +0.106 A 
ATOM      8  C   UNL     1      -1.151   2.993   0.652  0.00  0.00    +0.030 A 
ATOM      9  C   UNL     1       0.034   3.704   0.639  0.00  0.00    +0.025 A 
ATOM     10  C   UNL     1       1.155   3.171   0.015  0.00  0.00    +0.033 A 
BRANCH   7  11
ATOM     11  S   UNL     1      -2.737   0.854   0.055  0.00  0.00    +0.061 S 
ATOM     12  O   UNL     1      -3.776   1.810   0.220  0.00  0.00    -0.153 OA
ATOM     13  O   UNL     1      -2.689  -0.037  -1.051  0.00  0.00    -0.153 OA
BRANCH  11  14
ATOM     14  N   UNL     1      -2.736  -0.085   1.419  0.00  0.00    -0.177 NA
ATOM     15  C   UNL     1      -2.190  -1.448   1.389  0.00  0.00    +0.109 C 
ATOM     16  C   UNL     1      -1.141  -1.579   2.504  0.00  0.00    +0.017 C 
ATOM     17  C   UNL     1      -1.772  -1.184   3.841  0.00  0.00    +0.003 C 
ATOM     18  C   UNL     1      -2.231   0.275   3.779  0.00  0.00    +0.017 C 
ATOM     19  C   UNL     1      -3.288   0.428   2.681  0.00  0.00    +0.109 C 
ENDBRANCH  11  14
ENDBRANCH   7  11
ENDBRANCH   1  10
BRANCH   2  20
ATOM     20  C   UNL     1       3.628   5.998  -0.217  0.00  0.00    +0.020 C 
BRANCH  20  25
ATOM     21  C   UNL     1       2.804   7.791  -1.644  0.00  0.00    -0.077 C 
ATOM     22  C   UNL     1       3.060   9.308  -1.776  0.00  0.00    -0.020 C 
ATOM     23  C   UNL     1       4.231   9.602  -0.816  0.00  0.00    -0.013 C 
ATOM     24  C   UNL     1       4.585   8.238  -0.185  0.00  0.00    -0.037 C 
ATOM     25  N   UNL     1       3.346   7.464  -0.327  0.00  0.00    +0.390 N 
ATOM     26  H   UNL     1       2.677   7.734   0.404  0.00  0.00    -0.080 HD
BRANCH  24  27
ATOM     27  C   UNL     1       4.961   8.411   1.263  0.00  0.00    -0.057 A 
ATOM     28  C   UNL     1       3.979   8.646   2.208  0.00  0.00    +0.006 A 
ATOM     29  C   UNL     1       4.317   8.804   3.540  0.00  0.00    +0.049 A 
ATOM     30  C   UNL     1       5.645   8.726   3.925  0.00  0.00    +0.162 A 
ATOM     31  C   UNL     1       6.631   8.491   2.977  0.00  0.00    +0.162 A 
ATOM     32  C   UNL     1       6.288   8.327   1.645  0.00  0.00    +0.051 A 
ATOM     33  O   UNL     1       7.937   8.416   3.367  0.00  0.00    -0.488 OA
ATOM     34  C   UNL     1       8.522   9.636   3.827  0.00  0.00    +0.232 C 
ATOM     35  C   UNL     1       8.212   9.861   5.298  0.00  0.00    +0.082 C 
ATOM     36  C   UNL     1       6.726  10.063   5.553  0.00  0.00    +0.232 C 
ATOM     37  O   UNL     1       5.992   8.879   5.235  0.00  0.00    -0.488 OA
ENDBRANCH  24  27
ENDBRANCH  20  25
ENDBRANCH   2  20
TORSDOF 6
