REMARK  Name = ZINC15623890
REMARK  13 active torsions:
REMARK  status: ('A' for Active; 'I' for Inactive)
REMARK    1  A    between atoms: C_1  and  C_2
REMARK    2  A    between atoms: C_2  and  C_3
REMARK    3  A    between atoms: C_2  and  C_4
REMARK    4  A    between atoms: C_4  and  C_6
REMARK    5  A    between atoms: C_4  and  N_26
REMARK    6  A    between atoms: N_8  and  C_9
REMARK    7  A    between atoms: C_12  and  S_15
REMARK    8  A    between atoms: S_15  and  N_18
REMARK    9  A    between atoms: C_27  and  C_29
REMARK   10  A    between atoms: C_32  and  C_35
REMARK   11  A    between atoms: C_35  and  C_36
REMARK   12  A    between atoms: C_35  and  C_37
REMARK   13  A    between atoms: C_35  and  C_38
REMARK                            x       y       z     vdW  Elec       q    Type
REMARK                         _______ _______ _______ _____ _____    ______ ____
ROOT
ATOM      1  C   UNL     1      -1.636  -0.140  -1.498  0.00  0.00    +0.238 C 
ATOM      2  O   UNL     1      -1.692  -0.952  -2.397  0.00  0.00    -0.273 OA
ATOM      3  N   UNL     1      -2.204   1.073  -1.649  0.00  0.00    -0.284 N 
ATOM      4  H   UNL     1      -2.239   1.689  -0.900  0.00  0.00    +0.155 HD
ENDROOT
BRANCH   3   5
ATOM      5  C   UNL     1      -2.743   1.445  -2.886  0.00  0.00    +0.034 A 
ATOM      6  C   UNL     1      -3.245   0.476  -3.745  0.00  0.00    +0.025 A 
ATOM      7  C   UNL     1      -3.776   0.846  -4.965  0.00  0.00    +0.031 A 
ATOM      8  C   UNL     1      -3.808   2.179  -5.331  0.00  0.00    +0.113 A 
ATOM      9  C   UNL     1      -3.308   3.146  -4.478  0.00  0.00    +0.031 A 
ATOM     10  C   UNL     1      -2.782   2.783  -3.254  0.00  0.00    +0.025 A 
BRANCH   8  11
ATOM     11  S   UNL     1      -4.487   2.647  -6.889  0.00  0.00    +0.100 S 
ATOM     12  O   UNL     1      -3.903   3.898  -7.227  0.00  0.00    -0.146 OA
ATOM     13  O   UNL     1      -4.389   1.508  -7.733  0.00  0.00    -0.146 OA
BRANCH  11  14
ATOM     14  N   UNL     1      -6.102   2.925  -6.655  0.00  0.00    -0.118 NA
ATOM     15  C   UNL     1      -6.846   3.287  -7.649  0.00  0.00    +0.117 C 
ATOM     16  C   UNL     1      -6.238   3.451  -9.040  0.00  0.00    +0.073 C 
ATOM     17  C   UNL     1      -6.782   2.333  -9.903  0.00  0.00    +0.008 C 
ATOM     18  C   UNL     1      -8.102   2.683 -10.593  0.00  0.00    +0.002 C 
ATOM     19  C   UNL     1      -9.085   3.409  -9.674  0.00  0.00    +0.019 C 
ATOM     20  C   UNL     1      -9.150   2.817  -8.283  0.00  0.00    +0.102 C 
ATOM     21  N   UNL     1      -8.133   3.509  -7.465  0.00  0.00    -0.331 N 
ATOM     22  H   UNL     1      -8.418   4.138  -6.784  0.00  0.00    +0.147 HD
ENDBRANCH  11  14
ENDBRANCH   8  11
ENDBRANCH   3   5
BRANCH   1  23
ATOM     23  C   UNL     1      -0.930  -0.487  -0.212  0.00  0.00    +0.162 C 
BRANCH  23  24
ATOM     24  N   UNL     1      -1.075  -1.920   0.052  0.00  0.00    -0.300 N 
ATOM     25  C   UNL     1      -0.994  -2.384   1.315  0.00  0.00    +0.245 C 
ATOM     26  O   UNL     1      -0.801  -1.613   2.235  0.00  0.00    -0.270 OA
ATOM     27  H   UNL     1      -1.228  -2.536  -0.682  0.00  0.00    +0.150 HD
BRANCH  25  28
ATOM     28  C   UNL     1      -1.140  -3.831   1.582  0.00  0.00    +0.037 A 
ATOM     29  C   UNL     1      -1.355  -4.720   0.528  0.00  0.00    +0.013 A 
ATOM     30  C   UNL     1      -1.490  -6.069   0.784  0.00  0.00    +0.005 A 
ATOM     31  C   UNL     1      -1.412  -6.541   2.082  0.00  0.00    -0.042 A 
ATOM     32  C   UNL     1      -1.199  -5.665   3.132  0.00  0.00    +0.005 A 
ATOM     33  C   UNL     1      -1.056  -4.314   2.889  0.00  0.00    +0.013 A 
BRANCH  31  34
ATOM     34  C   UNL     1      -1.561  -8.015   2.355  0.00  0.00    -0.013 C 
ATOM     35  C   UNL     1      -0.465  -8.784   1.614  0.00  0.00    +0.015 C 
ATOM     36  C   UNL     1      -1.436  -8.272   3.858  0.00  0.00    +0.015 C 
ATOM     37  C   UNL     1      -2.932  -8.488   1.869  0.00  0.00    +0.015 C 
ENDBRANCH  31  34
ENDBRANCH  25  28
ENDBRANCH  23  24
BRANCH  23  39
ATOM     38  C   UNL     1       1.230  -0.299   1.028  0.00  0.00    +0.009 C 
ATOM     39  C   UNL     1       0.554  -0.138  -0.335  0.00  0.00    +0.012 C 
ATOM     40  C   UNL     1       1.217  -1.075  -1.347  0.00  0.00    +0.009 C 
ENDBRANCH  23  39
ENDBRANCH   1  23
TORSDOF 8
