REMARK  Name = ZINC33326901
REMARK  7 active torsions:
REMARK  status: ('A' for Active; 'I' for Inactive)
REMARK    1  A    between atoms: C_1  and  C_2
REMARK    2  A    between atoms: C_6  and  N_8
REMARK    3  A    between atoms: N_8  and  C_9
REMARK    4  A    between atoms: N_15  and  C_16
REMARK    5  A    between atoms: C_19  and  N_22
REMARK    6  A    between atoms: N_22  and  S_23
REMARK    7  A    between atoms: S_23  and  C_26
REMARK                            x       y       z     vdW  Elec       q    Type
REMARK                         _______ _______ _______ _____ _____    ______ ____
ROOT
ATOM      1  C   UNL     1       8.491   2.068  -6.334  0.00  0.00    +0.086 C 
ATOM      2  C   UNL     1       7.457   1.609  -5.339  0.00  0.00    +0.107 A 
ATOM      3  N   UNL     1       7.083   0.345  -5.343  0.00  0.00    -0.332 N 
ATOM      4  C   UNL     1       6.167  -0.099  -4.483  0.00  0.00    +0.105 A 
ATOM      5  C   UNL     1       5.614   0.790  -3.566  0.00  0.00    +0.085 A 
ATOM      6  C   UNL     1       6.041   2.114  -3.592  0.00  0.00    +0.124 A 
ATOM      7  N   UNL     1       6.957   2.480  -4.487  0.00  0.00    -0.220 NA
ATOM      8  N   UNL     1       5.775  -1.429  -4.498  0.00  0.00    -0.301 N 
ATOM      9  H   UNL     1       6.119  -2.095  -5.304  0.00  0.00    +0.154 HD
ATOM     10  H   UNL     1       7.528  -0.358  -6.062  0.00  0.00    +0.168 HD
ENDROOT
BRANCH   8  11
ATOM     11  C   UNL     1       4.941  -1.925  -3.488  0.00  0.00    +0.032 A 
ATOM     12  C   UNL     1       3.923  -2.816  -3.803  0.00  0.00    +0.025 A 
ATOM     13  C   UNL     1       3.101  -3.304  -2.807  0.00  0.00    +0.026 A 
ATOM     14  C   UNL     1       3.292  -2.905  -1.491  0.00  0.00    +0.048 A 
ATOM     15  C   UNL     1       4.307  -2.011  -1.177  0.00  0.00    +0.026 A 
ATOM     16  C   UNL     1       5.133  -1.526  -2.172  0.00  0.00    +0.025 A 
BRANCH  14  17
ATOM     17  N   UNL     1       2.458  -3.400  -0.482  0.00  0.00    -0.216 N 
ATOM     18  H   UNL     1       1.693  -2.750  -0.032  0.00  0.00    +0.174 HD
BRANCH  17  19
ATOM     19  S   UNL     1       2.623  -4.965   0.036  0.00  0.00    +0.072 S 
ATOM     20  O   UNL     1       2.571  -5.784  -1.125  0.00  0.00    -0.150 OA
ATOM     21  O   UNL     1       1.726  -5.129   1.125  0.00  0.00    -0.150 OA
BRANCH  19  22
ATOM     22  C   UNL     1       4.250  -5.127   0.693  0.00  0.00    +0.109 A 
ATOM     23  C   UNL     1       4.502  -4.776   2.006  0.00  0.00    +0.031 A 
ATOM     24  C   UNL     1       5.778  -4.903   2.523  0.00  0.00    +0.040 A 
ATOM     25  C   UNL     1       6.803  -5.382   1.725  0.00  0.00    +0.124 A 
ATOM     26  C   UNL     1       6.549  -5.733   0.410  0.00  0.00    +0.040 A 
ATOM     27  C   UNL     1       5.273  -5.606  -0.104  0.00  0.00    +0.031 A 
ATOM     28  F   UNL     1       8.050  -5.506   2.229  0.00  0.00    -0.205 F 
ENDBRANCH  19  22
ENDBRANCH  17  19
ENDBRANCH  14  17
ENDBRANCH   8  11
BRANCH   6  29
ATOM     29  N   UNL     1       5.521   3.038  -2.699  0.00  0.00    -0.326 N 
ATOM     30  H   UNL     1       5.800   4.099  -2.781  0.00  0.00    +0.148 HD
BRANCH  29  31
ATOM     31  C   UNL     1       4.600   2.601  -1.646  0.00  0.00    +0.072 C 
ATOM     32  C   UNL     1       3.167   2.616  -2.184  0.00  0.00    +0.022 C 
ATOM     33  C   UNL     1       2.206   2.160  -1.084  0.00  0.00    +0.002 C 
ATOM     34  C   UNL     1       2.312   3.109   0.111  0.00  0.00    +0.000 C 
ATOM     35  C   UNL     1       3.744   3.094   0.649  0.00  0.00    +0.002 C 
ATOM     36  C   UNL     1       4.706   3.550  -0.451  0.00  0.00    +0.022 C 
ENDBRANCH  29  31
ENDBRANCH   6  29
TORSDOF 6
