REMARK  Name = ZINC06245242
REMARK  14 active torsions:
REMARK  status: ('A' for Active; 'I' for Inactive)
REMARK    1  A    between atoms: C_1  and  C_2
REMARK    2  A    between atoms: C_5  and  N_8
REMARK    3  A    between atoms: N_8  and  C_9
REMARK    4  A    between atoms: C_9  and  N_11
REMARK    5  A    between atoms: N_11  and  C_12
REMARK    6  A    between atoms: N_11  and  C_17
REMARK    7  A    between atoms: C_12  and  C_13
REMARK    8  A    between atoms: C_13  and  C_14
REMARK    9  A    between atoms: C_14  and  N_63
REMARK   10  A    between atoms: C_15  and  N_63
REMARK   11  A    between atoms: C_16  and  N_63
REMARK   12  A    between atoms: C_17  and  C_18
REMARK   13  A    between atoms: C_21  and  C_31
REMARK   14  A    between atoms: C_24  and  C_30
REMARK                            x       y       z     vdW  Elec       q    Type
REMARK                         _______ _______ _______ _____ _____    ______ ____
ROOT
ATOM      1  N   UNL     1       1.368   4.385   1.340  0.00  0.00    -0.308 N 
ENDROOT
BRANCH   1   2
ATOM      2  C   UNL     1       0.255   4.603   2.069  0.00  0.00    +0.137 C 
ATOM      3  S   UNL     1      -1.275   4.650   1.302  0.00  0.00    -0.018 S 
BRANCH   2   4
ATOM      4  N   UNL     1       0.347   4.783   3.401  0.00  0.00    -0.297 N 
ATOM      5  H   UNL     1       1.202   4.677   3.847  0.00  0.00    +0.154 HD
BRANCH   4  10
ATOM      6  C   UNL     1      -4.266   6.162   6.401  0.00  0.00    +0.044 C 
ATOM      7  C   UNL     1      -3.040   5.796   5.604  0.00  0.00    -0.050 A 
ATOM      8  C   UNL     1      -2.144   4.869   6.104  0.00  0.00    +0.005 A 
ATOM      9  C   UNL     1      -1.020   4.531   5.376  0.00  0.00    +0.023 A 
ATOM     10  C   UNL     1      -0.790   5.123   4.141  0.00  0.00    +0.033 A 
ATOM     11  C   UNL     1      -1.689   6.059   3.645  0.00  0.00    +0.023 A 
ATOM     12  C   UNL     1      -2.814   6.388   4.375  0.00  0.00    +0.005 A 
ENDBRANCH   4  10
ENDBRANCH   2   4
ENDBRANCH   1   2
BRANCH   1  13
ATOM     13  C   UNL     1       2.677   4.345   1.996  0.00  0.00    +0.105 C 
BRANCH  13  14
ATOM     14  C   UNL     1       3.278   5.752   2.022  0.00  0.00    +0.000 C 
BRANCH  14  15
ATOM     15  C   UNL     1       4.646   5.709   2.707  0.00  0.00    -0.078 C 
BRANCH  15  18
ATOM     16  C   UNL     1       6.418   7.106   3.585  0.00  0.00    -0.097 C 
ATOM     17  C   UNL     1       5.527   7.527   1.373  0.00  0.00    -0.097 C 
ATOM     18  N   UNL     1       5.203   7.078   2.743  0.00  0.00    +0.376 N 
ATOM     19  H   UNL     1       4.503   7.712   3.146  0.00  0.00    -0.083 HD
ENDBRANCH  15  18
ENDBRANCH  14  15
ENDBRANCH  13  14
ENDBRANCH   1  13
BRANCH   1  20
ATOM     20  C   UNL     1       1.268   4.189  -0.108  0.00  0.00    +0.147 C 
BRANCH  20  21
ATOM     21  C   UNL     1       1.091   2.722  -0.406  0.00  0.00    +0.035 A 
ATOM     22  C   UNL     1      -0.154   2.213  -0.576  0.00  0.00    +0.020 A 
ATOM     23  C   UNL     1      -0.292   0.784  -0.864  0.00  0.00    +0.002 A 
ATOM     24  C   UNL     1      -1.551   0.202  -1.050  0.00  0.00    -0.041 A 
ATOM     25  C   UNL     1      -1.646  -1.135  -1.316  0.00  0.00    +0.004 A 
ATOM     26  C   UNL     1      -0.504  -1.920  -1.405  0.00  0.00    +0.005 A 
ATOM     27  C   UNL     1       0.745  -1.368  -1.226  0.00  0.00    -0.026 A 
ATOM     28  C   UNL     1       0.867  -0.009  -0.953  0.00  0.00    +0.052 A 
ATOM     29  N   UNL     1       2.104   0.570  -0.769  0.00  0.00    -0.322 N 
ATOM     30  H   UNL     1       2.902   0.022  -0.831  0.00  0.00    +0.169 HD
ATOM     31  C   UNL     1       2.221   1.883  -0.506  0.00  0.00    +0.254 A 
ATOM     32  O   UNL     1       3.332   2.361  -0.350  0.00  0.00    -0.268 OA
ATOM     33  C   UNL     1       1.976  -2.232  -1.324  0.00  0.00    +0.046 C 
ATOM     34  C   UNL     1      -2.796   1.045  -0.956  0.00  0.00    +0.044 C 
ENDBRANCH  20  21
ENDBRANCH   1  20
TORSDOF 9
