REMARK  Name = ZINC40720536
REMARK  14 active torsions:
REMARK  status: ('A' for Active; 'I' for Inactive)
REMARK    1  A    between atoms: C_1  and  C_2
REMARK    2  A    between atoms: C_2  and  O_3
REMARK    3  A    between atoms: O_3  and  C_4
REMARK    4  A    between atoms: C_6  and  C_21
REMARK    5  A    between atoms: C_9  and  O_10
REMARK    6  A    between atoms: O_10  and  C_11
REMARK    7  A    between atoms: C_11  and  C_12
REMARK    8  A    between atoms: C_21  and  N_22
REMARK    9  A    between atoms: N_22  and  C_23
REMARK   10  A    between atoms: C_23  and  C_24
REMARK   11  A    between atoms: C_24  and  N_25
REMARK   12  A    between atoms: N_25  and  C_26
REMARK   13  A    between atoms: C_26  and  C_27
REMARK   14  A    between atoms: C_27  and  O_28
REMARK                            x       y       z     vdW  Elec       q    Type
REMARK                         _______ _______ _______ _____ _____    ______ ____
ROOT
ATOM      1  C   UNL     1      -1.498  -1.849   0.006  0.00  0.00    +0.164 A 
ATOM      2  C   UNL     1      -0.389  -2.680  -0.003  0.00  0.00    +0.051 A 
ATOM      3  C   UNL     1      -0.552  -4.052  -0.009  0.00  0.00    -0.059 A 
ATOM      4  C   UNL     1      -1.822  -4.600  -0.006  0.00  0.00    +0.025 A 
ATOM      5  C   UNL     1      -2.934  -3.777   0.003  0.00  0.00    +0.086 A 
ATOM      6  C   UNL     1      -2.776  -2.400   0.016  0.00  0.00    +0.181 A 
ATOM      7 CL   UNL     1      -4.526  -4.469   0.006  0.00  0.00    -0.080 Cl
ENDROOT
BRANCH   1   8
ATOM      8  O   UNL     1      -1.339  -0.499   0.012  0.00  0.00    -0.489 OA
BRANCH   8  10
ATOM      9  C   UNL     1      -0.019   1.526   0.010  0.00  0.00    +0.048 C 
ATOM     10  C   UNL     1       0.002  -0.004   0.002  0.00  0.00    +0.226 C 
ENDBRANCH   8  10
ENDBRANCH   1   8
BRANCH   6  11
ATOM     11  O   UNL     1      -3.868  -1.589   0.031  0.00  0.00    -0.482 OA
BRANCH  11  12
ATOM     12  C   UNL     1      -4.401  -1.195  -1.235  0.00  0.00    +0.269 C 
BRANCH  12  13
ATOM     13  C   UNL     1      -5.598  -0.305  -1.021  0.00  0.00    +0.043 A 
ATOM     14  C   UNL     1      -6.863  -0.859  -0.915  0.00  0.00    +0.131 A 
ATOM     15  C   UNL     1      -7.962  -0.040  -0.719  0.00  0.00    +0.039 A 
ATOM     16  C   UNL     1      -7.796   1.329  -0.628  0.00  0.00    +0.004 A 
ATOM     17  C   UNL     1      -6.534   1.882  -0.733  0.00  0.00    +0.020 A 
ATOM     18  C   UNL     1      -5.434   1.065  -0.924  0.00  0.00    +0.050 A 
ATOM     19 CL   UNL     1      -3.848   1.760  -1.049  0.00  0.00    -0.083 Cl
ATOM     20  F   UNL     1      -7.024  -2.197  -1.005  0.00  0.00    -0.205 F 
ENDBRANCH  12  13
ENDBRANCH  11  12
ENDBRANCH   6  11
BRANCH   3  21
ATOM     21  C   UNL     1       0.655  -4.953  -0.019  0.00  0.00    -0.047 C 
BRANCH  21  22
ATOM     22  N   UNL     1       1.054  -5.253   1.363  0.00  0.00    +0.383 N 
ATOM     23  H   UNL     1       1.280  -4.394   1.841  0.00  0.00    -0.085 HD
ATOM     24  H   UNL     1       0.295  -5.714   1.840  0.00  0.00    -0.085 HD
BRANCH  22  25
ATOM     25  C   UNL     1       2.232  -6.131   1.353  0.00  0.00    -0.067 C 
BRANCH  25  26
ATOM     26  C   UNL     1       2.648  -6.443   2.792  0.00  0.00    +0.062 C 
BRANCH  26  27
ATOM     27  N   UNL     1       3.825  -7.321   2.782  0.00  0.00    -0.316 NA
ATOM     28  H   UNL     1       3.645  -8.161   2.253  0.00  0.00    +0.122 HD
BRANCH  27  29
ATOM     29  C   UNL     1       4.254  -7.643   4.150  0.00  0.00    +0.108 C 
BRANCH  29  30
ATOM     30  C   UNL     1       5.479  -8.557   4.099  0.00  0.00    +0.171 C 
BRANCH  30  31
ATOM     31  O   UNL     1       6.576  -7.851   3.515  0.00  0.00    -0.394 OA
ATOM     32  H   UNL     1       7.389  -8.371   3.451  0.00  0.00    +0.209 HD
ENDBRANCH  30  31
ENDBRANCH  29  30
ENDBRANCH  27  29
ENDBRANCH  26  27
ENDBRANCH  25  26
ENDBRANCH  22  25
ENDBRANCH  21  22
ENDBRANCH   3  21
TORSDOF 13
