REMARK  Name = ZINC39869051
REMARK  13 active torsions:
REMARK  status: ('A' for Active; 'I' for Inactive)
REMARK    1  A    between atoms: C_1  and  C_2
REMARK    2  A    between atoms: C_2  and  C_3
REMARK    3  A    between atoms: C_3  and  C_4
REMARK    4  A    between atoms: C_4  and  C_5
REMARK    5  A    between atoms: C_5  and  O_6
REMARK    6  A    between atoms: O_6  and  C_7
REMARK    7  A    between atoms: C_10  and  C_14
REMARK    8  A    between atoms: N_16  and  C_17
REMARK    9  A    between atoms: C_18  and  C_27
REMARK   10  A    between atoms: N_23  and  C_26
REMARK   11  A    between atoms: C_27  and  O_29
REMARK   12  A    between atoms: O_29  and  C_30
REMARK   13  A    between atoms: C_30  and  C_31
REMARK                            x       y       z     vdW  Elec       q    Type
REMARK                         _______ _______ _______ _____ _____    ______ ____
ROOT
ATOM      1  C   UNL     1      -7.788  -6.634   0.041  0.00  0.00    +0.249 C 
ATOM      2  O   UNL     1      -8.318  -6.920   1.097  0.00  0.00    -0.270 OA
ATOM      3  N   UNL     1      -8.393  -6.947  -1.122  0.00  0.00    -0.275 N 
ATOM      4  H   UNL     1      -7.970  -6.719  -1.965  0.00  0.00    +0.156 HD
ENDROOT
BRANCH   3   5
ATOM      5  C   UNL     1      -9.618  -7.593  -1.114  0.00  0.00    +0.086 A 
ATOM      6  C   UNL     1     -10.378  -7.994  -2.204  0.00  0.00    +0.091 A 
ATOM      7  C   UNL     1     -11.636  -8.658  -1.923  0.00  0.00    -0.025 A 
ATOM      8  C   UNL     1     -11.908  -8.799  -0.605  0.00  0.00    -0.021 A 
ATOM      9  S   UNL     1     -10.521  -8.077   0.217  0.00  0.00    -0.079 S 
ATOM     10  C   UNL     1     -13.128  -9.437  -0.019  0.00  0.00    -0.036 C 
ATOM     11  N   UNL     1     -14.150  -9.540  -1.077  0.00  0.00    +0.381 N 
ATOM     12  C   UNL     1     -13.564 -10.161  -2.271  0.00  0.00    -0.074 C 
ATOM     13  C   UNL     1     -12.614  -9.179  -2.966  0.00  0.00    +0.018 C 
ATOM     14  C   UNL     1     -15.269 -10.362  -0.597  0.00  0.00    -0.096 C 
ATOM     15  H   UNL     1     -14.488  -8.618  -1.309  0.00  0.00    -0.082 HD
BRANCH   6  16
ATOM     16  C   UNL     1      -9.930  -7.757  -3.578  0.00  0.00    +0.342 C 
ATOM     17  O   UNL     1      -9.252  -8.590  -4.149  0.00  0.00    -0.245 OA
BRANCH  16  18
ATOM     18  O   UNL     1     -10.268  -6.615  -4.210  0.00  0.00    -0.461 OA
BRANCH  18  19
ATOM     19  C   UNL     1      -9.796  -6.450  -5.549  0.00  0.00    +0.229 C 
ATOM     20  C   UNL     1     -10.277  -5.105  -6.097  0.00  0.00    +0.048 C 
ENDBRANCH  18  19
ENDBRANCH  16  18
ENDBRANCH   6  16
ENDBRANCH   3   5
BRANCH   1  24
ATOM     21  C   UNL     1      -4.030  -4.655   0.015  0.00  0.00    +0.157 A 
ATOM     22  C   UNL     1      -4.634  -4.979   1.225  0.00  0.00    +0.085 A 
ATOM     23  C   UNL     1      -5.854  -5.622   1.237  0.00  0.00    +0.036 A 
ATOM     24  C   UNL     1      -6.482  -5.946   0.032  0.00  0.00    +0.040 A 
ATOM     25  C   UNL     1      -5.872  -5.618  -1.181  0.00  0.00    +0.036 A 
ATOM     26  C   UNL     1      -4.655  -4.971  -1.185  0.00  0.00    +0.085 A 
ATOM     27 CL   UNL     1      -3.898  -4.557  -2.692  0.00  0.00    -0.080 Cl
ATOM     28 CL   UNL     1      -3.852  -4.575   2.721  0.00  0.00    -0.080 Cl
BRANCH  21  29
ATOM     29  O   UNL     1      -2.829  -4.022   0.007  0.00  0.00    -0.489 OA
BRANCH  29  30
ATOM     30  C   UNL     1      -2.848  -2.593   0.015  0.00  0.00    +0.229 C 
BRANCH  30  31
ATOM     31  C   UNL     1      -1.413  -2.063   0.004  0.00  0.00    +0.041 C 
BRANCH  31  32
ATOM     32  C   UNL     1      -1.433  -0.534   0.013  0.00  0.00    +0.003 C 
BRANCH  32  34
ATOM     33  C   UNL     1      -0.019   1.526   0.010  0.00  0.00    +0.004 C 
ATOM     34  C   UNL     1       0.002  -0.004   0.002  0.00  0.00    -0.003 C 
ENDBRANCH  32  34
ENDBRANCH  31  32
ENDBRANCH  30  31
ENDBRANCH  29  30
ENDBRANCH  21  29
ENDBRANCH   1  24
TORSDOF 10
