REMARK  Name = ZINC45551803
REMARK  10 active torsions:
REMARK  status: ('A' for Active; 'I' for Inactive)
REMARK    1  A    between atoms: C_1  and  C_2
REMARK    2  A    between atoms: C_2  and  C_3
REMARK    3  A    between atoms: C_2  and  C_15
REMARK    4  A    between atoms: C_2  and  N_18
REMARK    5  A    between atoms: C_3  and  C_4
REMARK    6  A    between atoms: C_4  and  C_5
REMARK    7  A    between atoms: C_5  and  C_6
REMARK    8  A    between atoms: C_6  and  S_7
REMARK    9  A    between atoms: S_7  and  C_8
REMARK   10  A    between atoms: N_18  and  C_19
REMARK                            x       y       z     vdW  Elec       q    Type
REMARK                         _______ _______ _______ _____ _____    ______ ____
ROOT
ATOM      1  C   UNL     1       0.742  -0.511   1.242  0.00  0.00    -0.004 C 
ENDROOT
BRANCH   1   3
ATOM      2  C   UNL     1      -0.019   1.526   0.010  0.00  0.00    -0.001 C 
ATOM      3  C   UNL     1       0.002  -0.004   0.002  0.00  0.00    +0.006 C 
BRANCH   3   4
ATOM      4  C   UNL     1      -1.412  -0.526   0.013  0.00  0.00    +0.199 C 
ATOM      5  O   UNL     1      -2.306   0.155   0.469  0.00  0.00    -0.278 OA
ATOM      6  N   UNL     1      -1.683  -1.749  -0.485  0.00  0.00    -0.330 N 
ATOM      7  H   UNL     1      -0.968  -2.293  -0.849  0.00  0.00    +0.145 HD
ATOM      8  H   UNL     1      -2.593  -2.084  -0.478  0.00  0.00    +0.145 HD
ENDBRANCH   3   4
BRANCH   3   9
ATOM      9  N   UNL     1       0.690  -0.478  -1.207  0.00  0.00    +0.386 N 
ATOM     10  C   UNL     1      -0.021   0.009  -2.397  0.00  0.00    -0.099 C 
ATOM     11  H   UNL     1       1.636  -0.129  -1.214  0.00  0.00    -0.085 HD
ATOM     12  H   UNL     1       0.703  -1.487  -1.212  0.00  0.00    -0.085 HD
ENDBRANCH   3   9
ENDBRANCH   1   3
BRANCH   1  13
ATOM     13  C   UNL     1       0.026  -0.018   2.500  0.00  0.00    -0.000 C 
BRANCH  13  14
ATOM     14  C   UNL     1       0.766  -0.524   3.740  0.00  0.00    +0.011 C 
BRANCH  14  15
ATOM     15  C   UNL     1       0.050  -0.031   4.999  0.00  0.00    +0.074 C 
BRANCH  15  16
ATOM     16  S   UNL     1       0.927  -0.632   6.468  0.00  0.00    -0.125 S 
BRANCH  16  17
ATOM     17  C   UNL     1      -0.008   0.012   7.816  0.00  0.00    +0.008 A 
ATOM     18  C   UNL     1      -1.139   0.782   7.574  0.00  0.00    +0.016 A 
ATOM     19  C   UNL     1      -1.870   1.284   8.632  0.00  0.00    +0.016 A 
ATOM     20  C   UNL     1      -1.477   1.022   9.932  0.00  0.00    +0.018 A 
ATOM     21  C   UNL     1      -0.351   0.256  10.177  0.00  0.00    +0.016 A 
ATOM     22  C   UNL     1       0.381  -0.254   9.123  0.00  0.00    +0.016 A 
ATOM     23 BR   UNL     1      -2.480   1.713  11.379  0.00  0.00    -0.050 Br
ENDBRANCH  16  17
ENDBRANCH  15  16
ENDBRANCH  14  15
ENDBRANCH  13  14
ENDBRANCH   1  13
TORSDOF 8
