REMARK  Name = ZINC15787801
REMARK  12 active torsions:
REMARK  status: ('A' for Active; 'I' for Inactive)
REMARK    1  A    between atoms: C_1  and  C_2
REMARK    2  A    between atoms: C_2  and  C_3
REMARK    3  A    between atoms: C_2  and  C_4
REMARK    4  A    between atoms: C_7  and  S_10
REMARK    5  A    between atoms: S_10  and  N_13
REMARK    6  A    between atoms: C_16  and  C_19
REMARK    7  A    between atoms: N_21  and  C_22
REMARK    8  A    between atoms: C_22  and  C_23
REMARK    9  A    between atoms: C_23  and  C_25
REMARK   10  A    between atoms: C_23  and  N_67
REMARK   11  A    between atoms: C_32  and  N_67
REMARK   12  A    between atoms: C_33  and  N_67
REMARK                            x       y       z     vdW  Elec       q    Type
REMARK                         _______ _______ _______ _____ _____    ______ ____
ROOT
ATOM      1  N   UNL     1      -1.043   7.255   0.006  0.00  0.00    -0.177 NA
ATOM      2  C   UNL     1      -2.125   7.421   0.986  0.00  0.00    +0.110 C 
ATOM      3  C   UNL     1      -1.645   8.344   2.104  0.00  0.00    +0.030 C 
ATOM      4  C   UNL     1      -0.343   7.795   2.692  0.00  0.00    +0.077 C 
ATOM      5  C   UNL     1       0.732   7.753   1.604  0.00  0.00    +0.030 C 
ATOM      6  C   UNL     1       0.278   6.819   0.478  0.00  0.00    +0.110 C 
ENDROOT
BRANCH   4   7
ATOM      7  C   UNL     1       0.116   8.688   3.817  0.00  0.00    +0.216 C 
ATOM      8  O   UNL     1       1.196   9.236   3.754  0.00  0.00    -0.276 OA
ATOM      9  N   UNL     1      -0.674   8.877   4.892  0.00  0.00    -0.316 N 
ATOM     10  H   UNL     1      -1.538   8.438   4.942  0.00  0.00    +0.149 HD
BRANCH   9  11
ATOM     11  C   UNL     1      -0.228   9.744   5.985  0.00  0.00    +0.093 C 
BRANCH  11  12
ATOM     12  C   UNL     1      -1.212   9.640   7.152  0.00  0.00    -0.020 C 
BRANCH  12  13
ATOM     13  C   UNL     1      -0.811  10.609   8.235  0.00  0.00    -0.041 A 
ATOM     14  C   UNL     1      -0.189  10.147   9.380  0.00  0.00    +0.003 A 
ATOM     15  C   UNL     1       0.178  11.035  10.374  0.00  0.00    +0.000 A 
ATOM     16  C   UNL     1      -0.075  12.386  10.222  0.00  0.00    +0.001 A 
ATOM     17  C   UNL     1      -0.696  12.849   9.078  0.00  0.00    +0.020 A 
ATOM     18  C   UNL     1      -1.060  11.961   8.081  0.00  0.00    +0.043 A 
ATOM     19 CL   UNL     1      -1.833  12.542   6.640  0.00  0.00    -0.083 Cl
ENDBRANCH  12  13
BRANCH  12  22
ATOM     20  C   UNL     1      -2.062   7.387   6.899  0.00  0.00    -0.096 C 
ATOM     21  C   UNL     1       0.177   7.748   7.748  0.00  0.00    -0.096 C 
ATOM     22  N   UNL     1      -1.204   8.273   7.715  0.00  0.00    +0.382 N 
ATOM     23  H   UNL     1      -1.572   8.304   8.673  0.00  0.00    -0.082 HD
ENDBRANCH  12  22
ENDBRANCH  11  12
ENDBRANCH   9  11
ENDBRANCH   4   7
BRANCH   1  24
ATOM     24  S   UNL     1      -1.306   7.560  -1.601  0.00  0.00    +0.061 S 
ATOM     25  O   UNL     1      -0.040   7.866  -2.168  0.00  0.00    -0.153 OA
ATOM     26  O   UNL     1      -2.408   8.454  -1.669  0.00  0.00    -0.153 OA
BRANCH  24  30
ATOM     27  C   UNL     1      -2.668   3.681  -3.495  0.00  0.00    -0.045 A 
ATOM     28  C   UNL     1      -3.598   4.556  -2.966  0.00  0.00    +0.006 A 
ATOM     29  C   UNL     1      -3.182   5.740  -2.387  0.00  0.00    +0.029 A 
ATOM     30  C   UNL     1      -1.836   6.050  -2.338  0.00  0.00    +0.105 A 
ATOM     31  C   UNL     1      -0.906   5.176  -2.869  0.00  0.00    +0.029 A 
ATOM     32  C   UNL     1      -1.322   3.991  -3.446  0.00  0.00    +0.006 A 
BRANCH  27  34
ATOM     33  C   UNL     1      -2.681   2.354  -5.590  0.00  0.00    +0.012 C 
ATOM     34  C   UNL     1      -3.122   2.389  -4.125  0.00  0.00    +0.013 C 
ATOM     35  C   UNL     1      -2.498   1.210  -3.377  0.00  0.00    +0.012 C 
ENDBRANCH  27  34
ENDBRANCH  24  30
ENDBRANCH   1  24
TORSDOF 8
