REMARK  Name = ZINC12402327
REMARK  7 active torsions:
REMARK  status: ('A' for Active; 'I' for Inactive)
REMARK    1  A    between atoms: C_1  and  C_2
REMARK    2  A    between atoms: C_2  and  C_32
REMARK    3  A    between atoms: C_6  and  C_21
REMARK    4  A    between atoms: C_8  and  C_19
REMARK    5  A    between atoms: C_9  and  N_18
REMARK    6  A    between atoms: N_10  and  C_11
REMARK    7  A    between atoms: C_24  and  N_26
REMARK                            x       y       z     vdW  Elec       q    Type
REMARK                         _______ _______ _______ _____ _____    ______ ____
ROOT
ATOM      1  C   UNL     1      -1.163   2.328   2.410  0.00  0.00    +0.011 C 
ATOM      2  C   UNL     1      -1.940   1.269   3.194  0.00  0.00    -0.023 C 
ATOM      3  C   UNL     1      -3.188   0.860   2.408  0.00  0.00    +0.058 C 
ATOM      4  C   UNL     1      -2.779   0.259   1.085  0.00  0.00    +0.025 C 
ATOM      5  C   UNL     1      -1.614  -0.410   0.955  0.00  0.00    +0.026 C 
ATOM      6  C   UNL     1      -1.210  -1.014  -0.366  0.00  0.00    +0.104 C 
ATOM      7  C   UNL     1      -2.388  -1.141  -1.287  0.00  0.00    +0.077 C 
ATOM      8  C   UNL     1      -3.528  -0.436  -1.070  0.00  0.00    +0.107 C 
ATOM      9  N   UNL     1      -3.623   0.406   0.015  0.00  0.00    -0.260 N 
ATOM     10  C   UNL     1      -0.741  -0.563   2.046  0.00  0.00    +0.162 C 
ATOM     11  O   UNL     1       0.293  -1.184   1.900  0.00  0.00    -0.292 OA
ATOM     12  C   UNL     1      -1.063   0.028   3.392  0.00  0.00    +0.086 C 
ATOM     13  C   UNL     1      -2.353   1.835   4.554  0.00  0.00    +0.011 C 
ENDROOT
BRANCH   9  14
ATOM     14  C   UNL     1      -4.588   1.419   0.026  0.00  0.00    +0.041 A 
ATOM     15  C   UNL     1      -4.281   2.679  -0.474  0.00  0.00    +0.024 A 
ATOM     16  C   UNL     1      -5.235   3.677  -0.462  0.00  0.00    +0.003 A 
ATOM     17  C   UNL     1      -6.497   3.424   0.046  0.00  0.00    +0.015 A 
ATOM     18  C   UNL     1      -6.806   2.171   0.544  0.00  0.00    +0.020 A 
ATOM     19  C   UNL     1      -5.857   1.167   0.530  0.00  0.00    +0.039 A 
ATOM     20 BR   UNL     1      -8.533   1.830   1.236  0.00  0.00    -0.050 Br
ENDBRANCH   9  14
BRANCH   6  21
ATOM     21  C   UNL     1      -0.169  -0.137  -1.013  0.00  0.00    +0.005 A 
ATOM     22  C   UNL     1       1.102  -0.443  -1.371  0.00  0.00    +0.014 A 
ATOM     23  C   UNL     1       1.886   0.533  -1.957  0.00  0.00    +0.041 A 
ATOM     24  C   UNL     1       1.362   1.766  -2.156  0.00  0.00    +0.164 A 
ATOM     25  S   UNL     1      -0.290   1.575  -1.506  0.00  0.00    -0.068 S 
BRANCH  24  26
ATOM     26  N   UNL     1       1.994   2.962  -2.757  0.00  0.00    +0.063 N 
ATOM     27  O   UNL     1       3.145   2.909  -3.152  0.00  0.00    -0.126 OA
ATOM     28  O   UNL     1       1.363   3.999  -2.857  0.00  0.00    -0.126 OA
ENDBRANCH  24  26
ENDBRANCH   6  21
BRANCH   8  29
ATOM     29  N   UNL     1      -4.589  -0.564  -1.934  0.00  0.00    -0.345 N 
ATOM     30  H   UNL     1      -5.372  -0.000  -1.828  0.00  0.00    +0.144 HD
ATOM     31  H   UNL     1      -4.556  -1.217  -2.650  0.00  0.00    +0.144 HD
ENDBRANCH   8  29
BRANCH   7  32
ATOM     32  C   UNL     1      -2.308  -2.019  -2.415  0.00  0.00    +0.099 C 
ATOM     33  N   UNL     1      -2.244  -2.716  -3.310  0.00  0.00    -0.191 NA
ENDBRANCH   7  32
TORSDOF 5
