REMARK  Name = ZINC40825852
REMARK  4 active torsions:
REMARK  status: ('A' for Active; 'I' for Inactive)
REMARK    1  A    between atoms: C_1  and  C_2
REMARK    2  A    between atoms: C_6  and  C_7
REMARK    3  A    between atoms: N_23  and  N_24
REMARK    4  A    between atoms: C_25  and  C_27
REMARK                            x       y       z     vdW  Elec       q    Type
REMARK                         _______ _______ _______ _____ _____    ______ ____
ROOT
ATOM      1  C   UNL     1      -0.018   1.503   0.010  0.00  0.00    +0.048 C 
ATOM      2  C   UNL     1       0.002  -0.004   0.002  0.00  0.00    +0.009 A 
ATOM      3  C   UNL     1       0.008  -0.838  -1.123  0.00  0.00    +0.042 A 
ATOM      4  C   UNL     1       0.026  -2.138  -0.672  0.00  0.00    +0.115 A 
ATOM      5  O   UNL     1       0.034  -2.112   0.658  0.00  0.00    -0.454 OA
ATOM      6  C   UNL     1       0.024  -0.831   1.091  0.00  0.00    +0.193 A 
ATOM      7  C   UNL     1       0.032  -3.327  -1.599  0.00  0.00    +0.075 C 
ATOM      8  C   UNL     1      -0.492  -2.903  -2.974  0.00  0.00    +0.014 C 
ATOM      9  C   UNL     1       0.280  -1.685  -3.494  0.00  0.00    +0.058 C 
ATOM     10  C   UNL     1       0.001  -0.512  -2.566  0.00  0.00    +0.070 C 
ATOM     11  N   UNL     1      -0.227   0.686  -3.008  0.00  0.00    -0.184 NA
ENDROOT
BRANCH   6  12
ATOM     12  C   UNL     1       0.032  -0.400   2.493  0.00  0.00    +0.285 C 
ATOM     13  O   UNL     1       0.019   0.786   2.765  0.00  0.00    -0.266 OA
ATOM     14  N   UNL     1       0.054  -1.318   3.480  0.00  0.00    -0.258 N 
ATOM     15  C   UNL     1       0.062  -0.911   4.803  0.00  0.00    +0.166 A 
ATOM     16  N   UNL     1       0.044   0.308   5.290  0.00  0.00    -0.225 NA
ATOM     17  C   UNL     1       0.054   0.559   6.617  0.00  0.00    +0.080 A 
ATOM     18  C   UNL     1       0.038   1.815   7.268  0.00  0.00    +0.029 A 
ATOM     19  C   UNL     1       0.053   1.894   8.635  0.00  0.00    +0.002 A 
ATOM     20  C   UNL     1       0.084   0.756   9.428  0.00  0.00    +0.001 A 
ATOM     21  C   UNL     1       0.100  -0.489   8.825  0.00  0.00    +0.017 A 
ATOM     22  C   UNL     1       0.085  -0.578   7.455  0.00  0.00    +0.041 A 
ATOM     23  S   UNL     1       0.090  -1.913   6.283  0.00  0.00    -0.052 S 
ATOM     24  H   UNL     1       0.065  -2.263   3.263  0.00  0.00    +0.157 HD
ENDBRANCH   6  12
BRANCH  11  25
ATOM     25  N   UNL     1      -0.222   0.938  -4.386  0.00  0.00    -0.201 N 
ATOM     26  C   UNL     1      -0.459   2.183  -4.845  0.00  0.00    +0.282 C 
ATOM     27  O   UNL     1      -0.677   3.087  -4.063  0.00  0.00    -0.267 OA
ATOM     28  H   UNL     1      -0.048   0.216  -5.010  0.00  0.00    +0.178 HD
BRANCH  26  29
ATOM     29  C   UNL     1      -0.453   2.449  -6.303  0.00  0.00    +0.128 A 
ATOM     30  C   UNL     1      -0.696   3.752  -6.763  0.00  0.00    +0.034 A 
ATOM     31  C   UNL     1      -0.694   4.010  -8.103  0.00  0.00    +0.012 A 
ATOM     32  C   UNL     1      -0.444   2.942  -8.986  0.00  0.00    +0.000 A 
ATOM     33  C   UNL     1      -0.426   3.136 -10.377  0.00  0.00    +0.010 A 
ATOM     34  C   UNL     1      -0.181   2.081 -11.201  0.00  0.00    +0.001 A 
ATOM     35  C   UNL     1       0.053   0.807 -10.684  0.00  0.00    +0.002 A 
ATOM     36  C   UNL     1       0.043   0.582  -9.343  0.00  0.00    +0.028 A 
ATOM     37  C   UNL     1      -0.206   1.648  -8.457  0.00  0.00    +0.072 A 
ATOM     38  N   UNL     1      -0.215   1.456  -7.138  0.00  0.00    -0.242 NA
ENDBRANCH  26  29
ENDBRANCH  11  25
TORSDOF 3
