REMARK  Name = ZINC11800239
REMARK  13 active torsions:
REMARK  status: ('A' for Active; 'I' for Inactive)
REMARK    1  A    between atoms: C_1  and  C_2
REMARK    2  A    between atoms: C_2  and  N_53
REMARK    3  A    between atoms: C_3  and  C_4
REMARK    4  A    between atoms: C_3  and  N_53
REMARK    5  A    between atoms: C_5  and  C_6
REMARK    6  A    between atoms: C_5  and  N_53
REMARK    7  A    between atoms: C_6  and  O_7
REMARK    8  A    between atoms: O_7  and  C_8
REMARK    9  A    between atoms: C_11  and  C_14
REMARK   10  A    between atoms: C_14  and  N_15
REMARK   11  A    between atoms: N_15  and  S_16
REMARK   12  A    between atoms: S_16  and  C_19
REMARK   13  A    between atoms: C_22  and  N_25
REMARK                            x       y       z     vdW  Elec       q    Type
REMARK                         _______ _______ _______ _____ _____    ______ ____
ROOT
ATOM      1  C   UNL     1       0.221  -0.809  -0.327  0.00  0.00    +0.120 A 
ATOM      2  C   UNL     1      -1.042  -0.332  -0.644  0.00  0.00    +0.046 A 
ATOM      3  C   UNL     1      -1.269   1.030  -0.708  0.00  0.00    +0.008 A 
ATOM      4  C   UNL     1      -0.238   1.916  -0.455  0.00  0.00    -0.032 A 
ATOM      5  C   UNL     1       1.022   1.442  -0.138  0.00  0.00    +0.008 A 
ATOM      6  C   UNL     1       1.254   0.082  -0.074  0.00  0.00    +0.046 A 
ENDROOT
BRANCH   1   7
ATOM      7  O   UNL     1       0.447  -2.148  -0.264  0.00  0.00    -0.494 OA
BRANCH   7   8
ATOM      8  C   UNL     1       1.772  -2.568   0.068  0.00  0.00    +0.210 C 
BRANCH   8   9
ATOM      9  C   UNL     1       1.832  -4.096   0.091  0.00  0.00    -0.037 C 
BRANCH   9  10
ATOM     10  N   UNL     1       1.563  -4.604  -1.271  0.00  0.00    +0.382 N 
ATOM     11  H   UNL     1       0.695  -4.181  -1.619  0.00  0.00    -0.082 HD
BRANCH  10  13
ATOM     12  C   UNL     1       3.993  -4.823  -1.670  0.00  0.00    -0.017 C 
ATOM     13  C   UNL     1       2.673  -4.237  -2.175  0.00  0.00    -0.082 C 
ENDBRANCH  10  13
BRANCH  10  14
ATOM     14  C   UNL     1       1.402  -6.073  -1.239  0.00  0.00    -0.082 C 
ATOM     15  C   UNL     1       0.772  -6.527  -2.558  0.00  0.00    -0.017 C 
ENDBRANCH  10  14
ENDBRANCH   9  10
ENDBRANCH   8   9
ENDBRANCH   7   8
ENDBRANCH   1   7
BRANCH   4  16
ATOM     16  C   UNL     1      -0.488   3.400  -0.524  0.00  0.00    +0.141 C 
BRANCH  16  17
ATOM     17  N   UNL     1      -0.904   3.887   0.794  0.00  0.00    -0.186 NA
ATOM     18  H   UNL     1      -1.188   3.259   1.476  0.00  0.00    +0.148 HD
BRANCH  17  19
ATOM     19  S   UNL     1      -0.889   5.511   1.119  0.00  0.00    +0.059 S 
ATOM     20  O   UNL     1      -1.364   5.663   2.449  0.00  0.00    -0.153 OA
ATOM     21  O   UNL     1       0.380   5.997   0.702  0.00  0.00    -0.153 OA
BRANCH  19  22
ATOM     22  C   UNL     1      -2.086   6.264   0.068  0.00  0.00    +0.105 A 
ATOM     23  C   UNL     1      -1.715   6.724  -1.182  0.00  0.00    +0.030 A 
ATOM     24  C   UNL     1      -2.652   7.309  -2.011  0.00  0.00    +0.024 A 
ATOM     25  C   UNL     1      -3.967   7.446  -1.583  0.00  0.00    +0.025 A 
ATOM     26  C   UNL     1      -4.335   6.987  -0.325  0.00  0.00    +0.024 A 
ATOM     27  C   UNL     1      -3.394   6.398   0.497  0.00  0.00    +0.030 A 
BRANCH  25  28
ATOM     28  N   UNL     1      -4.916   8.042  -2.416  0.00  0.00    -0.358 N 
ATOM     29  H   UNL     1      -5.833   8.136  -2.117  0.00  0.00    +0.142 HD
ATOM     30  H   UNL     1      -4.657   8.361  -3.295  0.00  0.00    +0.142 HD
ENDBRANCH  25  28
ENDBRANCH  19  22
ENDBRANCH  17  19
ENDBRANCH  16  17
ENDBRANCH   4  16
TORSDOF 11
