REMARK  Name = ZINC01556132
REMARK  7 active torsions:
REMARK  status: ('A' for Active; 'I' for Inactive)
REMARK    1  A    between atoms: C_1  and  C_2
REMARK    2  A    between atoms: C_10  and  O_31
REMARK    3  A    between atoms: C_21  and  C_22
REMARK    4  A    between atoms: C_21  and  O_30
REMARK    5  A    between atoms: C_22  and  N_61
REMARK    6  A    between atoms: C_23  and  C_24
REMARK    7  A    between atoms: C_23  and  N_61
REMARK                            x       y       z     vdW  Elec       q    Type
REMARK                         _______ _______ _______ _____ _____    ______ ____
ROOT
ATOM      1  C   UNL     1       8.013   1.696   0.244  0.00  0.00    +0.014 C 
ATOM      2  C   UNL     1       7.972   3.210   0.028  0.00  0.00    -0.002 C 
ATOM      3  C   UNL     1       7.099   3.529  -1.168  0.00  0.00    +0.010 C 
ATOM      4  C   UNL     1       5.717   2.896  -0.919  0.00  0.00    +0.009 C 
ATOM      5  C   UNL     1       5.118   3.406   0.384  0.00  0.00    +0.023 C 
ATOM      6  C   UNL     1       3.775   2.794   0.658  0.00  0.00    -0.041 A 
ATOM      7  C   UNL     1       2.945   2.520  -0.422  0.00  0.00    +0.008 A 
ATOM      8  C   UNL     1       1.698   1.967  -0.226  0.00  0.00    +0.046 A 
ATOM      9  C   UNL     1       1.266   1.685   1.062  0.00  0.00    +0.117 A 
ATOM     10  C   UNL     1       2.090   1.964   2.138  0.00  0.00    +0.049 A 
ATOM     11  C   UNL     1       3.351   2.511   1.940  0.00  0.00    -0.040 A 
ATOM     12  C   UNL     1       4.200   2.767   3.157  0.00  0.00    +0.036 C 
ATOM     13  C   UNL     1       5.375   3.688   2.830  0.00  0.00    +0.009 C 
ATOM     14  C   UNL     1       6.060   3.159   1.569  0.00  0.00    +0.000 C 
ATOM     15  C   UNL     1       7.349   3.897   1.275  0.00  0.00    +0.001 C 
ATOM     16  C   UNL     1       8.469   3.731   2.308  0.00  0.00    +0.007 C 
ATOM     17  C   UNL     1       9.751   4.037   1.485  0.00  0.00    +0.034 C 
ATOM     18  C   UNL     1       9.397   3.749   0.004  0.00  0.00    +0.057 C 
ENDROOT
BRANCH  18  19
ATOM     19  O   UNL     1       9.459   4.954  -0.763  0.00  0.00    -0.390 OA
ATOM     20  H   UNL     1      10.342   5.343  -0.813  0.00  0.00    +0.210 HD
ENDBRANCH  18  19
BRANCH   9  21
ATOM     21  O   UNL     1       0.036   1.144   1.267  0.00  0.00    -0.507 OA
ATOM     22  H   UNL     1       0.027   0.177   1.265  0.00  0.00    +0.292 HD
ENDBRANCH   9  21
BRANCH  18  23
ATOM     23  C   UNL     1      10.351   2.702  -0.575  0.00  0.00    -0.046 C 
BRANCH  23  24
ATOM     24  N   UNL     1      11.735   3.201  -0.475  0.00  0.00    +0.384 N 
ATOM     25  H   UNL     1      11.963   3.373   0.511  0.00  0.00    -0.085 HD
ATOM     26  H   UNL     1      11.818   4.078  -1.003  0.00  0.00    -0.085 HD
BRANCH  24  27
ATOM     27  C   UNL     1      12.678   2.209  -1.027  0.00  0.00    -0.047 C 
BRANCH  27  28
ATOM     28  C   UNL     1      14.082   2.745  -0.912  0.00  0.00    -0.064 A 
ATOM     29  C   UNL     1      14.624   3.490  -1.943  0.00  0.00    +0.002 A 
ATOM     30  C   UNL     1      15.910   3.986  -1.835  0.00  0.00    +0.000 A 
ATOM     31  C   UNL     1      16.657   3.728  -0.701  0.00  0.00    +0.000 A 
ATOM     32  C   UNL     1      16.117   2.979   0.327  0.00  0.00    +0.000 A 
ATOM     33  C   UNL     1      14.829   2.488   0.222  0.00  0.00    +0.002 A 
ENDBRANCH  27  28
ENDBRANCH  24  27
ENDBRANCH  23  24
ENDBRANCH  18  23
TORSDOF 6
