REMARK  Name = ZINC43091892
REMARK  8 active torsions:
REMARK  status: ('A' for Active; 'I' for Inactive)
REMARK    1  A    between atoms: C_1  and  C_2
REMARK    2  A    between atoms: C_2  and  C_4
REMARK    3  A    between atoms: C_2  and  N_22
REMARK    4  A    between atoms: C_4  and  C_6
REMARK    5  A    between atoms: C_4  and  N_13
REMARK    6  A    between atoms: N_16  and  C_19
REMARK    7  A    between atoms: C_19  and  C_20
REMARK    8  A    between atoms: C_20  and  O_21
REMARK                            x       y       z     vdW  Elec       q    Type
REMARK                         _______ _______ _______ _____ _____    ______ ____
ROOT
ATOM      1  C   UNL     1       0.742  -0.511   1.242  0.00  0.00    +0.073 C 
ENDROOT
BRANCH   1   2
ATOM      2  C   UNL     1      -0.030  -0.130   2.478  0.00  0.00    -0.018 A 
ATOM      3  C   UNL     1       0.288   1.030   3.162  0.00  0.00    +0.006 A 
ATOM      4  C   UNL     1      -0.420   1.380   4.296  0.00  0.00    +0.000 A 
ATOM      5  C   UNL     1      -1.447   0.571   4.747  0.00  0.00    +0.001 A 
ATOM      6  C   UNL     1      -1.765  -0.588   4.065  0.00  0.00    +0.015 A 
ATOM      7  C   UNL     1      -1.060  -0.936   2.927  0.00  0.00    +0.022 A 
ATOM      8 BR   UNL     1      -1.500  -2.518   1.989  0.00  0.00    -0.050 Br
ENDBRANCH   1   2
BRANCH   1   9
ATOM      9  N   UNL     1       2.080   0.093   1.294  0.00  0.00    -0.295 NA
ATOM     10  C   UNL     1       2.831  -0.183   0.061  0.00  0.00    +0.100 C 
ATOM     11  C   UNL     1       4.185   0.527   0.122  0.00  0.00    +0.100 C 
ATOM     12  N   UNL     1       4.927   0.062   1.302  0.00  0.00    -0.298 NA
ATOM     13  C   UNL     1       4.176   0.338   2.535  0.00  0.00    +0.100 C 
ATOM     14  C   UNL     1       2.822  -0.372   2.474  0.00  0.00    +0.100 C 
BRANCH  12  15
ATOM     15  C   UNL     1       6.265   0.666   1.355  0.00  0.00    +0.112 C 
BRANCH  15  16
ATOM     16  C   UNL     1       7.093  -0.022   2.443  0.00  0.00    +0.171 C 
BRANCH  16  17
ATOM     17  O   UNL     1       7.308  -1.388   2.085  0.00  0.00    -0.394 OA
ATOM     18  H   UNL     1       7.827  -1.887   2.731  0.00  0.00    +0.209 HD
ENDBRANCH  16  17
ENDBRANCH  15  16
ENDBRANCH  12  15
ENDBRANCH   1   9
BRANCH   1  20
ATOM     19  C   UNL     1      -0.019   1.526   0.010  0.00  0.00    -0.012 C 
ATOM     20  C   UNL     1       0.002  -0.004   0.002  0.00  0.00    -0.056 C 
BRANCH  20  21
ATOM     21  N   UNL     1      -1.376  -0.512   0.012  0.00  0.00    +0.381 N 
ATOM     22  H   UNL     1      -1.864  -0.178  -0.805  0.00  0.00    -0.090 HD
ATOM     23  H   UNL     1      -1.362  -1.521   0.007  0.00  0.00    -0.090 HD
ATOM     24  H   UNL     1      -1.848  -0.187   0.843  0.00  0.00    -0.090 HD
ENDBRANCH  20  21
ENDBRANCH   1  20
TORSDOF 7
