REMARK  Name = ZINC59474928
REMARK  12 active torsions:
REMARK  status: ('A' for Active; 'I' for Inactive)
REMARK    1  A    between atoms: C_1  and  C_2
REMARK    2  A    between atoms: C_2  and  O_3
REMARK    3  A    between atoms: O_3  and  C_4
REMARK    4  A    between atoms: C_6  and  C_15
REMARK    5  A    between atoms: C_9  and  O_10
REMARK    6  A    between atoms: O_10  and  C_11
REMARK    7  A    between atoms: C_11  and  C_12
REMARK    8  A    between atoms: C_16  and  C_17
REMARK    9  A    between atoms: C_16  and  C_19
REMARK   10  A    between atoms: N_21  and  C_22
REMARK   11  A    between atoms: C_24  and  C_29
REMARK   12  A    between atoms: C_27  and  C_28
REMARK                            x       y       z     vdW  Elec       q    Type
REMARK                         _______ _______ _______ _____ _____    ______ ____
ROOT
ATOM      1  C   UNL     1      -0.112  -4.987   0.515  0.00  0.00    +0.032 C 
ATOM      2  C   UNL     1      -0.250  -6.317   0.185  0.00  0.00    +0.114 C 
ENDROOT
BRANCH   1   5
ATOM      3  C   UNL     1       1.606  -2.150  -1.230  0.00  0.00    +0.164 A 
ATOM      4  C   UNL     1       0.620  -2.907  -0.630  0.00  0.00    +0.057 A 
ATOM      5  C   UNL     1       0.928  -4.178  -0.123  0.00  0.00    -0.019 A 
ATOM      6  C   UNL     1       2.237  -4.671  -0.229  0.00  0.00    +0.027 A 
ATOM      7  C   UNL     1       3.213  -3.908  -0.829  0.00  0.00    +0.064 A 
ATOM      8  C   UNL     1       2.904  -2.650  -1.336  0.00  0.00    +0.176 A 
ATOM      9 BR   UNL     1       4.977  -4.574  -0.971  0.00  0.00    -0.046 Br
BRANCH   3  10
ATOM     10  O   UNL     1       1.310  -0.918  -1.723  0.00  0.00    -0.489 OA
BRANCH  10  12
ATOM     11  C   UNL     1      -0.178   0.928  -2.189  0.00  0.00    +0.048 C 
ATOM     12  C   UNL     1      -0.039  -0.468  -1.580  0.00  0.00    +0.226 C 
ENDBRANCH  10  12
ENDBRANCH   3  10
BRANCH   8  13
ATOM     13  O   UNL     1       3.869  -1.905  -1.932  0.00  0.00    -0.483 OA
BRANCH  13  14
ATOM     14  C   UNL     1       4.623  -1.028  -1.093  0.00  0.00    +0.256 C 
BRANCH  14  15
ATOM     15  C   UNL     1       5.640  -0.289  -1.923  0.00  0.00    +0.006 C 
ATOM     16  C   UNL     1       5.807   1.000  -1.760  0.00  0.00    +0.007 C 
ENDBRANCH  14  15
ENDBRANCH  13  14
ENDBRANCH   8  13
ENDBRANCH   1   5
BRANCH   2  17
ATOM     17  C   UNL     1       0.454  -6.861  -0.987  0.00  0.00    +0.259 C 
ATOM     18  O   UNL     1       1.061  -6.115  -1.732  0.00  0.00    -0.269 OA
ATOM     19  N   UNL     1       0.427  -8.186  -1.234  0.00  0.00    -0.281 N 
ATOM     20  H   UNL     1       0.021  -8.790  -0.594  0.00  0.00    +0.155 HD
BRANCH  19  21
ATOM     21  C   UNL     1       0.985  -8.688  -2.414  0.00  0.00    +0.037 A 
ATOM     22  C   UNL     1       1.133  -7.862  -3.521  0.00  0.00    +0.027 A 
ATOM     23  C   UNL     1       1.685  -8.361  -4.684  0.00  0.00    -0.049 A 
ATOM     24  C   UNL     1       2.089  -9.682  -4.748  0.00  0.00    +0.004 A 
ATOM     25  C   UNL     1       1.942 -10.507  -3.649  0.00  0.00    +0.005 A 
ATOM     26  C   UNL     1       1.396 -10.013  -2.480  0.00  0.00    -0.029 A 
ATOM     27  C   UNL     1       1.242 -10.911  -1.280  0.00  0.00    +0.045 C 
ATOM     28  C   UNL     1       1.846  -7.465  -5.885  0.00  0.00    +0.044 C 
ENDBRANCH  19  21
ENDBRANCH   2  17
BRANCH   2  29
ATOM     29  C   UNL     1      -1.080  -7.170   0.981  0.00  0.00    +0.104 C 
ATOM     30  N   UNL     1      -1.738  -7.847   1.613  0.00  0.00    -0.191 NA
ENDBRANCH   2  29
TORSDOF 9
