REMARK  Name = ZINC62206731
REMARK  10 active torsions:
REMARK  status: ('A' for Active; 'I' for Inactive)
REMARK    1  A    between atoms: C_1  and  N_2
REMARK    2  A    between atoms: N_2  and  C_3
REMARK    3  A    between atoms: N_2  and  C_4
REMARK    4  A    between atoms: C_4  and  C_5
REMARK    5  A    between atoms: C_9  and  N_11
REMARK    6  A    between atoms: C_12  and  C_14
REMARK    7  A    between atoms: N_16  and  C_17
REMARK    8  A    between atoms: C_17  and  C_18
REMARK    9  A    between atoms: C_18  and  C_19
REMARK   10  A    between atoms: C_18  and  O_26
REMARK                            x       y       z     vdW  Elec       q    Type
REMARK                         _______ _______ _______ _____ _____    ______ ____
ROOT
ATOM      1  N   UNL     1      -2.691  -1.481   4.597  0.00  0.00    -0.278 N 
ATOM      2  C   UNL     1      -3.308  -1.185   5.758  0.00  0.00    +0.303 C 
ATOM      3  O   UNL     1      -3.092  -0.124   6.307  0.00  0.00    -0.265 OA
ATOM      4  H   UNL     1      -2.921  -2.293   4.119  0.00  0.00    +0.155 HD
ENDROOT
BRANCH   1   9
ATOM      5  C   UNL     1      -0.617   0.380   2.201  0.00  0.00    -0.062 A 
ATOM      6  C   UNL     1       0.201   1.091   3.061  0.00  0.00    +0.002 A 
ATOM      7  C   UNL     1       0.060   0.950   4.429  0.00  0.00    +0.002 A 
ATOM      8  C   UNL     1      -0.898   0.098   4.942  0.00  0.00    +0.023 A 
ATOM      9  C   UNL     1      -1.721  -0.618   4.081  0.00  0.00    +0.034 A 
ATOM     10  C   UNL     1      -1.581  -0.469   2.707  0.00  0.00    +0.025 A 
BRANCH   5  11
ATOM     11  C   UNL     1      -0.460   0.538   0.711  0.00  0.00    -0.044 C 
BRANCH  11  13
ATOM     12  C   UNL     1      -0.856   2.901   0.816  0.00  0.00    -0.096 C 
ATOM     13  N   UNL     1      -1.320   1.632   0.240  0.00  0.00    +0.379 N 
ATOM     14  C   UNL     1      -1.258   1.707  -1.226  0.00  0.00    -0.096 C 
ATOM     15  H   UNL     1      -2.271   1.459   0.529  0.00  0.00    -0.082 HD
ENDBRANCH  11  13
ENDBRANCH   5  11
ENDBRANCH   1   9
BRANCH   2  16
ATOM     16  C   UNL     1      -4.258  -2.162   6.369  0.00  0.00    +0.299 C 
ATOM     17  O   UNL     1      -4.475  -3.222   5.820  0.00  0.00    -0.265 OA
ATOM     18  N   UNL     1      -4.875  -1.866   7.530  0.00  0.00    -0.305 N 
ATOM     19  H   UNL     1      -4.702  -1.018   7.969  0.00  0.00    +0.149 HD
BRANCH  18  20
ATOM     20  C   UNL     1      -5.807  -2.824   8.130  0.00  0.00    +0.140 C 
BRANCH  20  21
ATOM     21  C   UNL     1      -6.364  -2.247   9.433  0.00  0.00    +0.162 C 
BRANCH  21  22
ATOM     22  C   UNL     1      -7.322  -3.233  10.049  0.00  0.00    -0.018 A 
ATOM     23  C   UNL     1      -6.846  -4.245  10.862  0.00  0.00    +0.007 A 
ATOM     24  C   UNL     1      -7.724  -5.149  11.428  0.00  0.00    +0.020 A 
ATOM     25  C   UNL     1      -9.081  -5.042  11.181  0.00  0.00    +0.041 A 
ATOM     26  C   UNL     1      -9.558  -4.030  10.367  0.00  0.00    +0.020 A 
ATOM     27  C   UNL     1      -8.679  -3.123   9.806  0.00  0.00    +0.007 A 
ATOM     28 CL   UNL     1     -10.185  -6.178  11.891  0.00  0.00    -0.084 Cl
ENDBRANCH  21  22
BRANCH  21  29
ATOM     29  O   UNL     1      -5.289  -1.996  10.340  0.00  0.00    -0.386 OA
ATOM     30  H   UNL     1      -4.778  -2.784  10.572  0.00  0.00    +0.210 HD
ENDBRANCH  21  29
ENDBRANCH  20  21
ENDBRANCH  18  20
ENDBRANCH   2  16
TORSDOF 8
