REMARK  Name = ZINC09914541
REMARK  8 active torsions:
REMARK  status: ('A' for Active; 'I' for Inactive)
REMARK    1  A    between atoms: C_1  and  N_51
REMARK    2  A    between atoms: C_7  and  N_12
REMARK    3  A    between atoms: C_8  and  C_9
REMARK    4  A    between atoms: C_13  and  C_15
REMARK    5  A    between atoms: C_15  and  C_16
REMARK    6  A    between atoms: C_16  and  C_17
REMARK    7  A    between atoms: C_17  and  S_18
REMARK    8  A    between atoms: S_18  and  C_21
REMARK                            x       y       z     vdW  Elec       q    Type
REMARK                         _______ _______ _______ _____ _____    ______ ____
ROOT
ATOM      1  N   UNL     1      -1.582   2.281  -6.215  0.00  0.00    -0.279 N 
ATOM      2  C   UNL     1      -0.919   1.915  -5.101  0.00  0.00    +0.218 C 
ATOM      3  O   UNL     1       0.140   1.330  -5.189  0.00  0.00    -0.275 OA
ATOM      4  H   UNL     1      -2.429   2.748  -6.145  0.00  0.00    +0.155 HD
ENDROOT
BRANCH   1  11
ATOM      5  C   UNL     1       1.587   0.280 -12.987  0.00  0.00    -0.096 C 
ATOM      6  C   UNL     1      -0.016   1.922 -12.215  0.00  0.00    -0.074 C 
ATOM      7  C   UNL     1      -1.246   2.100 -11.320  0.00  0.00    +0.018 C 
ATOM      8  C   UNL     1      -0.821   1.862  -9.876  0.00  0.00    -0.027 A 
ATOM      9  C   UNL     1       0.339   1.221  -9.607  0.00  0.00    -0.021 A 
ATOM     10  S   UNL     1       0.428   1.171  -7.841  0.00  0.00    -0.079 S 
ATOM     11  C   UNL     1      -1.053   1.989  -7.464  0.00  0.00    +0.084 A 
ATOM     12  C   UNL     1      -1.584   2.276  -8.714  0.00  0.00    +0.068 A 
ATOM     13  C   UNL     1       1.310   0.683 -10.611  0.00  0.00    -0.036 C 
ATOM     14  N   UNL     1       0.620   0.622 -11.922  0.00  0.00    +0.381 N 
ATOM     15  H   UNL     1      -0.105  -0.104 -11.885  0.00  0.00    -0.082 HD
BRANCH  12  16
ATOM     16  C   UNL     1      -2.866   2.975  -8.854  0.00  0.00    +0.244 C 
ATOM     17  O   UNL     1      -2.893   4.190  -8.915  0.00  0.00    -0.270 OA
ATOM     18  N   UNL     1      -4.014   2.271  -8.916  0.00  0.00    -0.325 N 
ATOM     19  H   UNL     1      -3.992   1.303  -8.868  0.00  0.00    +0.145 HD
ATOM     20  H   UNL     1      -4.861   2.734  -9.009  0.00  0.00    +0.145 HD
ENDBRANCH  12  16
ENDBRANCH   1  11
BRANCH   2  21
ATOM     21  C   UNL     1      -1.493   2.232  -3.744  0.00  0.00    +0.098 C 
BRANCH  21  22
ATOM     22  C   UNL     1      -0.551   1.712  -2.657  0.00  0.00    +0.032 C 
BRANCH  22  23
ATOM     23  C   UNL     1      -1.135   2.034  -1.279  0.00  0.00    +0.172 C 
BRANCH  23  24
ATOM     24  S   UNL     1      -0.017   1.417   0.010  0.00  0.00    -0.003 S 
ATOM     25  O   UNL     1       0.002  -0.004   0.002  0.00  0.00    -0.169 OA
ATOM     26  O   UNL     1       1.195   2.158   0.002  0.00  0.00    -0.169 OA
BRANCH  24  27
ATOM     27  C   UNL     1      -0.798   1.847   1.530  0.00  0.00    +0.088 A 
ATOM     28  C   UNL     1      -0.521   3.062   2.129  0.00  0.00    +0.028 A 
ATOM     29  C   UNL     1      -1.137   3.403   3.318  0.00  0.00    +0.022 A 
ATOM     30  C   UNL     1      -2.023   2.523   3.915  0.00  0.00    +0.041 A 
ATOM     31  C   UNL     1      -2.295   1.305   3.318  0.00  0.00    +0.022 A 
ATOM     32  C   UNL     1      -1.683   0.968   2.126  0.00  0.00    +0.028 A 
ATOM     33 CL   UNL     1      -2.792   2.948   5.412  0.00  0.00    -0.084 Cl
ENDBRANCH  24  27
ENDBRANCH  23  24
ENDBRANCH  22  23
ENDBRANCH  21  22
ENDBRANCH   2  21
TORSDOF 7
