REMARK  Name = ZINC23128463
REMARK  8 active torsions:
REMARK  status: ('A' for Active; 'I' for Inactive)
REMARK    1  A    between atoms: C_1  and  C_2
REMARK    2  A    between atoms: C_3  and  C_8
REMARK    3  A    between atoms: C_4  and  C_7
REMARK    4  A    between atoms: C_8  and  N_9
REMARK    5  A    between atoms: C_13  and  N_16
REMARK    6  A    between atoms: C_20  and  C_23
REMARK    7  A    between atoms: C_23  and  C_24
REMARK    8  A    between atoms: C_24  and  N_25
REMARK                            x       y       z     vdW  Elec       q    Type
REMARK                         _______ _______ _______ _____ _____    ______ ____
ROOT
ATOM      1  N   UNL     1       4.262  -1.312  -4.474  0.00  0.00    -0.225 N 
ATOM      2  C   UNL     1       4.052   0.015  -4.362  0.00  0.00    +0.269 A 
ATOM      3  O   UNL     1       4.497   0.780  -5.204  0.00  0.00    -0.266 OA
ATOM      4  C   UNL     1       3.320   0.510  -3.275  0.00  0.00    +0.096 A 
ATOM      5  C   UNL     1       2.828  -0.378  -2.337  0.00  0.00    +0.055 A 
ATOM      6  C   UNL     1       3.078  -1.759  -2.491  0.00  0.00    +0.156 A 
ATOM      7  N   UNL     1       3.756  -2.195  -3.515  0.00  0.00    -0.174 NA
ENDROOT
BRANCH   5   8
ATOM      8  N   UNL     1       2.102   0.083  -1.253  0.00  0.00    -0.324 N 
ATOM      9  C   UNL     1       2.043   1.552  -1.244  0.00  0.00    +0.133 C 
ATOM     10  C   UNL     1       1.284   2.019   0.001  0.00  0.00    +0.179 C 
ATOM     11  O   UNL     1      -0.017   1.426   0.010  0.00  0.00    -0.374 OA
ATOM     12  C   UNL     1       0.002  -0.004   0.002  0.00  0.00    +0.134 C 
ATOM     13  C   UNL     1       0.749  -0.492  -1.242  0.00  0.00    +0.136 C 
BRANCH  12  14
ATOM     14  C   UNL     1      -1.433  -0.534  -0.022  0.00  0.00    +0.013 C 
BRANCH  14  15
ATOM     15  C   UNL     1      -2.142  -0.147   1.277  0.00  0.00    -0.084 C 
BRANCH  15  16
ATOM     16  N   UNL     1      -3.520  -0.656   1.254  0.00  0.00    +0.378 N 
ATOM     17  H   UNL     1      -4.029  -0.377   2.188  0.00  0.00    -0.090 HD
ATOM     18  H   UNL     1      -3.504  -1.752   1.157  0.00  0.00    -0.090 HD
ATOM     19  H   UNL     1      -4.057  -0.220   0.399  0.00  0.00    -0.090 HD
ENDBRANCH  15  16
ENDBRANCH  14  15
ENDBRANCH  12  14
ENDBRANCH   5   8
BRANCH   1  20
ATOM     20  C   UNL     1       5.027  -1.833  -5.610  0.00  0.00    +0.188 C 
BRANCH  20  23
ATOM     21  C   UNL     1       6.647  -4.290  -4.243  0.00  0.00    +0.069 C 
ATOM     22  C   UNL     1       7.202  -2.950  -4.654  0.00  0.00    +0.086 A 
ATOM     23  C   UNL     1       6.490  -1.884  -5.249  0.00  0.00    +0.038 A 
ATOM     24  C   UNL     1       7.427  -0.922  -5.425  0.00  0.00    +0.139 A 
ATOM     25  O   UNL     1       8.577  -1.421  -4.952  0.00  0.00    -0.359 OA
ATOM     26  N   UNL     1       8.434  -2.546  -4.532  0.00  0.00    -0.083 NA
ATOM     27  C   UNL     1       7.217   0.441  -6.032  0.00  0.00    +0.089 C 
ENDBRANCH  20  23
ENDBRANCH   1  20
TORSDOF 6
