REMARK  Name = ZINC08170343
REMARK  9 active torsions:
REMARK  status: ('A' for Active; 'I' for Inactive)
REMARK    1  A    between atoms: C_1  and  C_2
REMARK    2  A    between atoms: C_2  and  N_3
REMARK    3  A    between atoms: C_7  and  C_9
REMARK    4  A    between atoms: C_9  and  N_10
REMARK    5  A    between atoms: N_10  and  C_11
REMARK    6  A    between atoms: N_10  and  C_12
REMARK    7  A    between atoms: C_12  and  C_13
REMARK    8  A    between atoms: N_15  and  C_16
REMARK    9  A    between atoms: C_21  and  C_22
REMARK                            x       y       z     vdW  Elec       q    Type
REMARK                         _______ _______ _______ _____ _____    ______ ____
ROOT
ATOM      1  N   UNL     1      -4.487  -5.623  -0.002  0.00  0.00    +0.389 N 
ATOM      2  C   UNL     1      -3.886  -6.101   1.250  0.00  0.00    -0.095 C 
ATOM      3  H   UNL     1      -3.943  -5.954  -0.784  0.00  0.00    -0.081 HD
ENDROOT
BRANCH   1   4
ATOM      4  C   UNL     1      -4.506  -4.154  -0.005  0.00  0.00    +0.019 C 
BRANCH   4   9
ATOM      5  N   UNL     1      -1.371  -0.510  -0.038  0.00  0.00    -0.299 N 
ATOM      6  C   UNL     1      -1.599  -1.839  -0.033  0.00  0.00    +0.306 C 
ATOM      7  O   UNL     1      -0.665  -2.616  -0.038  0.00  0.00    -0.252 OA
ATOM      8  N   UNL     1      -2.864  -2.305  -0.022  0.00  0.00    -0.242 N 
ATOM      9  C   UNL     1      -3.092  -3.633  -0.017  0.00  0.00    +0.204 C 
ATOM     10  O   UNL     1      -2.161  -4.408  -0.023  0.00  0.00    -0.277 OA
ATOM     11  H   UNL     1      -2.116   0.110  -0.034  0.00  0.00    +0.150 HD
ATOM     12  H   UNL     1      -3.609  -1.684  -0.018  0.00  0.00    +0.159 HD
BRANCH   5  14
ATOM     13  C   UNL     1      -0.016   1.526  -0.054  0.00  0.00    +0.024 C 
ATOM     14  C   UNL     1       0.004  -0.004  -0.050  0.00  0.00    +0.102 C 
ENDBRANCH   5  14
ENDBRANCH   4   9
ENDBRANCH   1   4
BRANCH   1  15
ATOM     15  C   UNL     1      -5.861  -6.131  -0.111  0.00  0.00    +0.019 C 
BRANCH  15  16
ATOM     16  C   UNL     1      -5.833  -7.633  -0.231  0.00  0.00    +0.201 C 
ATOM     17  O   UNL     1      -4.773  -8.222  -0.226  0.00  0.00    -0.278 OA
ATOM     18  N   UNL     1      -6.986  -8.322  -0.343  0.00  0.00    -0.287 N 
ATOM     19  H   UNL     1      -7.836  -7.860  -0.267  0.00  0.00    +0.155 HD
BRANCH  18  20
ATOM     20  C   UNL     1      -6.957  -9.702  -0.571  0.00  0.00    +0.036 A 
ATOM     21  C   UNL     1      -5.853 -10.284  -1.179  0.00  0.00    +0.024 A 
ATOM     22  C   UNL     1      -5.827 -11.647  -1.402  0.00  0.00    +0.017 A 
ATOM     23  C   UNL     1      -6.900 -12.432  -1.020  0.00  0.00    +0.018 A 
ATOM     24  C   UNL     1      -8.002 -11.855  -0.414  0.00  0.00    +0.020 A 
ATOM     25  C   UNL     1      -8.030 -10.493  -0.183  0.00  0.00    -0.028 A 
ATOM     26  C   UNL     1      -9.228  -9.866   0.483  0.00  0.00    +0.046 C 
ATOM     27 BR   UNL     1      -6.862 -14.297  -1.327  0.00  0.00    -0.050 Br
ENDBRANCH  18  20
ENDBRANCH  15  16
ENDBRANCH   1  15
TORSDOF 6
