REMARK  Name = ZINC02333261
REMARK  6 active torsions:
REMARK  status: ('A' for Active; 'I' for Inactive)
REMARK    1  A    between atoms: C_1  and  N_51
REMARK    2  A    between atoms: C_9  and  N_28
REMARK    3  A    between atoms: C_11  and  S_13
REMARK    4  A    between atoms: S_13  and  C_14
REMARK    5  A    between atoms: C_14  and  C_15
REMARK    6  A    between atoms: N_17  and  C_18
REMARK                            x       y       z     vdW  Elec       q    Type
REMARK                         _______ _______ _______ _____ _____    ______ ____
ROOT
ATOM      1  C   UNL     1       2.578  -5.758  -0.065  0.00  0.00    -0.096 C 
ATOM      2  C   UNL     1       0.920  -4.090  -0.645  0.00  0.00    -0.074 C 
ATOM      3  C   UNL     1       0.283  -2.785  -0.160  0.00  0.00    +0.018 C 
ATOM      4  C   UNL     1       1.353  -1.696  -0.177  0.00  0.00    -0.028 A 
ATOM      5  C   UNL     1       2.658  -2.037  -0.225  0.00  0.00    -0.021 A 
ATOM      6  S   UNL     1       3.537  -0.499  -0.232  0.00  0.00    -0.075 S 
ATOM      7  C   UNL     1       2.148   0.603  -0.169  0.00  0.00    +0.115 A 
ATOM      8  C   UNL     1       1.039  -0.268  -0.144  0.00  0.00    +0.051 A 
ATOM      9  C   UNL     1      -0.235   0.363  -0.092  0.00  0.00    +0.129 A 
ATOM     10  N   UNL     1      -0.302   1.684  -0.071  0.00  0.00    -0.207 NA
ATOM     11  C   UNL     1       0.785   2.446  -0.096  0.00  0.00    +0.191 A 
ATOM     12  N   UNL     1       1.998   1.913  -0.144  0.00  0.00    -0.215 NA
ATOM     13  C   UNL     1       3.217  -3.426  -0.262  0.00  0.00    -0.036 C 
ATOM     14  N   UNL     1       2.140  -4.360   0.143  0.00  0.00    +0.381 N 
ATOM     15  H   UNL     1       1.933  -4.220   1.139  0.00  0.00    -0.082 HD
ENDROOT
BRANCH   9  16
ATOM     16  N   UNL     1      -1.391  -0.396  -0.065  0.00  0.00    -0.343 N 
ATOM     17  H   UNL     1      -2.253   0.037   0.036  0.00  0.00    +0.144 HD
ATOM     18  H   UNL     1      -1.339  -1.361  -0.148  0.00  0.00    +0.144 HD
ENDBRANCH   9  16
BRANCH  11  19
ATOM     19  S   UNL     1       0.612   4.199  -0.064  0.00  0.00    -0.077 S 
BRANCH  19  20
ATOM     20  C   UNL     1      -1.192   4.336  -0.001  0.00  0.00    +0.173 C 
BRANCH  20  21
ATOM     21  C   UNL     1      -1.585   5.791   0.033  0.00  0.00    +0.228 C 
ATOM     22  O   UNL     1      -0.729   6.651   0.018  0.00  0.00    -0.275 OA
ATOM     23  N   UNL     1      -2.886   6.137   0.082  0.00  0.00    -0.284 N 
ATOM     24  H   UNL     1      -3.567   5.452   0.178  0.00  0.00    +0.155 HD
BRANCH  23  25
ATOM     25  C   UNL     1      -3.256   7.480  -0.005  0.00  0.00    +0.041 A 
ATOM     26  C   UNL     1      -2.530   8.351  -0.789  0.00  0.00    +0.024 A 
ATOM     27  C   UNL     1      -2.889   9.692  -0.883  0.00  0.00    +0.002 A 
ATOM     28  C   UNL     1      -3.965  10.181  -0.206  0.00  0.00    +0.008 A 
ATOM     29  C   UNL     1      -4.732   9.326   0.603  0.00  0.00    -0.016 A 
ATOM     30  C   UNL     1      -4.379   7.957   0.703  0.00  0.00    +0.003 A 
ATOM     31  C   UNL     1      -5.143   7.105   1.516  0.00  0.00    +0.010 A 
ATOM     32  C   UNL     1      -6.217   7.601   2.189  0.00  0.00    +0.001 A 
ATOM     33  C   UNL     1      -6.568   8.946   2.088  0.00  0.00    +0.001 A 
ATOM     34  C   UNL     1      -5.848   9.802   1.314  0.00  0.00    +0.008 A 
ENDBRANCH  23  25
ENDBRANCH  20  21
ENDBRANCH  19  20
ENDBRANCH  11  19
TORSDOF 5
