REMARK  Name = ZINC38549903
REMARK  6 active torsions:
REMARK  status: ('A' for Active; 'I' for Inactive)
REMARK    1  A    between atoms: N_3  and  C_7
REMARK    2  A    between atoms: N_17  and  C1*_18
REMARK    3  A    between atoms: C2*_20  and  O2*_30
REMARK    4  A    between atoms: C3*_22  and  O3*_29
REMARK    5  A    between atoms: C4*_24  and  C5*_27
REMARK    6  A    between atoms: C5*_27  and  O5*_28
REMARK                            x       y       z     vdW  Elec       q    Type
REMARK                         _______ _______ _______ _____ _____    ______ ____
ROOT
ATOM      1  C   UNL     1       3.627   2.123  -1.262  0.00  0.00    +0.271 C 
ATOM      2  N   UNL     1       4.436   1.744  -2.425  0.00  0.00    -0.238 NA
ATOM      3  C   UNL     1       5.562   1.272  -2.011  0.00  0.00    +0.165 C 
ATOM      4  C   UNL     1       5.606   1.294  -0.527  0.00  0.00    +0.158 C 
ATOM      5  N   UNL     1       6.696   0.842   0.067  0.00  0.00    -0.221 NA
ATOM      6  C   UNL     1       7.727   0.381  -0.624  0.00  0.00    +0.213 C 
ATOM      7  N   UNL     1       7.786   0.320  -1.931  0.00  0.00    -0.163 NA
ATOM      8  C   UNL     1       6.769   0.736  -2.706  0.00  0.00    +0.290 C 
ATOM      9  O   UNL     1       6.830   0.676  -3.920  0.00  0.00    -0.266 OA
ATOM     10  N   UNL     1       4.431   1.811  -0.071  0.00  0.00    -0.250 N 
ENDROOT
BRANCH   1  13
ATOM     11  C   UNL     1       1.332  -0.864  -1.277  0.00  0.00    -0.067 C 
ATOM     12  C   UNL     1       2.650  -0.091  -1.360  0.00  0.00    +0.069 C 
ATOM     13  N   UNL     1       2.379   1.349  -1.243  0.00  0.00    -0.269 NA
ATOM     14  C   UNL     1       1.466   1.796  -2.304  0.00  0.00    +0.069 C 
ATOM     15  C   UNL     1       0.158   1.008  -2.213  0.00  0.00    -0.067 C 
ATOM     16  N   UNL     1       0.439  -0.427  -2.358  0.00  0.00    +0.381 N 
ATOM     17  H   UNL     1       0.882  -0.594  -3.249  0.00  0.00    -0.086 HD
ATOM     18  H   UNL     1      -0.425  -0.945  -2.311  0.00  0.00    -0.086 HD
ENDBRANCH   1  13
BRANCH  10  19
ATOM     19  C1* UNL     1       4.044   2.016   1.327  0.00  0.00    +0.242 C 
ATOM     20  C2* UNL     1       5.020   2.997   2.025  0.00  0.00    +0.193 C 
ATOM     21  C3* UNL     1       4.872   2.598   3.514  0.00  0.00    +0.178 C 
ATOM     22  C4* UNL     1       4.303   1.167   3.466  0.00  0.00    +0.177 C 
ATOM     23  O4* UNL     1       4.194   0.793   2.080  0.00  0.00    -0.348 OA
BRANCH  21  24
ATOM     24  O3* UNL     1       3.965   3.478   4.179  0.00  0.00    -0.386 OA
ATOM     25  H3* UNL     1       3.834   3.274   5.116  0.00  0.00    +0.210 HD
ENDBRANCH  21  24
BRANCH  20  26
ATOM     26  O2* UNL     1       4.617   4.352   1.817  0.00  0.00    -0.385 OA
ATOM     27  H2* UNL     1       5.197   5.003   2.235  0.00  0.00    +0.210 HD
ENDBRANCH  20  26
BRANCH  22  28
ATOM     28  C5* UNL     1       5.245   0.207   4.195  0.00  0.00    +0.190 C 
BRANCH  28  29
ATOM     29  O5* UNL     1       4.652  -1.092   4.253  0.00  0.00    -0.392 OA
ATOM     30  H5* UNL     1       5.196  -1.753   4.703  0.00  0.00    +0.210 HD
ENDBRANCH  28  29
ENDBRANCH  22  28
ENDBRANCH  10  19
TORSDOF 6
