REMARK  Name = ZINC28727427
REMARK  10 active torsions:
REMARK  status: ('A' for Active; 'I' for Inactive)
REMARK    1  A    between atoms: C_1  and  C_2
REMARK    2  A    between atoms: C_5  and  N_8
REMARK    3  A    between atoms: C_9  and  C_11
REMARK    4  A    between atoms: C_11  and  N_12
REMARK    5  A    between atoms: N_12  and  C_13
REMARK    6  A    between atoms: N_12  and  C_14
REMARK    7  A    between atoms: C_14  and  C_16
REMARK    8  A    between atoms: C_14  and  C_17
REMARK    9  A    between atoms: C_20  and  S_23
REMARK   10  A    between atoms: S_23  and  N_26
REMARK                            x       y       z     vdW  Elec       q    Type
REMARK                         _______ _______ _______ _____ _____    ______ ____
ROOT
ATOM      1  N   UNL     1       2.296   6.730  -2.312  0.00  0.00    +0.388 N 
ATOM      2  C   UNL     1       1.579   7.681  -1.452  0.00  0.00    -0.095 C 
ATOM      3  H   UNL     1       1.775   6.691  -3.280  0.00  0.00    -0.081 HD
ENDROOT
BRANCH   1   4
ATOM      4  C   UNL     1       3.673   7.177  -2.558  0.00  0.00    -0.041 C 
ATOM      5  C   UNL     1       4.355   6.216  -3.533  0.00  0.00    -0.008 C 
BRANCH   4   6
ATOM      6  C   UNL     1       3.653   8.563  -3.150  0.00  0.00    -0.061 A 
ATOM      7  C   UNL     1       2.702   8.896  -4.097  0.00  0.00    +0.004 A 
ATOM      8  C   UNL     1       2.681  10.169  -4.636  0.00  0.00    +0.029 A 
ATOM      9  C   UNL     1       3.616  11.105  -4.236  0.00  0.00    +0.105 A 
ATOM     10  C   UNL     1       4.569  10.770  -3.293  0.00  0.00    +0.029 A 
ATOM     11  C   UNL     1       4.588   9.499  -2.750  0.00  0.00    +0.004 A 
BRANCH   9  12
ATOM     12  S   UNL     1       3.593  12.725  -4.929  0.00  0.00    +0.056 S 
ATOM     13  O   UNL     1       2.267  12.953  -5.386  0.00  0.00    -0.153 OA
ATOM     14  O   UNL     1       4.232  13.578  -3.989  0.00  0.00    -0.153 OA
BRANCH  12  15
ATOM     15  N   UNL     1       4.558  12.696  -6.274  0.00  0.00    -0.204 NA
ATOM     16  H   UNL     1       4.571  13.693  -6.738  0.00  0.00    +0.144 HD
ATOM     17  H   UNL     1       4.164  11.962  -6.992  0.00  0.00    +0.144 HD
ENDBRANCH  12  15
ENDBRANCH   9  12
ENDBRANCH   4   6
ENDBRANCH   1   4
BRANCH   1  18
ATOM     18  C   UNL     1       2.276   5.380  -1.733  0.00  0.00    +0.019 C 
BRANCH  18  20
ATOM     19  N   UNL     1       0.601   3.630  -1.234  0.00  0.00    -0.314 N 
ATOM     20  C   UNL     1       0.862   4.858  -1.723  0.00  0.00    +0.197 C 
ATOM     21  O   UNL     1      -0.040   5.543  -2.154  0.00  0.00    -0.278 OA
ATOM     22  H   UNL     1       1.420   3.008  -0.842  0.00  0.00    +0.149 HD
BRANCH  19  27
ATOM     23  C   UNL     1       0.011   1.072   2.506  0.00  0.00    +0.007 C 
ATOM     24  C   UNL     1      -0.729   1.579   1.267  0.00  0.00    -0.014 C 
ATOM     25  C   UNL     1      -0.013   1.086   0.008  0.00  0.00    +0.005 C 
ATOM     26  C   UNL     1      -0.753   1.593  -1.232  0.00  0.00    +0.022 C 
ATOM     27  C   UNL     1      -0.773   3.123  -1.223  0.00  0.00    +0.073 C 
ATOM     28  C   UNL     1      -1.490   3.616   0.036  0.00  0.00    +0.022 C 
ATOM     29  C   UNL     1      -0.750   3.109   1.275  0.00  0.00    +0.005 C 
ENDBRANCH  19  27
ENDBRANCH  18  20
ENDBRANCH   1  18
TORSDOF 7
