REMARK  Name = ZINC13474034
REMARK  11 active torsions:
REMARK  status: ('A' for Active; 'I' for Inactive)
REMARK    1  A    between atoms: C_1  and  C_2
REMARK    2  A    between atoms: C_4  and  O_23
REMARK    3  A    between atoms: C_6  and  O_9
REMARK    4  A    between atoms: O_9  and  C_10
REMARK    5  A    between atoms: C_12  and  C_18
REMARK    6  A    between atoms: C_14  and  O_17
REMARK    7  A    between atoms: C_15  and  O_16
REMARK    8  A    between atoms: N_20  and  C_21
REMARK    9  A    between atoms: N_20  and  C_22
REMARK   10  A    between atoms: O_23  and  C_24
REMARK   11  A    between atoms: C_28  and  C_30
REMARK                            x       y       z     vdW  Elec       q    Type
REMARK                         _______ _______ _______ _____ _____    ______ ____
ROOT
ATOM      1  C   UNL     1       5.309   3.070   0.306  0.00  0.00    +0.050 C 
ATOM      2  C   UNL     1       4.719   4.345  -0.239  0.00  0.00    +0.030 A 
ATOM      3  C   UNL     1       4.189   5.303   0.613  0.00  0.00    +0.191 A 
ATOM      4  C   UNL     1       3.653   6.466   0.076  0.00  0.00    +0.260 A 
ATOM      5  N   UNL     1       3.644   6.665  -1.232  0.00  0.00    -0.172 NA
ATOM      6  C   UNL     1       4.141   5.773  -2.073  0.00  0.00    +0.260 A 
ATOM      7  C   UNL     1       4.693   4.587  -1.605  0.00  0.00    +0.191 A 
ATOM      8  F   UNL     1       5.204   3.682  -2.469  0.00  0.00    -0.200 F 
ATOM      9  F   UNL     1       4.194   5.106   1.950  0.00  0.00    -0.200 F 
ENDROOT
BRANCH   6  10
ATOM     10  O   UNL     1       4.111   6.018  -3.408  0.00  0.00    -0.432 OA
BRANCH  10  11
ATOM     11  C   UNL     1       5.231   5.750  -4.131  0.00  0.00    +0.176 A 
ATOM     12  C   UNL     1       5.328   4.568  -4.842  0.00  0.00    +0.063 A 
ATOM     13  C   UNL     1       6.479   4.294  -5.585  0.00  0.00    +0.044 A 
ATOM     14  C   UNL     1       7.529   5.215  -5.609  0.00  0.00    +0.062 A 
ATOM     15  C   UNL     1       7.427   6.396  -4.897  0.00  0.00    +0.163 A 
ATOM     16  C   UNL     1       6.277   6.670  -4.161  0.00  0.00    +0.202 A 
BRANCH  13  17
ATOM     17  C   UNL     1       6.585   3.033  -6.345  0.00  0.00    +0.246 C 
ATOM     18  O   UNL     1       5.622   2.606  -6.953  0.00  0.00    -0.270 OA
ATOM     19  N   UNL     1       7.749   2.353  -6.364  0.00  0.00    -0.304 N 
ATOM     20  C   UNL     1       7.866   1.123  -7.150  0.00  0.00    +0.132 C 
ATOM     21  C   UNL     1       8.897   2.845  -5.598  0.00  0.00    +0.132 C 
ENDBRANCH  13  17
BRANCH  16  22
ATOM     22  O   UNL     1       6.177   7.833  -3.467  0.00  0.00    -0.501 OA
ATOM     23  H   UNL     1       6.511   7.780  -2.561  0.00  0.00    +0.292 HD
ENDBRANCH  16  22
BRANCH  15  24
ATOM     24  O   UNL     1       8.448   7.294  -4.921  0.00  0.00    -0.503 OA
ATOM     25  H   UNL     1       8.382   7.946  -5.631  0.00  0.00    +0.292 HD
ENDBRANCH  15  24
ENDBRANCH  10  11
ENDBRANCH   6  10
BRANCH   4  26
ATOM     26  O   UNL     1       3.132   7.409   0.902  0.00  0.00    -0.436 OA
BRANCH  26  27
ATOM     27  C   UNL     1       1.885   7.201   1.402  0.00  0.00    +0.131 A 
ATOM     28  C   UNL     1       1.726   6.751   2.705  0.00  0.00    +0.046 A 
ATOM     29  C   UNL     1       0.460   6.537   3.218  0.00  0.00    +0.004 A 
ATOM     30  C   UNL     1      -0.654   6.771   2.437  0.00  0.00    +0.011 A 
ATOM     31  C   UNL     1      -0.503   7.224   1.127  0.00  0.00    +0.016 A 
ATOM     32  C   UNL     1       0.774   7.444   0.612  0.00  0.00    +0.057 A 
BRANCH  31  33
ATOM     33  C   UNL     1      -1.696   7.476   0.286  0.00  0.00    +0.094 C 
ATOM     34  N   UNL     1      -2.957   7.396   0.837  0.00  0.00    -0.345 N 
ATOM     35  H   UNL     1      -2.274   7.956  -1.606  0.00  0.00    +0.157 HD
ATOM     36  H   UNL     1      -3.061   7.260   1.792  0.00  0.00    +0.144 HD
ATOM     37  H   UNL     1      -3.740   7.475   0.270  0.00  0.00    +0.144 HD
ATOM     38  N   UNL     1      -1.485   7.774  -0.987  0.00  0.00    -0.387 N 
ATOM     39  H   UNL     1      -0.525   7.822  -1.350  0.00  0.00    +0.157 HD
ENDBRANCH  31  33
ENDBRANCH  26  27
ENDBRANCH   4  26
TORSDOF 8
