REMARK  Name = ZINC54761685
REMARK  9 active torsions:
REMARK  status: ('A' for Active; 'I' for Inactive)
REMARK    1  A    between atoms: C_1  and  N_2
REMARK    2  A    between atoms: N_2  and  C_3
REMARK    3  A    between atoms: N_2  and  C_22
REMARK    4  A    between atoms: C_3  and  C_4
REMARK    5  A    between atoms: C_4  and  N_5
REMARK    6  A    between atoms: N_8  and  C_9
REMARK    7  A    between atoms: C_9  and  C_10
REMARK    8  A    between atoms: N_12  and  C_13
REMARK    9  A    between atoms: C_22  and  C_23
REMARK                            x       y       z     vdW  Elec       q    Type
REMARK                         _______ _______ _______ _____ _____    ______ ____
ROOT
ATOM      1  N   UNL     1      -3.467  -0.583  -1.255  0.00  0.00    -0.301 N 
ATOM      2  C   UNL     1      -4.278  -0.352  -2.307  0.00  0.00    +0.300 C 
ATOM      3  O   UNL     1      -3.872   0.286  -3.259  0.00  0.00    -0.253 OA
ATOM      4  N   UNL     1      -5.538  -0.828  -2.303  0.00  0.00    -0.291 N 
ATOM      5  H   UNL     1      -3.791  -1.091  -0.495  0.00  0.00    +0.150 HD
ATOM      6  H   UNL     1      -5.862  -1.336  -1.543  0.00  0.00    +0.151 HD
ENDROOT
BRANCH   1   7
ATOM      7  C   UNL     1      -2.096  -0.065  -1.260  0.00  0.00    +0.087 C 
BRANCH   7   8
ATOM      8  C   UNL     1      -1.396  -0.465   0.041  0.00  0.00    -0.060 C 
BRANCH   8  10
ATOM      9  C   UNL     1      -0.052   1.523   0.046  0.00  0.00    -0.096 C 
ATOM     10  N   UNL     1      -0.022   0.054   0.036  0.00  0.00    +0.382 N 
ATOM     11  H   UNL     1       0.456  -0.267  -0.793  0.00  0.00    -0.082 HD
BRANCH  10  12
ATOM     12  C   UNL     1       0.688  -0.429   1.228  0.00  0.00    -0.043 C 
BRANCH  12  13
ATOM     13  C   UNL     1       2.131   0.000   1.162  0.00  0.00    -0.064 A 
ATOM     14  C   UNL     1       3.067  -0.814   0.552  0.00  0.00    +0.002 A 
ATOM     15  C   UNL     1       4.391  -0.420   0.492  0.00  0.00    +0.000 A 
ATOM     16  C   UNL     1       4.778   0.788   1.041  0.00  0.00    +0.000 A 
ATOM     17  C   UNL     1       3.842   1.603   1.650  0.00  0.00    +0.000 A 
ATOM     18  C   UNL     1       2.517   1.211   1.707  0.00  0.00    +0.002 A 
ENDBRANCH  12  13
ENDBRANCH  10  12
ENDBRANCH   8  10
ENDBRANCH   7   8
ENDBRANCH   1   7
BRANCH   4  19
ATOM     19  C   UNL     1      -6.420  -0.577  -3.446  0.00  0.00    +0.202 C 
BRANCH  19  20
ATOM     20  C   UNL     1      -7.764  -1.210  -3.193  0.00  0.00    +0.234 C 
ATOM     21  O   UNL     1      -7.965  -1.812  -2.159  0.00  0.00    -0.274 OA
ATOM     22  N   UNL     1      -8.741  -1.108  -4.115  0.00  0.00    -0.282 N 
ATOM     23  H   UNL     1      -8.602  -0.573  -4.912  0.00  0.00    +0.155 HD
BRANCH  22  24
ATOM     24  C   UNL     1      -9.959  -1.775  -3.922  0.00  0.00    +0.072 A 
ATOM     25  C   UNL     1     -10.479  -1.917  -2.643  0.00  0.00    +0.029 A 
ATOM     26  C   UNL     1     -11.679  -2.575  -2.453  0.00  0.00    +0.043 A 
ATOM     27  C   UNL     1     -12.365  -3.094  -3.538  0.00  0.00    +0.161 A 
ATOM     28  C   UNL     1     -11.849  -2.955  -4.817  0.00  0.00    +0.195 A 
ATOM     29  C   UNL     1     -10.650  -2.291  -5.012  0.00  0.00    +0.182 A 
ATOM     30  F   UNL     1     -10.149  -2.149  -6.259  0.00  0.00    -0.200 F 
ATOM     31  F   UNL     1     -12.520  -3.462  -5.875  0.00  0.00    -0.199 F 
ATOM     32  F   UNL     1     -13.538  -3.737  -3.349  0.00  0.00    -0.202 F 
ENDBRANCH  22  24
ENDBRANCH  19  20
ENDBRANCH   4  19
TORSDOF 8
