REMARK  Name = ZINC67603169
REMARK  17 active torsions:
REMARK  status: ('A' for Active; 'I' for Inactive)
REMARK    1  A    between atoms: C_1  and  C_2
REMARK    2  A    between atoms: C_2  and  C_3
REMARK    3  A    between atoms: C_3  and  C_4
REMARK    4  A    between atoms: C_3  and  C_6
REMARK    5  A    between atoms: C_3  and  N_25
REMARK    6  A    between atoms: C_4  and  C_5
REMARK    7  A    between atoms: C_6  and  N_7
REMARK    8  A    between atoms: N_10  and  C_11
REMARK    9  A    between atoms: C_11  and  C_12
REMARK   10  A    between atoms: C_12  and  C_14
REMARK   11  A    between atoms: C_12  and  O_24
REMARK   12  A    between atoms: C_14  and  O_15
REMARK   13  A    between atoms: O_15  and  C_16
REMARK   14  A    between atoms: C_17  and  C_23
REMARK   15  A    between atoms: C_21  and  C_22
REMARK   16  A    between atoms: N_25  and  C_26
REMARK   17  A    between atoms: N_25  and  C_27
REMARK                            x       y       z     vdW  Elec       q    Type
REMARK                         _______ _______ _______ _____ _____    ______ ____
ROOT
ATOM      1  N   UNL     1       2.969  -0.325   2.602  0.00  0.00    -0.301 N 
ATOM      2  C   UNL     1       4.205   0.101   2.927  0.00  0.00    +0.300 C 
ATOM      3  O   UNL     1       4.798   0.866   2.191  0.00  0.00    -0.253 OA
ATOM      4  N   UNL     1       4.785  -0.320   4.069  0.00  0.00    -0.297 N 
ATOM      5  H   UNL     1       2.496  -0.935   3.190  0.00  0.00    +0.150 HD
ATOM      6  H   UNL     1       4.312  -0.930   4.656  0.00  0.00    +0.150 HD
ENDROOT
BRANCH   1   7
ATOM      7  C   UNL     1       2.339   0.134   1.362  0.00  0.00    +0.094 C 
BRANCH   7   8
ATOM      8  C   UNL     1       0.894  -0.368   1.308  0.00  0.00    -0.051 C 
BRANCH   8   9
ATOM      9  N   UNL     1       0.872  -1.821   1.518  0.00  0.00    +0.381 N 
ATOM     10  C   UNL     1      -0.499  -2.320   1.350  0.00  0.00    -0.096 C 
ATOM     11  C   UNL     1       1.754  -2.471   0.539  0.00  0.00    -0.096 C 
ATOM     12  H   UNL     1       1.194  -2.031   2.451  0.00  0.00    -0.082 HD
ENDBRANCH   8   9
BRANCH   8  14
ATOM     13  C   UNL     1       0.583  -0.128   3.775  0.00  0.00    +0.002 C 
ATOM     14  C   UNL     1       0.075   0.318   2.403  0.00  0.00    -0.014 C 
ENDBRANCH   8  14
BRANCH   8  15
ATOM     15  C   UNL     1       0.292  -0.042  -0.060  0.00  0.00    -0.014 C 
ATOM     16  C   UNL     1       0.431   1.457  -0.335  0.00  0.00    +0.002 C 
ENDBRANCH   8  15
ENDBRANCH   7   8
ENDBRANCH   1   7
BRANCH   4  17
ATOM     17  C   UNL     1       6.129   0.143   4.422  0.00  0.00    +0.140 C 
BRANCH  17  18
ATOM     18  C   UNL     1       6.550  -0.480   5.755  0.00  0.00    +0.169 C 
BRANCH  18  19
ATOM     19  O   UNL     1       6.665  -1.897   5.603  0.00  0.00    -0.387 OA
ATOM     20  H   UNL     1       7.317  -2.169   4.942  0.00  0.00    +0.210 HD
ENDBRANCH  18  19
BRANCH  18  21
ATOM     21  C   UNL     1       7.899   0.098   6.185  0.00  0.00    +0.261 C 
BRANCH  21  22
ATOM     22  O   UNL     1       8.236  -0.395   7.483  0.00  0.00    -0.489 OA
BRANCH  22  23
ATOM     23  C   UNL     1       9.413   0.026   8.017  0.00  0.00    +0.126 A 
ATOM     24  C   UNL     1      10.578  -0.691   7.783  0.00  0.00    -0.009 A 
ATOM     25  C   UNL     1      11.773  -0.262   8.326  0.00  0.00    +0.007 A 
ATOM     26  C   UNL     1      11.809   0.882   9.101  0.00  0.00    +0.001 A 
ATOM     27  C   UNL     1      10.650   1.599   9.336  0.00  0.00    +0.007 A 
ATOM     28  C   UNL     1       9.454   1.177   8.790  0.00  0.00    -0.009 A 
ATOM     29  C   UNL     1       8.192   1.961   9.041  0.00  0.00    +0.047 C 
ATOM     30  C   UNL     1      10.538  -1.939   6.939  0.00  0.00    +0.047 C 
ENDBRANCH  22  23
ENDBRANCH  21  22
ENDBRANCH  18  21
ENDBRANCH  17  18
ENDBRANCH   4  17
TORSDOF 11
