REMARK  Name = ZINC45064633
REMARK  11 active torsions:
REMARK  status: ('A' for Active; 'I' for Inactive)
REMARK    1  A    between atoms: C_1  and  C_2
REMARK    2  A    between atoms: C_2  and  C_3
REMARK    3  A    between atoms: C_2  and  C_4
REMARK    4  A    between atoms: C_2  and  C_5
REMARK    5  A    between atoms: C_5  and  N_6
REMARK    6  A    between atoms: N_6  and  C_7
REMARK    7  A    between atoms: N_6  and  C_8
REMARK    8  A    between atoms: C_8  and  C_9
REMARK    9  A    between atoms: C_9  and  C_10
REMARK   10  A    between atoms: N_12  and  C_13
REMARK   11  A    between atoms: C_14  and  N_21
REMARK                            x       y       z     vdW  Elec       q    Type
REMARK                         _______ _______ _______ _____ _____    ______ ____
ROOT
ATOM      1  C   UNL     1       5.932  -0.749  -1.558  0.00  0.00    +0.215 C 
ATOM      2  O   UNL     1       5.990  -1.530  -2.484  0.00  0.00    -0.276 OA
ATOM      3  N   UNL     1       7.045  -0.114  -1.142  0.00  0.00    -0.283 N 
ATOM      4  H   UNL     1       7.009   0.473  -0.370  0.00  0.00    +0.155 HD
ENDROOT
BRANCH   3   5
ATOM      5  C   UNL     1       8.256  -0.300  -1.825  0.00  0.00    +0.073 A 
ATOM      6  C   UNL     1       9.438  -0.499  -1.111  0.00  0.00    +0.049 A 
ATOM      7  C   UNL     1      10.632  -0.683  -1.792  0.00  0.00    +0.044 A 
ATOM      8  C   UNL     1      10.649  -0.671  -3.175  0.00  0.00    +0.044 A 
ATOM      9  C   UNL     1       9.477  -0.474  -3.883  0.00  0.00    +0.042 A 
ATOM     10  C   UNL     1       8.280  -0.295  -3.212  0.00  0.00    +0.065 A 
ATOM     11 CL   UNL     1       6.811  -0.056  -4.105  0.00  0.00    -0.082 Cl
ATOM     12 CL   UNL     1      12.145  -0.902  -4.025  0.00  0.00    -0.083 Cl
BRANCH   6  13
ATOM     13  N   UNL     1       9.419  -0.510   0.287  0.00  0.00    -0.356 N 
ATOM     14  H   UNL     1       8.583  -0.381   0.762  0.00  0.00    +0.142 HD
ATOM     15  H   UNL     1      10.241  -0.648   0.783  0.00  0.00    +0.142 HD
ENDBRANCH   6  13
ENDBRANCH   3   5
BRANCH   1  16
ATOM     16  C   UNL     1       4.615  -0.488  -0.874  0.00  0.00    +0.077 C 
BRANCH  16  17
ATOM     17  C   UNL     1       3.521  -1.329  -1.535  0.00  0.00    -0.070 C 
BRANCH  17  18
ATOM     18  N   UNL     1       2.237  -1.074  -0.868  0.00  0.00    +0.378 N 
ATOM     19  C   UNL     1       1.840   0.323  -1.087  0.00  0.00    -0.096 C 
ATOM     20  H   UNL     1       2.333  -1.245   0.122  0.00  0.00    -0.082 HD
BRANCH  18  21
ATOM     21  C   UNL     1       1.212  -1.968  -1.422  0.00  0.00    -0.073 C 
BRANCH  21  23
ATOM     22  C   UNL     1      -0.711  -0.690  -0.466  0.00  0.00    +0.009 C 
ATOM     23  C   UNL     1       0.021  -2.034  -0.463  0.00  0.00    -0.053 C 
ATOM     24  C   UNL     1       0.520  -2.340   0.950  0.00  0.00    +0.009 C 
ATOM     25  C   UNL     1      -0.937  -3.138  -0.916  0.00  0.00    +0.009 C 
ENDBRANCH  21  23
ENDBRANCH  18  21
ENDBRANCH  17  18
ENDBRANCH  16  17
ENDBRANCH   1  16
TORSDOF 7
