REMARK  Name = ZINC23478562
REMARK  8 active torsions:
REMARK  status: ('A' for Active; 'I' for Inactive)
REMARK    1  A    between atoms: C_1  and  C_2
REMARK    2  A    between atoms: N_6  and  C_7
REMARK    3  A    between atoms: C_7  and  C_8
REMARK    4  A    between atoms: C_7  and  C_9
REMARK    5  A    between atoms: N_13  and  C_14
REMARK    6  A    between atoms: C_14  and  C_15
REMARK    7  A    between atoms: C_15  and  N_16
REMARK    8  A    between atoms: C_20  and  C_23
REMARK                            x       y       z     vdW  Elec       q    Type
REMARK                         _______ _______ _______ _____ _____    ______ ____
ROOT
ATOM      1  C   UNL     1      -5.957  -2.976   0.041  0.00  0.00    +0.088 C 
ATOM      2  C   UNL     1      -4.463  -3.173   0.026  0.00  0.00    +0.127 A 
ATOM      3  N   UNL     1      -3.564  -2.222   0.024  0.00  0.00    -0.199 NA
ATOM      4  C   UNL     1      -2.339  -2.757   0.010  0.00  0.00    +0.242 A 
ATOM      5  N   UNL     1      -2.450  -4.064  -0.002  0.00  0.00    -0.133 NA
ATOM      6  N   UNL     1      -3.824  -4.355   0.014  0.00  0.00    -0.245 N 
ATOM      7  N   UNL     1      -1.137  -2.041   0.002  0.00  0.00    -0.237 N 
ATOM      8  C   UNL     1      -1.156  -0.694   0.009  0.00  0.00    +0.306 C 
ATOM      9  O   UNL     1      -2.217  -0.100   0.023  0.00  0.00    -0.252 OA
ATOM     10  N   UNL     1       0.002  -0.004   0.002  0.00  0.00    -0.301 N 
ATOM     11  H   UNL     1      -0.178  -2.578  -0.010  0.00  0.00    +0.159 HD
ATOM     12  H   UNL     1       0.962  -0.541  -0.010  0.00  0.00    +0.150 HD
ENDROOT
BRANCH   6  13
ATOM     13  C   UNL     1      -4.439  -5.684   0.012  0.00  0.00    +0.103 C 
ATOM     14  C   UNL     1      -4.010  -6.443  -1.245  0.00  0.00    +0.032 C 
ATOM     15  C   UNL     1      -3.987  -6.457   1.253  0.00  0.00    +0.032 C 
ENDBRANCH   6  13
BRANCH  10  16
ATOM     16  C   UNL     1      -0.018   1.461   0.010  0.00  0.00    +0.087 C 
BRANCH  16  17
ATOM     17  C   UNL     1       1.418   1.990  -0.001  0.00  0.00    -0.060 C 
BRANCH  17  18
ATOM     18  N   UNL     1       1.398   3.459   0.007  0.00  0.00    +0.381 N 
ATOM     19  C   UNL     1       0.846   3.971   1.268  0.00  0.00    -0.079 C 
ATOM     20  C   UNL     1       0.975   5.496   1.301  0.00  0.00    -0.018 C 
ATOM     21  C   UNL     1       0.218   6.093   0.112  0.00  0.00    +0.009 C 
ATOM     22  C   UNL     1       0.779   5.507  -1.187  0.00  0.00    +0.058 C 
ATOM     23  C   UNL     1       0.656   3.982  -1.148  0.00  0.00    -0.066 C 
ATOM     24  H   UNL     1       2.436   3.813  -0.072  0.00  0.00    -0.082 HD
BRANCH  22  25
ATOM     25  C   UNL     1       0.001   6.044  -2.360  0.00  0.00    +0.212 C 
ATOM     26  O   UNL     1      -0.592   5.283  -3.095  0.00  0.00    -0.276 OA
ATOM     27  N   UNL     1      -0.038   7.371  -2.592  0.00  0.00    -0.329 N 
ATOM     28  H   UNL     1      -0.606   7.764  -3.448  0.00  0.00    +0.145 HD
ATOM     29  H   UNL     1       0.499   8.062  -1.925  0.00  0.00    +0.145 HD
ENDBRANCH  22  25
ENDBRANCH  17  18
ENDBRANCH  16  17
ENDBRANCH  10  16
TORSDOF 5
