REMARK  Name = ZINC48214775
REMARK  8 active torsions:
REMARK  status: ('A' for Active; 'I' for Inactive)
REMARK    1  A    between atoms: C_1  and  C_2
REMARK    2  A    between atoms: C_2  and  C_3
REMARK    3  A    between atoms: N_9  and  C_10
REMARK    4  A    between atoms: C_10  and  C_11
REMARK    5  A    between atoms: N_13  and  C_14
REMARK    6  A    between atoms: C_14  and  C_15
REMARK    7  A    between atoms: C_18  and  S_21
REMARK    8  A    between atoms: S_21  and  N_24
REMARK                            x       y       z     vdW  Elec       q    Type
REMARK                         _______ _______ _______ _____ _____    ______ ____
ROOT
ATOM      1  C   UNL     1      -2.443   1.986   2.641  0.00  0.00    +0.197 C 
ATOM      2  O   UNL     1      -2.869   1.184   3.444  0.00  0.00    -0.278 OA
ATOM      3  N   UNL     1      -2.386   3.294   2.960  0.00  0.00    -0.313 N 
ATOM      4  H   UNL     1      -2.046   3.936   2.317  0.00  0.00    +0.149 HD
ENDROOT
BRANCH   1   5
ATOM      5  C   UNL     1      -1.976   1.520   1.286  0.00  0.00    +0.019 C 
BRANCH   5  11
ATOM      6  C   UNL     1      -1.534  -0.410  -0.065  0.00  0.00    -0.068 C 
ATOM      7  C   UNL     1      -1.629  -1.936  -0.135  0.00  0.00    -0.015 C 
ATOM      8  C   UNL     1      -3.102  -2.353  -0.088  0.00  0.00    -0.003 C 
ATOM      9  C   UNL     1      -3.741  -1.790   1.185  0.00  0.00    -0.019 C 
ATOM     10  C   UNL     1      -3.568  -0.270   1.206  0.00  0.00    -0.078 C 
ATOM     11  N   UNL     1      -2.139   0.063   1.186  0.00  0.00    +0.387 N 
ATOM     12  H   UNL     1      -1.680  -0.379   1.969  0.00  0.00    -0.081 HD
BRANCH   6  14
ATOM     13  C   UNL     1       0.537  -0.386  -1.461  0.00  0.00    +0.002 C 
ATOM     14  C   UNL     1      -0.065   0.011  -0.112  0.00  0.00    -0.019 C 
ENDBRANCH   6  14
ENDBRANCH   5  11
ENDBRANCH   1   5
BRANCH   3  15
ATOM     15  C   UNL     1      -2.840   3.747   4.277  0.00  0.00    +0.139 C 
BRANCH  15  16
ATOM     16  C   UNL     1      -2.673   5.241   4.380  0.00  0.00    -0.030 A 
ATOM     17  C   UNL     1      -1.489   5.774   4.854  0.00  0.00    +0.007 A 
ATOM     18  C   UNL     1      -1.336   7.144   4.948  0.00  0.00    +0.029 A 
ATOM     19  C   UNL     1      -2.367   7.983   4.567  0.00  0.00    +0.105 A 
ATOM     20  C   UNL     1      -3.550   7.450   4.091  0.00  0.00    +0.029 A 
ATOM     21  C   UNL     1      -3.702   6.080   3.993  0.00  0.00    +0.007 A 
BRANCH  19  22
ATOM     22  S   UNL     1      -2.172   9.730   4.688  0.00  0.00    +0.056 S 
ATOM     23  O   UNL     1      -3.479  10.278   4.782  0.00  0.00    -0.153 OA
ATOM     24  O   UNL     1      -1.176   9.960   5.674  0.00  0.00    -0.153 OA
BRANCH  22  25
ATOM     25  N   UNL     1      -1.542  10.253   3.248  0.00  0.00    -0.204 NA
ATOM     26  H   UNL     1      -1.747  11.144   2.924  0.00  0.00    +0.144 HD
ATOM     27  H   UNL     1      -0.968   9.668   2.729  0.00  0.00    +0.144 HD
ENDBRANCH  22  25
ENDBRANCH  19  22
ENDBRANCH  15  16
ENDBRANCH   3  15
TORSDOF 7
