REMARK  Name = ZINC40824993
REMARK  5 active torsions:
REMARK  status: ('A' for Active; 'I' for Inactive)
REMARK    1  A    between atoms: C_1  and  C_2
REMARK    2  A    between atoms: C_6  and  C_7
REMARK    3  A    between atoms: C_7  and  O_9
REMARK    4  A    between atoms: O_9  and  C_10
REMARK    5  A    between atoms: N_20  and  N_21
REMARK                            x       y       z     vdW  Elec       q    Type
REMARK                         _______ _______ _______ _____ _____    ______ ____
ROOT
ATOM      1  C   UNL     1       0.103   1.494   0.003  0.00  0.00    +0.048 C 
ATOM      2  C   UNL     1       0.077  -0.013  -0.002  0.00  0.00    +0.011 A 
ATOM      3  C   UNL     1       0.069  -0.850  -1.123  0.00  0.00    +0.043 A 
ATOM      4  C   UNL     1       0.042  -2.148  -0.670  0.00  0.00    +0.115 A 
ATOM      5  O   UNL     1       0.037  -2.119   0.660  0.00  0.00    -0.452 OA
ATOM      6  C   UNL     1       0.063  -0.837   1.090  0.00  0.00    +0.215 A 
ATOM      7  C   UNL     1       0.020  -3.339  -1.595  0.00  0.00    +0.075 C 
ATOM      8  C   UNL     1      -0.478  -2.902  -2.975  0.00  0.00    +0.014 C 
ATOM      9  C   UNL     1       0.336  -1.711  -3.491  0.00  0.00    +0.058 C 
ATOM     10  C   UNL     1       0.085  -0.527  -2.568  0.00  0.00    +0.072 C 
ATOM     11  N   UNL     1      -0.100   0.676  -3.014  0.00  0.00    -0.175 NA
ENDROOT
BRANCH  11  12
ATOM     12  N   UNL     1      -0.074   0.924  -4.393  0.00  0.00    -0.248 N 
ATOM     13  C   UNL     1      -0.269   2.195  -4.864  0.00  0.00    +0.187 C 
ATOM     14  N   UNL     1      -0.244   2.430  -6.176  0.00  0.00    -0.370 N 
ATOM     15  N   UNL     1      -0.484   3.196  -4.012  0.00  0.00    -0.370 N 
ATOM     16  H   UNL     1       0.083   0.195  -5.014  0.00  0.00    +0.192 HD
ATOM     17  H   UNL     1      -0.087   1.701  -6.797  0.00  0.00    +0.159 HD
ATOM     18  H   UNL     1      -0.503   3.024  -3.057  0.00  0.00    +0.159 HD
ATOM     19  H   UNL     1      -0.623   4.096  -4.346  0.00  0.00    +0.159 HD
ATOM     20  H   UNL     1      -0.383   3.330  -6.510  0.00  0.00    +0.159 HD
ENDBRANCH  11  12
BRANCH   6  21
ATOM     21  C   UNL     1       0.070  -0.404   2.490  0.00  0.00    +0.380 C 
ATOM     22  O   UNL     1       0.090   0.782   2.759  0.00  0.00    -0.241 OA
BRANCH  21  23
ATOM     23  O   UNL     1       0.054  -1.320   3.480  0.00  0.00    -0.419 OA
BRANCH  23  24
ATOM     24  C   UNL     1       0.165  -0.878   4.761  0.00  0.00    +0.150 A 
ATOM     25  C   UNL     1      -0.926  -0.303   5.405  0.00  0.00    +0.049 A 
ATOM     26  C   UNL     1      -0.764   0.132   6.711  0.00  0.00    +0.023 A 
ATOM     27  C   UNL     1       0.465  -0.018   7.325  0.00  0.00    +0.111 A 
ATOM     28  N   UNL     1       1.479  -0.567   6.685  0.00  0.00    -0.260 NA
ATOM     29  C   UNL     1       1.365  -0.999   5.445  0.00  0.00    +0.157 A 
ENDBRANCH  23  24
ENDBRANCH  21  23
ENDBRANCH   6  21
TORSDOF 4
