REMARK  Name = ZINC60036752
REMARK  8 active torsions:
REMARK  status: ('A' for Active; 'I' for Inactive)
REMARK    1  A    between atoms: C_1  and  C_2
REMARK    2  A    between atoms: C_5  and  S_7
REMARK    3  A    between atoms: S_7  and  C_8
REMARK    4  A    between atoms: C_11  and  N_14
REMARK    5  A    between atoms: N_17  and  C_18
REMARK    6  A    between atoms: C_18  and  C_19
REMARK    7  A    between atoms: C_19  and  C_21
REMARK    8  A    between atoms: C_19  and  N_26
REMARK                            x       y       z     vdW  Elec       q    Type
REMARK                         _______ _______ _______ _____ _____    ______ ____
ROOT
ATOM      1  N   UNL     1       0.541  -8.664   0.401  0.00  0.00    -0.269 N 
ATOM      2  C   UNL     1       0.299  -9.714   1.210  0.00  0.00    +0.304 C 
ATOM      3  O   UNL     1       0.090  -9.533   2.394  0.00  0.00    -0.253 OA
ATOM      4  N   UNL     1       0.289 -10.964   0.708  0.00  0.00    -0.300 N 
ATOM      5  H   UNL     1       0.778  -8.812  -0.528  0.00  0.00    +0.156 HD
ATOM      6  H   UNL     1       0.456 -11.109  -0.236  0.00  0.00    +0.150 HD
ENDROOT
BRANCH   1  10
ATOM      7  C   UNL     1       0.270  -4.777   1.888  0.00  0.00    +0.015 A 
ATOM      8  C   UNL     1      -0.121  -5.050   0.583  0.00  0.00    +0.017 A 
ATOM      9  C   UNL     1      -0.031  -6.337   0.091  0.00  0.00    +0.024 A 
ATOM     10  C   UNL     1       0.450  -7.358   0.900  0.00  0.00    +0.035 A 
ATOM     11  C   UNL     1       0.840  -7.085   2.205  0.00  0.00    +0.024 A 
ATOM     12  C   UNL     1       0.755  -5.797   2.695  0.00  0.00    +0.017 A 
BRANCH   7  13
ATOM     13  S   UNL     1       0.155  -3.134   2.516  0.00  0.00    -0.063 S 
BRANCH  13  18
ATOM     14  C   UNL     1      -3.720  -1.158   5.448  0.00  0.00    +0.066 C 
ATOM     15  C   UNL     1      -3.112  -2.263   4.623  0.00  0.00    +0.047 A 
ATOM     16  C   UNL     1      -3.760  -3.437   4.425  0.00  0.00    +0.070 A 
ATOM     17  S   UNL     1      -2.575  -4.304   3.409  0.00  0.00    -0.069 S 
ATOM     18  C   UNL     1      -1.399  -3.102   3.344  0.00  0.00    +0.139 A 
ATOM     19  N   UNL     1      -1.926  -2.128   4.058  0.00  0.00    -0.238 NA
ENDBRANCH  13  18
ENDBRANCH   7  13
ENDBRANCH   1  10
BRANCH   4  20
ATOM     20  C   UNL     1       0.027 -12.105   1.589  0.00  0.00    +0.098 C 
BRANCH  20  21
ATOM     21  C   UNL     1       0.190 -13.406   0.800  0.00  0.00    +0.016 C 
BRANCH  21  22
ATOM     22  N   UNL     1       0.040 -14.551   1.708  0.00  0.00    +0.387 N 
ATOM     23  C   UNL     1       0.362 -15.815   0.996  0.00  0.00    -0.078 C 
ATOM     24  C   UNL     1       0.710 -16.791   2.148  0.00  0.00    -0.020 C 
ATOM     25  C   UNL     1       1.462 -15.888   3.152  0.00  0.00    -0.020 C 
ATOM     26  C   UNL     1       1.014 -14.454   2.817  0.00  0.00    -0.078 C 
ATOM     27  H   UNL     1      -0.900 -14.586   2.072  0.00  0.00    -0.081 HD
ENDBRANCH  21  22
BRANCH  21  28
ATOM     28  C   UNL     1      -0.863 -13.477  -0.276  0.00  0.00    +0.093 A 
ATOM     29  C   UNL     1      -0.678 -13.190  -1.577  0.00  0.00    +0.043 A 
ATOM     30  C   UNL     1      -1.921 -13.389  -2.221  0.00  0.00    +0.041 A 
ATOM     31  C   UNL     1      -2.791 -13.786  -1.275  0.00  0.00    +0.195 A 
ATOM     32  O   UNL     1      -2.143 -13.844  -0.100  0.00  0.00    -0.469 OA
ENDBRANCH  21  28
ENDBRANCH  20  21
ENDBRANCH   4  20
TORSDOF 7
