REMARK  Name = ZINC08917841
REMARK  16 active torsions:
REMARK  status: ('A' for Active; 'I' for Inactive)
REMARK    1  A    between atoms: C_1  and  C_2
REMARK    2  A    between atoms: C_2  and  C_3
REMARK    3  A    between atoms: C_3  and  C_4
REMARK    4  A    between atoms: C_4  and  C_5
REMARK    5  A    between atoms: C_5  and  C_7
REMARK    6  A    between atoms: C_5  and  C_9
REMARK    7  A    between atoms: C_7  and  C_8
REMARK    8  A    between atoms: C_9  and  N_10
REMARK    9  A    between atoms: C_11  and  C_13
REMARK   10  A    between atoms: C_13  and  N_77
REMARK   11  A    between atoms: C_16  and  O_35
REMARK   12  A    between atoms: C_23  and  C_25
REMARK   13  A    between atoms: C_28  and  O_33
REMARK   14  A    between atoms: C_30  and  O_31
REMARK   15  A    between atoms: O_31  and  C_32
REMARK   16  A    between atoms: O_33  and  C_34
REMARK                            x       y       z     vdW  Elec       q    Type
REMARK                         _______ _______ _______ _____ _____    ______ ____
ROOT
ATOM      1  C   UNL     1       0.064  -7.835  -4.616  0.00  0.00    -0.075 C 
ATOM      2  C   UNL     1      -0.089  -9.357  -4.580  0.00  0.00    +0.016 C 
ATOM      3  C   UNL     1       0.506  -9.953  -5.860  0.00  0.00    +0.066 C 
ATOM      4  C   UNL     1      -0.261  -9.425  -7.075  0.00  0.00    +0.035 C 
ATOM      5  C   UNL     1       0.348 -10.001  -8.355  0.00  0.00    +0.003 C 
ATOM      6  C   UNL     1       1.813  -9.574  -8.458  0.00  0.00    +0.000 C 
ATOM      7  C   UNL     1       2.579 -10.093  -7.254  0.00  0.00    +0.005 C 
ATOM      8  C   UNL     1       1.976  -9.538  -5.965  0.00  0.00    +0.011 C 
ATOM      9  C   UNL     1       2.071  -8.011  -5.964  0.00  0.00    -0.028 C 
ATOM     10  N   UNL     1       1.500  -7.496  -4.701  0.00  0.00    +0.390 N 
ATOM     11  H   UNL     1       1.992  -7.932  -3.912  0.00  0.00    -0.080 HD
ENDROOT
BRANCH   9  12
ATOM     12  C   UNL     1       3.518  -7.598  -6.051  0.00  0.00    -0.019 A 
ATOM     13  C   UNL     1       4.022  -7.095  -7.236  0.00  0.00    +0.009 A 
ATOM     14  C   UNL     1       5.348  -6.715  -7.319  0.00  0.00    +0.046 A 
ATOM     15  C   UNL     1       6.176  -6.838  -6.212  0.00  0.00    +0.124 A 
ATOM     16  C   UNL     1       5.673  -7.342  -5.023  0.00  0.00    +0.091 A 
ATOM     17  C   UNL     1       4.341  -7.718  -4.941  0.00  0.00    +0.125 A 
BRANCH  17  18
ATOM     18  O   UNL     1       3.843  -8.207  -3.775  0.00  0.00    -0.495 OA
ATOM     19  C   UNL     1       4.748  -8.303  -2.673  0.00  0.00    +0.277 C 
ENDBRANCH  17  18
BRANCH  15  20
ATOM     20  O   UNL     1       7.481  -6.464  -6.295  0.00  0.00    -0.495 OA
ATOM     21  C   UNL     1       7.931  -5.954  -7.551  0.00  0.00    +0.277 C 
ENDBRANCH  15  20
ENDBRANCH   9  12
BRANCH   3  22
ATOM     22  O   UNL     1       0.412 -11.378  -5.816  0.00  0.00    -0.388 OA
ATOM     23  H   UNL     1      -0.494 -11.711  -5.749  0.00  0.00    +0.210 HD
ENDBRANCH   3  22
BRANCH  10  24
ATOM     24  C   UNL     1       1.678  -6.032  -4.627  0.00  0.00    +0.019 C 
BRANCH  24  26
ATOM     25  N   UNL     1       0.969  -4.007  -5.858  0.00  0.00    -0.317 N 
ATOM     26  C   UNL     1       0.934  -5.350  -5.745  0.00  0.00    +0.196 C 
ATOM     27  O   UNL     1       0.303  -6.009  -6.544  0.00  0.00    -0.278 OA
ATOM     28  H   UNL     1       1.474  -3.480  -5.219  0.00  0.00    +0.149 HD
BRANCH  25  29
ATOM     29  C   UNL     1       0.245  -3.344  -6.946  0.00  0.00    +0.107 C 
BRANCH  29  30
ATOM     30  C   UNL     1       0.342  -1.827  -6.772  0.00  0.00    +0.006 C 
BRANCH  30  31
ATOM     31  C   UNL     1      -0.334  -1.419  -5.462  0.00  0.00    +0.002 C 
ATOM     32  C   UNL     1      -1.827  -1.748  -5.535  0.00  0.00    +0.004 C 
ENDBRANCH  30  31
BRANCH  30  33
ATOM     33  C   UNL     1      -0.356  -1.134  -7.944  0.00  0.00    +0.005 C 
BRANCH  33  34
ATOM     34  C   UNL     1      -0.152   0.379  -7.837  0.00  0.00    +0.000 C 
BRANCH  34  36
ATOM     35  C   UNL     1      -0.646   2.584  -8.902  0.00  0.00    +0.004 C 
ATOM     36  C   UNL     1      -0.850   1.071  -9.009  0.00  0.00    -0.003 C 
ENDBRANCH  34  36
ENDBRANCH  33  34
ENDBRANCH  30  33
ENDBRANCH  29  30
ENDBRANCH  25  29
ENDBRANCH  24  26
ENDBRANCH  10  24
TORSDOF 12
