REMARK  Name = ZINC39142936
REMARK  11 active torsions:
REMARK  status: ('A' for Active; 'I' for Inactive)
REMARK    1  A    between atoms: C_1  and  C_2
REMARK    2  A    between atoms: C_2  and  C_3
REMARK    3  A    between atoms: C_3  and  C_4
REMARK    4  A    between atoms: C_4  and  C_5
REMARK    5  A    between atoms: C_5  and  N_6
REMARK    6  A    between atoms: C_13  and  O_38
REMARK    7  A    between atoms: C_15  and  C_19
REMARK    8  A    between atoms: N_21  and  N_22
REMARK    9  A    between atoms: C_23  and  C_24
REMARK   10  A    between atoms: C_23  and  C_25
REMARK   11  A    between atoms: C_27  and  O_37
REMARK                            x       y       z     vdW  Elec       q    Type
REMARK                         _______ _______ _______ _____ _____    ______ ____
ROOT
ATOM      1  C   UNL     1      -0.147  -6.668  -1.834  0.00  0.00    +0.247 C 
ATOM      2  O   UNL     1       0.501  -7.378  -1.094  0.00  0.00    -0.273 OA
ATOM      3  N   UNL     1      -1.409  -6.325  -1.506  0.00  0.00    -0.206 N 
ATOM      4  H   UNL     1      -1.927  -5.757  -2.098  0.00  0.00    +0.177 HD
ENDROOT
BRANCH   1  13
ATOM      5  N   UNL     1       1.475  -3.986  -2.532  0.00  0.00    -0.270 N 
ATOM      6  C   UNL     1       2.538  -4.669  -1.934  0.00  0.00    +0.042 A 
ATOM      7  C   UNL     1       3.357  -4.022  -1.018  0.00  0.00    +0.024 A 
ATOM      8  C   UNL     1       4.406  -4.703  -0.431  0.00  0.00    +0.002 A 
ATOM      9  C   UNL     1       4.640  -6.027  -0.754  0.00  0.00    +0.000 A 
ATOM     10  C   UNL     1       3.826  -6.674  -1.665  0.00  0.00    +0.008 A 
ATOM     11  C   UNL     1       2.776  -5.998  -2.256  0.00  0.00    +0.003 A 
ATOM     12  C   UNL     1       1.887  -6.700  -3.249  0.00  0.00    +0.167 C 
ATOM     13  C   UNL     1       0.459  -6.169  -3.121  0.00  0.00    +0.195 C 
ATOM     14  C   UNL     1       0.467  -4.664  -3.110  0.00  0.00    +0.235 C 
ATOM     15  O   UNL     1      -0.443  -4.056  -3.633  0.00  0.00    -0.274 OA
BRANCH  12  16
ATOM     16  O   UNL     1       2.368  -6.458  -4.573  0.00  0.00    -0.386 OA
ATOM     17  H   UNL     1       3.270  -6.770  -4.727  0.00  0.00    +0.210 HD
ENDBRANCH  12  16
BRANCH   5  18
ATOM     18  C   UNL     1       1.455  -2.521  -2.524  0.00  0.00    +0.114 C 
BRANCH  18  19
ATOM     19  C   UNL     1       0.739  -2.027  -1.265  0.00  0.00    +0.019 C 
BRANCH  19  20
ATOM     20  C   UNL     1       0.718  -0.497  -1.257  0.00  0.00    +0.001 C 
BRANCH  20  22
ATOM     21  C   UNL     1      -0.019   1.526   0.010  0.00  0.00    +0.004 C 
ATOM     22  C   UNL     1       0.002  -0.004   0.002  0.00  0.00    -0.003 C 
ENDBRANCH  20  22
ENDBRANCH  19  20
ENDBRANCH  18  19
ENDBRANCH   5  18
ENDBRANCH   1  13
BRANCH   3  23
ATOM     23  N   UNL     1      -1.972  -6.789  -0.310  0.00  0.00    -0.188 NA
ATOM     24  C   UNL     1      -3.170  -6.463   0.002  0.00  0.00    +0.053 C 
ATOM     25  C   UNL     1      -3.974  -5.581  -0.918  0.00  0.00    +0.063 C 
BRANCH  24  26
ATOM     26  C   UNL     1      -3.776  -6.962   1.288  0.00  0.00    +0.186 C 
ATOM     27  C   UNL     1      -2.676  -7.628   2.093  0.00  0.00    +0.120 C 
ATOM     28  C   UNL     1      -2.870  -8.965   2.446  0.00  0.00    +0.035 A 
ATOM     29  C   UNL     1      -1.898  -9.661   3.194  0.00  0.00    +0.013 A 
ATOM     30  C   UNL     1      -2.111 -10.963   3.526  0.00  0.00    +0.001 A 
ATOM     31  C   UNL     1      -3.272 -11.626   3.141  0.00  0.00    +0.002 A 
ATOM     32  C   UNL     1      -4.247 -11.007   2.417  0.00  0.00    +0.024 A 
ATOM     33  C   UNL     1      -4.093  -9.662   2.040  0.00  0.00    +0.044 A 
ATOM     34  N   UNL     1      -5.053  -9.055   1.330  0.00  0.00    -0.284 N 
ATOM     35  C   UNL     1      -4.984  -7.800   0.938  0.00  0.00    +0.233 C 
ATOM     36  O   UNL     1      -5.895  -7.314   0.294  0.00  0.00    -0.274 OA
ATOM     37  H   UNL     1      -5.841  -9.568   1.090  0.00  0.00    +0.155 HD
BRANCH  27  38
ATOM     38  O   UNL     1      -1.571  -6.965   2.448  0.00  0.00    -0.509 OA
ATOM     39  H   UNL     1      -0.942  -7.494   2.958  0.00  0.00    +0.292 HD
ENDBRANCH  27  38
ENDBRANCH  24  26
ENDBRANCH   3  23
TORSDOF 9
