REMARK  Name = ZINC24715787
REMARK  10 active torsions:
REMARK  status: ('A' for Active; 'I' for Inactive)
REMARK    1  A    between atoms: C_1  and  C_2
REMARK    2  A    between atoms: C_2  and  O_3
REMARK    3  A    between atoms: O_3  and  C_4
REMARK    4  A    between atoms: C_4  and  C_6
REMARK    5  A    between atoms: C_6  and  C_8
REMARK    6  A    between atoms: C_6  and  N_15
REMARK    7  A    between atoms: C_21  and  C_23
REMARK    8  A    between atoms: C_23  and  O_24
REMARK    9  A    between atoms: O_24  and  C_25
REMARK   10  A    between atoms: C_29  and  C_36
REMARK                            x       y       z     vdW  Elec       q    Type
REMARK                         _______ _______ _______ _____ _____    ______ ____
ROOT
ATOM      1  N   UNL     1      -2.341   0.875   0.062  0.00  0.00    +0.393 N 
ATOM      2  C   UNL     1      -2.212   0.077   1.289  0.00  0.00    -0.058 C 
ATOM      3  C   UNL     1      -3.389  -0.901   1.383  0.00  0.00    +0.089 C 
ATOM      4  N   UNL     1      -3.451  -1.680   0.138  0.00  0.00    -0.302 N 
ATOM      5  C   UNL     1      -3.444  -0.951  -1.140  0.00  0.00    +0.089 C 
ATOM      6  C   UNL     1      -2.265   0.028  -1.135  0.00  0.00    -0.058 C 
ATOM      7  C   UNL     1      -3.511  -3.026   0.166  0.00  0.00    +0.253 C 
ATOM      8  O   UNL     1      -3.562  -3.653  -0.871  0.00  0.00    -0.272 OA
ATOM      9  H   UNL     1      -3.333   1.349   0.074  0.00  0.00    -0.080 HD
ENDROOT
BRANCH   1  10
ATOM     10  C   UNL     1      -1.329   1.940   0.019  0.00  0.00    +0.073 C 
BRANCH  10  11
ATOM     11  C   UNL     1      -1.514   2.756  -1.234  0.00  0.00    -0.050 A 
ATOM     12  C   UNL     1      -2.778   3.167  -1.612  0.00  0.00    +0.004 A 
ATOM     13  C   UNL     1      -2.947   3.921  -2.758  0.00  0.00    +0.020 A 
ATOM     14  C   UNL     1      -1.851   4.255  -3.533  0.00  0.00    +0.041 A 
ATOM     15  C   UNL     1      -0.586   3.839  -3.158  0.00  0.00    +0.020 A 
ATOM     16  C   UNL     1      -0.418   3.090  -2.008  0.00  0.00    +0.004 A 
ATOM     17 CL   UNL     1      -2.063   5.196  -4.977  0.00  0.00    -0.084 Cl
ENDBRANCH  10  11
BRANCH  10  18
ATOM     18  C   UNL     1      -1.484   2.829   1.226  0.00  0.00    +0.298 C 
ATOM     19  O   UNL     1      -2.566   2.952   1.751  0.00  0.00    -0.252 OA
BRANCH  18  20
ATOM     20  O   UNL     1      -0.420   3.480   1.720  0.00  0.00    -0.466 OA
BRANCH  20  22
ATOM     21  C   UNL     1       0.676   4.971   3.304  0.00  0.00    +0.048 C 
ATOM     22  C   UNL     1      -0.642   4.315   2.888  0.00  0.00    +0.228 C 
ENDBRANCH  20  22
ENDBRANCH  18  20
ENDBRANCH  10  18
ENDBRANCH   1  10
BRANCH   7  23
ATOM     23  C   UNL     1      -3.517  -3.752   1.486  0.00  0.00    +0.324 C 
BRANCH  23  24
ATOM     24  O   UNL     1      -3.586  -5.161   1.255  0.00  0.00    -0.483 OA
BRANCH  24  25
ATOM     25  C   UNL     1      -3.600  -5.965   2.348  0.00  0.00    +0.125 A 
ATOM     26  C   UNL     1      -3.542  -5.402   3.621  0.00  0.00    +0.046 A 
ATOM     27  C   UNL     1      -3.561  -6.196   4.731  0.00  0.00    +0.015 A 
ATOM     28  C   UNL     1      -3.627  -7.587   4.588  0.00  0.00    +0.021 A 
ATOM     29  C   UNL     1      -3.643  -8.465   5.761  0.00  0.00    -0.033 A 
ATOM     30  C   UNL     1      -3.709  -9.806   5.557  0.00  0.00    +0.096 A 
ATOM     31  C   UNL     1      -3.760 -10.315   4.243  0.00  0.00    +0.337 A 
ATOM     32  O   UNL     1      -3.819 -11.519   4.074  0.00  0.00    -0.245 OA
ATOM     33  O   UNL     1      -3.745  -9.505   3.172  0.00  0.00    -0.422 OA
ATOM     34  C   UNL     1      -3.680  -8.162   3.305  0.00  0.00    +0.143 A 
ATOM     35  C   UNL     1      -3.666  -7.340   2.189  0.00  0.00    +0.092 A 
ATOM     36  C   UNL     1      -3.589  -7.895   7.155  0.00  0.00    +0.045 C 
ENDBRANCH  24  25
ENDBRANCH  23  24
ENDBRANCH   7  23
TORSDOF 8
