REMARK  Name = ZINC50510154
REMARK  11 active torsions:
REMARK  status: ('A' for Active; 'I' for Inactive)
REMARK    1  A    between atoms: C_1  and  C_2
REMARK    2  A    between atoms: C_2  and  C_4
REMARK    3  A    between atoms: C_2  and  N_13
REMARK    4  A    between atoms: C_7  and  O_11
REMARK    5  A    between atoms: O_11  and  C_12
REMARK    6  A    between atoms: N_13  and  C_14
REMARK    7  A    between atoms: C_14  and  C_16
REMARK    8  A    between atoms: C_14  and  C_17
REMARK    9  A    between atoms: N_19  and  C_20
REMARK   10  A    between atoms: C_23  and  S_26
REMARK   11  A    between atoms: S_26  and  N_29
REMARK                            x       y       z     vdW  Elec       q    Type
REMARK                         _______ _______ _______ _____ _____    ______ ____
ROOT
ATOM      1  C   UNL     1       0.131  -1.325  -3.436  0.00  0.00    +0.234 C 
ATOM      2  O   UNL     1       1.112  -2.017  -3.260  0.00  0.00    -0.274 OA
ATOM      3  N   UNL     1      -0.588  -1.452  -4.569  0.00  0.00    -0.284 N 
ATOM      4  H   UNL     1      -1.325  -0.846  -4.746  0.00  0.00    +0.155 HD
ENDROOT
BRANCH   3   5
ATOM      5  C   UNL     1      -0.271  -2.457  -5.490  0.00  0.00    +0.034 A 
ATOM      6  C   UNL     1      -0.418  -2.224  -6.851  0.00  0.00    +0.025 A 
ATOM      7  C   UNL     1      -0.105  -3.218  -7.757  0.00  0.00    +0.030 A 
ATOM      8  C   UNL     1       0.354  -4.444  -7.311  0.00  0.00    +0.105 A 
ATOM      9  C   UNL     1       0.501  -4.678  -5.956  0.00  0.00    +0.030 A 
ATOM     10  C   UNL     1       0.195  -3.687  -5.045  0.00  0.00    +0.025 A 
BRANCH   8  11
ATOM     11  S   UNL     1       0.753  -5.709  -8.470  0.00  0.00    +0.056 S 
ATOM     12  O   UNL     1       0.641  -6.945  -7.777  0.00  0.00    -0.153 OA
ATOM     13  O   UNL     1       0.011  -5.428  -9.649  0.00  0.00    -0.153 OA
BRANCH  11  14
ATOM     14  N   UNL     1       2.352  -5.529  -8.862  0.00  0.00    -0.204 NA
ATOM     15  H   UNL     1       2.881  -6.303  -9.109  0.00  0.00    +0.144 HD
ATOM     16  H   UNL     1       2.759  -4.648  -8.844  0.00  0.00    +0.144 HD
ENDBRANCH  11  14
ENDBRANCH   8  11
ENDBRANCH   3   5
BRANCH   1  17
ATOM     17  C   UNL     1      -0.284  -0.325  -2.388  0.00  0.00    +0.138 C 
ATOM     18  C   UNL     1      -0.272   1.081  -2.992  0.00  0.00    +0.034 C 
BRANCH  17  19
ATOM     19  N   UNL     1       0.655  -0.381  -1.259  0.00  0.00    -0.299 NA
ATOM     20  H   UNL     1       1.456   0.209  -1.425  0.00  0.00    +0.123 HD
BRANCH  19  22
ATOM     21  C   UNL     1       1.001   0.624   0.948  0.00  0.00    +0.029 C 
ATOM     22  C   UNL     1      -0.013  -0.019  -0.001  0.00  0.00    +0.082 C 
BRANCH  22  23
ATOM     23  C   UNL     1      -0.584  -1.259   0.638  0.00  0.00    -0.028 A 
ATOM     24  C   UNL     1       0.137  -2.438   0.622  0.00  0.00    +0.009 A 
ATOM     25  C   UNL     1      -0.384  -3.577   1.207  0.00  0.00    +0.049 A 
ATOM     26  C   UNL     1      -1.631  -3.536   1.812  0.00  0.00    +0.155 A 
ATOM     27  C   UNL     1      -2.354  -2.350   1.828  0.00  0.00    +0.165 A 
ATOM     28  C   UNL     1      -1.825  -1.212   1.246  0.00  0.00    +0.047 A 
ATOM     29  F   UNL     1      -3.569  -2.307   2.417  0.00  0.00    -0.202 F 
BRANCH  26  30
ATOM     30  O   UNL     1      -2.145  -4.655   2.388  0.00  0.00    -0.492 OA
ATOM     31  C   UNL     1      -1.346  -5.839   2.333  0.00  0.00    +0.277 C 
ENDBRANCH  26  30
ENDBRANCH  22  23
ENDBRANCH  19  22
ENDBRANCH  17  19
ENDBRANCH   1  17
TORSDOF 8
