REMARK  Name = ZINC20763211
REMARK  7 active torsions:
REMARK  status: ('A' for Active; 'I' for Inactive)
REMARK    1  A    between atoms: C_1  and  C_2
REMARK    2  A    between atoms: C_2  and  O_3
REMARK    3  A    between atoms: O_3  and  C_4
REMARK    4  A    between atoms: C_7  and  C_10
REMARK    5  A    between atoms: C_12  and  C_26
REMARK    6  A    between atoms: C_15  and  C_18
REMARK    7  A    between atoms: C_23  and  O_24
REMARK                            x       y       z     vdW  Elec       q    Type
REMARK                         _______ _______ _______ _____ _____    ______ ____
ROOT
ATOM      1  C   UNL     1       1.734   0.205  -1.677  0.00  0.00    +0.040 C 
ATOM      2  N   UNL     1       0.853  -0.501  -1.072  0.00  0.00    -0.299 NA
ATOM      3  C   UNL     1       0.002  -0.004   0.002  0.00  0.00    +0.081 C 
ATOM      4  N   UNL     1      -0.018   1.464   0.010  0.00  0.00    +0.401 N 
ATOM      5  C   UNL     1       1.357   1.991  -0.000  0.00  0.00    -0.028 C 
ATOM      6  C   UNL     1       1.991   1.650  -1.353  0.00  0.00    +0.044 C 
ATOM      7  H   UNL     1      -0.550   1.828  -0.881  0.00  0.00    -0.081 HD
ATOM      8  H   UNL     1      -0.533   1.818   0.915  0.00  0.00    -0.081 HD
ENDROOT
BRANCH   5   9
ATOM      9  C   UNL     1       1.330   3.486   0.186  0.00  0.00    -0.018 A 
ATOM     10  C   UNL     1       0.175   4.195  -0.081  0.00  0.00    +0.020 A 
ATOM     11  C   UNL     1       0.147   5.567   0.095  0.00  0.00    +0.018 A 
ATOM     12  C   UNL     1       1.280   6.233   0.528  0.00  0.00    +0.019 A 
ATOM     13  C   UNL     1       2.438   5.529   0.791  0.00  0.00    +0.047 A 
ATOM     14  C   UNL     1       2.466   4.152   0.620  0.00  0.00    +0.119 A 
ATOM     15 BR   UNL     1      -1.438   6.533  -0.264  0.00  0.00    -0.050 Br
BRANCH  14  16
ATOM     16  O   UNL     1       3.606   3.458   0.879  0.00  0.00    -0.507 OA
ATOM     17  H   UNL     1       4.506   3.987   1.224  0.00  0.00    +0.292 HD
ENDBRANCH  14  16
ENDBRANCH   5   9
BRANCH   3  18
ATOM     18  C   UNL     1       0.530  -0.501   1.323  0.00  0.00    -0.040 A 
ATOM     19  C   UNL     1       0.331   0.244   2.471  0.00  0.00    +0.005 A 
ATOM     20  C   UNL     1       0.810  -0.213   3.684  0.00  0.00    +0.020 A 
ATOM     21  C   UNL     1       1.498  -1.412   3.748  0.00  0.00    +0.041 A 
ATOM     22  C   UNL     1       1.701  -2.155   2.599  0.00  0.00    +0.020 A 
ATOM     23  C   UNL     1       1.217  -1.698   1.387  0.00  0.00    +0.005 A 
ATOM     24 CL   UNL     1       2.106  -1.984   5.270  0.00  0.00    -0.084 Cl
ENDBRANCH   3  18
BRANCH   1  28
ATOM     25  C   UNL     1       4.038  -1.623  -4.738  0.00  0.00    +0.121 A 
ATOM     26  C   UNL     1       3.073  -2.361  -4.063  0.00  0.00    +0.046 A 
ATOM     27  C   UNL     1       2.324  -1.772  -3.069  0.00  0.00    +0.013 A 
ATOM     28  C   UNL     1       2.534  -0.430  -2.740  0.00  0.00    -0.004 A 
ATOM     29  C   UNL     1       3.501   0.310  -3.426  0.00  0.00    +0.013 A 
ATOM     30  C   UNL     1       4.250  -0.288  -4.415  0.00  0.00    +0.046 A 
BRANCH  25  31
ATOM     31  O   UNL     1       4.775  -2.207  -5.717  0.00  0.00    -0.492 OA
BRANCH  31  33
ATOM     32  C   UNL     1       6.475  -2.217  -7.435  0.00  0.00    +0.048 C 
ATOM     33  C   UNL     1       5.749  -1.391  -6.370  0.00  0.00    +0.225 C 
ENDBRANCH  31  33
ENDBRANCH  25  31
ENDBRANCH   1  28
TORSDOF 6
