REMARK  Name = ZINC03628258
REMARK  18 active torsions:
REMARK  status: ('A' for Active; 'I' for Inactive)
REMARK    1  A    between atoms: C_1  and  C_2
REMARK    2  A    between atoms: C_2  and  CA_3
REMARK    3  A    between atoms: CA_3  and  C_5
REMARK    4  A    between atoms: CA_3  and  N_66
REMARK    5  A    between atoms: C_5  and  O_6
REMARK    6  A    between atoms: C_7  and  C_8
REMARK    7  A    between atoms: C_7  and  N_66
REMARK    8  A    between atoms: C_8  and  C_10
REMARK    9  A    between atoms: C_8  and  O_34
REMARK   10  A    between atoms: C_10  and  O_11
REMARK   11  A    between atoms: O_11  and  C_12
REMARK   12  A    between atoms: C_18  and  C_29
REMARK   13  A    between atoms: C_19  and  C_28
REMARK   14  A    between atoms: N_20  and  C_21
REMARK   15  A    between atoms: C_24  and  C_27
REMARK   16  A    between atoms: C_29  and  O_31
REMARK   17  A    between atoms: O_31  and  C_32
REMARK   18  A    between atoms: C_32  and  C_33
REMARK                            x       y       z     vdW  Elec       q    Type
REMARK                         _______ _______ _______ _____ _____    ______ ____
ROOT
ATOM      1  C   UNL     1       1.972   5.065  -6.959  0.00  0.00    +0.121 A 
ATOM      2  C   UNL     1       3.330   4.765  -6.908  0.00  0.00    +0.048 A 
ATOM      3  C   UNL     1       4.134   4.970  -8.007  0.00  0.00    +0.030 A 
ATOM      4  C   UNL     1       3.594   5.491  -9.177  0.00  0.00    +0.055 A 
ATOM      5  C   UNL     1       2.225   5.800  -9.228  0.00  0.00    +0.018 A 
ATOM      6  C   UNL     1       1.418   5.584  -8.114  0.00  0.00    +0.056 A 
ATOM      7  C   UNL     1       1.978   6.323 -10.585  0.00  0.00    +0.088 A 
ATOM      8  C   UNL     1       3.177   6.294 -11.236  0.00  0.00    +0.036 A 
ATOM      9  N   UNL     1       4.135   5.804 -10.411  0.00  0.00    -0.312 N 
ATOM     10  C   UNL     1       3.402   6.740 -12.658  0.00  0.00    +0.065 C 
ENDROOT
BRANCH   9  11
ATOM     11  C   UNL     1       5.481   5.638 -10.759  0.00  0.00    +0.047 A 
ATOM     12  C   UNL     1       6.035   4.366 -10.812  0.00  0.00    +0.026 A 
ATOM     13  C   UNL     1       7.361   4.205 -11.160  0.00  0.00    +0.005 A 
ATOM     14  C   UNL     1       8.142   5.311 -11.445  0.00  0.00    -0.050 A 
ATOM     15  C   UNL     1       7.595   6.580 -11.387  0.00  0.00    +0.005 A 
ATOM     16  C   UNL     1       6.268   6.747 -11.045  0.00  0.00    +0.026 A 
ATOM     17  C   UNL     1       9.591   5.132 -11.819  0.00  0.00    +0.044 C 
ENDBRANCH   9  11
BRANCH   7  18
ATOM     18  C   UNL     1       0.695   6.784 -11.127  0.00  0.00    +0.342 C 
ATOM     19  O   UNL     1       0.371   7.951 -11.014  0.00  0.00    -0.245 OA
BRANCH  18  20
ATOM     20  O   UNL     1      -0.124   5.914 -11.752  0.00  0.00    -0.461 OA
BRANCH  20  21
ATOM     21  C   UNL     1      -1.377   6.440 -12.264  0.00  0.00    +0.229 C 
ATOM     22  C   UNL     1      -2.167   5.314 -12.934  0.00  0.00    +0.048 C 
ENDBRANCH  20  21
ENDBRANCH  18  20
ENDBRANCH   7  18
BRANCH   1  23
ATOM     23  O   UNL     1       1.189   4.852  -5.867  0.00  0.00    -0.489 OA
BRANCH  23  24
ATOM     24  C   UNL     1       1.826   4.314  -4.707  0.00  0.00    +0.258 C 
BRANCH  24  25
ATOM     25  C   UNL     1       0.793   4.145  -3.591  0.00  0.00    +0.135 C 
BRANCH  25  26
ATOM     26  O   UNL     1      -0.173   3.167  -3.979  0.00  0.00    -0.390 OA
ATOM     27  H   UNL     1       0.201   2.293  -4.157  0.00  0.00    +0.210 HD
ENDBRANCH  25  26
BRANCH  25  28
ATOM     28  C   UNL     1       1.496   3.687  -2.311  0.00  0.00    -0.047 C 
BRANCH  28  29
ATOM     29  N   UNL     1       0.494   3.527  -1.240  0.00  0.00    +0.384 N 
ATOM     30  H1  UNL     1       0.026   4.426  -1.078  0.00  0.00    -0.085 HD
ATOM     31  H2  UNL     1      -0.199   2.826  -1.527  0.00  0.00    -0.085 HD
BRANCH  29  32
ATOM     32  CA  UNL     1       1.145   3.085   0.008  0.00  0.00    -0.046 C 
BRANCH  32  34
ATOM     33  C   UNL     1       0.246   5.037   1.282  0.00  0.00    +0.002 C 
ATOM     34  C   UNL     1       0.285   3.510   1.200  0.00  0.00    -0.017 C 
ENDBRANCH  32  34
BRANCH  32  35
ATOM     35  C   UNL     1       1.286   1.562  -0.002  0.00  0.00    +0.140 C 
BRANCH  35  36
ATOM     36  O   UNL     1      -0.011   0.963   0.007  0.00  0.00    -0.397 OA
ATOM     37  H   UNL     1       0.002  -0.004   0.002  0.00  0.00    +0.209 HD
ENDBRANCH  35  36
ENDBRANCH  32  35
ENDBRANCH  29  32
ENDBRANCH  28  29
ENDBRANCH  25  28
ENDBRANCH  24  25
ENDBRANCH  23  24
ENDBRANCH   1  23
TORSDOF 14
