REMARK  Name = ZINC15946786
REMARK  11 active torsions:
REMARK  status: ('A' for Active; 'I' for Inactive)
REMARK    1  A    between atoms: C_1  and  C_2
REMARK    2  A    between atoms: C_2  and  C_3
REMARK    3  A    between atoms: C_9  and  C_10
REMARK    4  A    between atoms: C_9  and  N_73
REMARK    5  A    between atoms: N_12  and  C_13
REMARK    6  A    between atoms: C_14  and  C_27
REMARK    7  A    between atoms: C_19  and  C_23
REMARK    8  A    between atoms: C_23  and  C_24
REMARK    9  A    between atoms: C_23  and  C_25
REMARK   10  A    between atoms: C_23  and  C_26
REMARK   11  A    between atoms: N_29  and  C_30
REMARK                            x       y       z     vdW  Elec       q    Type
REMARK                         _______ _______ _______ _____ _____    ______ ____
ROOT
ATOM      1  C   UNL     1      -0.425  -2.307   1.703  0.00  0.00    +0.084 A 
ATOM      2  C   UNL     1      -0.384  -1.546   0.543  0.00  0.00    +0.069 A 
ATOM      3  C   UNL     1      -0.187  -2.248  -0.714  0.00  0.00    -0.023 A 
ATOM      4  C   UNL     1      -0.068  -3.589  -0.611  0.00  0.00    -0.004 A 
ATOM      5  S   UNL     1      -0.215  -3.925   1.121  0.00  0.00    -0.077 S 
ATOM      6  C   UNL     1       0.142  -4.566  -1.727  0.00  0.00    +0.046 C 
ATOM      7  C   UNL     1       0.579  -3.786  -2.976  0.00  0.00    -0.000 C 
ATOM      8  C   UNL     1      -0.361  -2.592  -3.166  0.00  0.00    +0.009 C 
ATOM      9  C   UNL     1      -0.115  -1.555  -2.069  0.00  0.00    +0.037 C 
ENDROOT
BRANCH   1  12
ATOM     10  C   UNL     1      -0.608  -2.771   4.018  0.00  0.00    +0.201 C 
ATOM     11  O   UNL     1      -0.471  -3.953   3.781  0.00  0.00    -0.278 OA
ATOM     12  N   UNL     1      -0.595  -1.876   3.010  0.00  0.00    -0.281 N 
ATOM     13  H   UNL     1      -0.704  -0.931   3.199  0.00  0.00    +0.155 HD
BRANCH  10  14
ATOM     14  C   UNL     1      -0.792  -2.304   5.439  0.00  0.00    +0.019 C 
BRANCH  14  20
ATOM     15  C   UNL     1      -1.849  -4.402   6.019  0.00  0.00    -0.068 C 
ATOM     16  C   UNL     1      -1.886  -5.518   7.066  0.00  0.00    -0.015 C 
ATOM     17  C   UNL     1      -0.538  -6.244   7.078  0.00  0.00    -0.003 C 
ATOM     18  C   UNL     1       0.575  -5.233   7.369  0.00  0.00    -0.019 C 
ATOM     19  C   UNL     1       0.540  -4.126   6.314  0.00  0.00    -0.078 C 
ATOM     20  N   UNL     1      -0.774  -3.450   6.370  0.00  0.00    +0.387 N 
ATOM     21  H   UNL     1      -0.932  -3.107   7.324  0.00  0.00    -0.081 HD
BRANCH  15  23
ATOM     22  C   UNL     1      -4.303  -4.622   5.600  0.00  0.00    +0.002 C 
ATOM     23  C   UNL     1      -3.188  -3.661   6.017  0.00  0.00    -0.019 C 
ENDBRANCH  15  23
ENDBRANCH  14  20
ENDBRANCH  10  14
ENDBRANCH   1  12
BRANCH   7  24
ATOM     24  C   UNL     1       0.505  -4.698  -4.202  0.00  0.00    -0.035 C 
ATOM     25  C   UNL     1      -0.932  -5.189  -4.386  0.00  0.00    +0.011 C 
ATOM     26  C   UNL     1       0.941  -3.918  -5.444  0.00  0.00    +0.011 C 
ATOM     27  C   UNL     1       1.433  -5.898  -4.002  0.00  0.00    +0.011 C 
ENDBRANCH   7  24
BRANCH   2  28
ATOM     28  C   UNL     1      -0.529  -0.088   0.585  0.00  0.00    +0.251 C 
ATOM     29  O   UNL     1      -1.633   0.417   0.494  0.00  0.00    -0.270 OA
ATOM     30  N   UNL     1       0.560   0.694   0.723  0.00  0.00    -0.281 N 
ATOM     31  H   UNL     1       1.445   0.296   0.728  0.00  0.00    +0.155 HD
BRANCH  30  32
ATOM     32  C   UNL     1       0.415   2.079   0.861  0.00  0.00    +0.034 A 
ATOM     33  C   UNL     1      -0.594   2.744   0.177  0.00  0.00    +0.025 A 
ATOM     34  C   UNL     1      -0.738   4.110   0.318  0.00  0.00    +0.022 A 
ATOM     35  C   UNL     1       0.128   4.817   1.133  0.00  0.00    +0.041 A 
ATOM     36  C   UNL     1       1.138   4.158   1.812  0.00  0.00    +0.022 A 
ATOM     37  C   UNL     1       1.283   2.791   1.678  0.00  0.00    +0.025 A 
ATOM     38 CL   UNL     1      -0.052   6.536   1.303  0.00  0.00    -0.084 Cl
ENDBRANCH  30  32
ENDBRANCH   2  28
TORSDOF 7
