REMARK  Name = ZINC61440137
REMARK  6 active torsions:
REMARK  status: ('A' for Active; 'I' for Inactive)
REMARK    1  A    between atoms: C_1  and  C_2
REMARK    2  A    between atoms: C_9  and  S_11
REMARK    3  A    between atoms: S_11  and  C_12
REMARK    4  A    between atoms: C_12  and  C_14
REMARK    5  A    between atoms: C_12  and  C_16
REMARK    6  A    between atoms: C_14  and  N_15
REMARK                            x       y       z     vdW  Elec       q    Type
REMARK                         _______ _______ _______ _____ _____    ______ ____
ROOT
ATOM      1  S   UNL     1       0.142  -5.912   2.467  0.00  0.00    -0.081 S 
ENDROOT
BRANCH   1  10
ATOM      2  C   UNL     1       0.551   1.534   0.541  0.00  0.00    +0.044 C 
ATOM      3  C   UNL     1       0.470   0.033   0.440  0.00  0.00    -0.048 A 
ATOM      4  C   UNL     1       0.444  -0.573  -0.808  0.00  0.00    +0.005 A 
ATOM      5  C   UNL     1       0.370  -1.944  -0.918  0.00  0.00    +0.030 A 
ATOM      6  C   UNL     1       0.322  -2.731   0.236  0.00  0.00    +0.090 A 
ATOM      7  C   UNL     1       0.350  -2.112   1.496  0.00  0.00    +0.067 A 
ATOM      8  C   UNL     1       0.429  -0.731   1.588  0.00  0.00    +0.031 A 
ATOM      9  N   UNL     1       0.291  -3.135   2.429  0.00  0.00    -0.333 N 
ATOM     10  C   UNL     1       0.230  -4.311   1.737  0.00  0.00    +0.168 A 
ATOM     11  N   UNL     1       0.249  -4.071   0.449  0.00  0.00    -0.222 NA
ATOM     12  H   UNL     1       0.293  -3.034   3.394  0.00  0.00    +0.168 HD
ENDBRANCH   1  10
BRANCH   1  13
ATOM     13  C   UNL     1      -0.049  -7.030   1.051  0.00  0.00    +0.073 C 
BRANCH  13  14
ATOM     14  C   UNL     1      -0.346  -8.422   1.547  0.00  0.00    +0.002 A 
ATOM     15  C   UNL     1      -1.428  -9.202   1.303  0.00  0.00    +0.027 A 
ATOM     16  C   UNL     1      -1.488 -10.462   1.870  0.00  0.00    +0.025 A 
ATOM     17  C   UNL     1      -0.463 -10.879   2.654  0.00  0.00    +0.060 A 
ATOM     18  S   UNL     1       0.638  -9.474   2.601  0.00  0.00    -0.099 S 
ATOM     19 BR   UNL     1      -2.976 -11.585   1.559  0.00  0.00    -0.050 Br
ENDBRANCH  13  14
BRANCH  13  20
ATOM     20  C   UNL     1       1.244  -7.045   0.235  0.00  0.00    -0.066 C 
BRANCH  20  21
ATOM     21  N   UNL     1       1.046  -7.843  -0.983  0.00  0.00    +0.379 N 
ATOM     22  H   UNL     1       0.881  -8.806  -0.731  0.00  0.00    -0.090 HD
ATOM     23  H   UNL     1       0.250  -7.487  -1.492  0.00  0.00    -0.090 HD
ATOM     24  H   UNL     1       1.870  -7.783  -1.562  0.00  0.00    -0.090 HD
ENDBRANCH  20  21
ENDBRANCH  13  20
ENDBRANCH   1  13
TORSDOF 5
