REMARK  Name = ZINC58341611
REMARK  8 active torsions:
REMARK  status: ('A' for Active; 'I' for Inactive)
REMARK    1  A    between atoms: C_1  and  N_2
REMARK    2  A    between atoms: C_3  and  C_5
REMARK    3  A    between atoms: C_5  and  O_6
REMARK    4  A    between atoms: O_6  and  C_7
REMARK    5  A    between atoms: C_10  and  C_13
REMARK    6  A    between atoms: C_13  and  N_14
REMARK    7  A    between atoms: N_14  and  C_15
REMARK    8  A    between atoms: C_15  and  C_16
REMARK                            x       y       z     vdW  Elec       q    Type
REMARK                         _______ _______ _______ _____ _____    ______ ____
ROOT
ATOM      1  C   UNL     1       1.767  -8.237   2.757  0.00  0.00    -0.047 C 
ENDROOT
BRANCH   1   5
ATOM      2  C   UNL     1       1.425  -4.002   2.299  0.00  0.00    +0.121 A 
ATOM      3  C   UNL     1       0.882  -4.851   1.345  0.00  0.00    +0.046 A 
ATOM      4  C   UNL     1       0.995  -6.219   1.495  0.00  0.00    +0.005 A 
ATOM      5  C   UNL     1       1.647  -6.744   2.596  0.00  0.00    -0.064 A 
ATOM      6  C   UNL     1       2.187  -5.901   3.549  0.00  0.00    +0.005 A 
ATOM      7  C   UNL     1       2.083  -4.531   3.400  0.00  0.00    +0.046 A 
BRANCH   2   8
ATOM      8  O   UNL     1       1.316  -2.656   2.153  0.00  0.00    -0.483 OA
BRANCH   8   9
ATOM      9  C   UNL     1       0.625  -2.182   0.995  0.00  0.00    +0.324 C 
BRANCH   9  12
ATOM     10  C   UNL     1      -0.018   1.461   0.010  0.00  0.00    +0.128 C 
ATOM     11  N   UNL     1       0.002  -0.004   0.002  0.00  0.00    -0.316 N 
ATOM     12  C   UNL     1       0.604  -0.675   1.004  0.00  0.00    +0.250 C 
ATOM     13  O   UNL     1       1.130  -0.067   1.911  0.00  0.00    -0.272 OA
ATOM     14  H   UNL     1      -0.418  -0.491  -0.724  0.00  0.00    +0.148 HD
ENDBRANCH   9  12
ENDBRANCH   8   9
ENDBRANCH   2   8
ENDBRANCH   1   5
BRANCH   1  15
ATOM     15  N   UNL     1       3.002  -8.702   2.112  0.00  0.00    +0.382 N 
ATOM     16  H   UNL     1       2.976  -8.471   1.130  0.00  0.00    -0.085 HD
ATOM     17  H   UNL     1       3.796  -8.251   2.542  0.00  0.00    -0.085 HD
BRANCH  15  18
ATOM     18  C   UNL     1       3.120 -10.157   2.270  0.00  0.00    -0.075 C 
BRANCH  18  19
ATOM     19  C   UNL     1       4.406 -10.641   1.597  0.00  0.00    +0.010 C 
ATOM     20  C   UNL     1       5.617 -10.050   2.329  0.00  0.00    +0.106 C 
ATOM     21  N   UNL     1       6.843 -10.472   1.624  0.00  0.00    -0.329 N 
ATOM     22  C   UNL     1       6.890 -11.807   1.217  0.00  0.00    +0.117 A 
ATOM     23  C   UNL     1       7.937 -12.533   0.767  0.00  0.00    +0.064 A 
ATOM     24  C   UNL     1       7.470 -13.824   0.491  0.00  0.00    +0.136 A 
ATOM     25  N   UNL     1       6.188 -13.869   0.766  0.00  0.00    -0.178 NA
ATOM     26  N   UNL     1       5.795 -12.612   1.224  0.00  0.00    -0.251 N 
ATOM     27  C   UNL     1       4.464 -12.172   1.650  0.00  0.00    +0.148 C 
ATOM     28  H   UNL     1       7.574  -9.857   1.452  0.00  0.00    +0.147 HD
ENDBRANCH  18  19
ENDBRANCH  15  18
ENDBRANCH   1  15
TORSDOF 7
