REMARK  Name = ZINC28868366
REMARK  9 active torsions:
REMARK  status: ('A' for Active; 'I' for Inactive)
REMARK    1  A    between atoms: C_3  and  C_15
REMARK    2  A    between atoms: C_6  and  C_7
REMARK    3  A    between atoms: C_10  and  O_14
REMARK    4  A    between atoms: C_12  and  O_13
REMARK    5  A    between atoms: N_21  and  C_22
REMARK    6  A    between atoms: C_25  and  C_28
REMARK    7  A    between atoms: C_28  and  N_29
REMARK    8  A    between atoms: N_29  and  C_30
REMARK    9  A    between atoms: C_30  and  C_31
REMARK                            x       y       z     vdW  Elec       q    Type
REMARK                         _______ _______ _______ _____ _____    ______ ____
ROOT
ATOM      1  C   UNL     1       3.687   2.191   0.432  0.00  0.00    +0.068 A 
ATOM      2  C   UNL     1       4.939   1.655   0.331  0.00  0.00    +0.073 A 
ATOM      3  C   UNL     1       5.837   2.706   0.101  0.00  0.00    +0.145 A 
ATOM      4  N   UNL     1       5.160   3.830   0.065  0.00  0.00    -0.158 NA
ATOM      5  N   UNL     1       3.804   3.539   0.263  0.00  0.00    -0.275 N 
ATOM      6  H   UNL     1       3.079   4.182   0.281  0.00  0.00    +0.189 HD
ATOM      7  N   UNL     1       7.222   2.579  -0.061  0.00  0.00    -0.297 N 
ATOM      8  H   UNL     1       7.627   1.698  -0.101  0.00  0.00    +0.154 HD
ENDROOT
BRANCH   1  11
ATOM      9  C   UNL     1       0.050   1.434   0.972  0.00  0.00    +0.009 A 
ATOM     10  C   UNL     1       1.217   2.129   0.748  0.00  0.00    +0.010 A 
ATOM     11  C   UNL     1       2.433   1.446   0.673  0.00  0.00    -0.000 A 
ATOM     12  C   UNL     1       2.464   0.058   0.827  0.00  0.00    +0.010 A 
ATOM     13  C   UNL     1       1.296  -0.636   1.051  0.00  0.00    +0.009 A 
ATOM     14  C   UNL     1       0.081   0.048   1.125  0.00  0.00    -0.014 A 
BRANCH  14  15
ATOM     15  C   UNL     1      -1.175  -0.700   1.367  0.00  0.00    +0.024 A 
ATOM     16  C   UNL     1      -2.056  -0.282   2.364  0.00  0.00    +0.015 A 
ATOM     17  C   UNL     1      -3.225  -0.979   2.587  0.00  0.00    +0.046 A 
ATOM     18  C   UNL     1      -3.528  -2.098   1.821  0.00  0.00    +0.120 A 
ATOM     19  C   UNL     1      -2.656  -2.521   0.828  0.00  0.00    +0.091 A 
ATOM     20  C   UNL     1      -1.484  -1.823   0.593  0.00  0.00    +0.128 A 
BRANCH  20  21
ATOM     21  O   UNL     1      -0.632  -2.232  -0.383  0.00  0.00    -0.506 OA
ATOM     22  H   UNL     1       0.033  -2.867  -0.084  0.00  0.00    +0.292 HD
ENDBRANCH  20  21
BRANCH  18  23
ATOM     23  O   UNL     1      -4.681  -2.780   2.046  0.00  0.00    -0.507 OA
ATOM     24  H   UNL     1      -5.432  -2.465   1.526  0.00  0.00    +0.292 HD
ENDBRANCH  18  23
ENDBRANCH  14  15
ENDBRANCH   1  11
BRANCH   7  25
ATOM     25  C   UNL     1       8.021   3.720  -0.166  0.00  0.00    +0.051 A 
ATOM     26  C   UNL     1       7.635   4.912   0.444  0.00  0.00    +0.026 A 
ATOM     27  C   UNL     1       8.460   6.016   0.312  0.00  0.00    +0.023 A 
ATOM     28  C   UNL     1       9.631   5.901  -0.414  0.00  0.00    +0.024 A 
ATOM     29  N   UNL     1       9.968   4.758  -0.980  0.00  0.00    -0.260 NA
ATOM     30  C   UNL     1       9.215   3.682  -0.875  0.00  0.00    +0.134 A 
BRANCH  28  31
ATOM     31  C   UNL     1      10.534   7.098  -0.562  0.00  0.00    -0.026 C 
BRANCH  31  32
ATOM     32  N   UNL     1      11.579   7.053   0.470  0.00  0.00    +0.383 N 
ATOM     33  H   UNL     1      11.151   7.066   1.383  0.00  0.00    -0.085 HD
ATOM     34  H   UNL     1      12.121   6.208   0.364  0.00  0.00    -0.085 HD
BRANCH  32  35
ATOM     35  C   UNL     1      12.460   8.220   0.326  0.00  0.00    -0.079 C 
BRANCH  35  36
ATOM     36  C   UNL     1      13.548   8.174   1.400  0.00  0.00    -0.028 C 
ATOM     37  C   UNL     1      13.566   9.300   2.436  0.00  0.00    +0.002 C 
ATOM     38  C   UNL     1      14.640   9.244   1.347  0.00  0.00    +0.002 C 
ENDBRANCH  35  36
ENDBRANCH  32  35
ENDBRANCH  31  32
ENDBRANCH  28  31
ENDBRANCH   7  25
TORSDOF 9
