REMARK  Name = ZINC40661703
REMARK  11 active torsions:
REMARK  status: ('A' for Active; 'I' for Inactive)
REMARK    1  A    between atoms: C_1  and  C_2
REMARK    2  A    between atoms: C_2  and  N_3
REMARK    3  A    between atoms: N_3  and  C_4
REMARK    4  A    between atoms: C_8  and  C_10
REMARK    5  A    between atoms: C_12  and  N_37
REMARK    6  A    between atoms: C_13  and  N_17
REMARK    7  A    between atoms: N_17  and  C_18
REMARK    8  A    between atoms: C_21  and  C_25
REMARK    9  A    between atoms: C_23  and  C_24
REMARK   10  A    between atoms: C_25  and  C_27
REMARK   11  A    between atoms: C_25  and  C_29
REMARK                            x       y       z     vdW  Elec       q    Type
REMARK                         _______ _______ _______ _____ _____    ______ ____
ROOT
ATOM      1  N   UNL     1      -0.182   1.584  -1.077  0.00  0.00    -0.284 N 
ATOM      2  C   UNL     1      -0.848   1.081  -2.189  0.00  0.00    +0.151 A 
ATOM      3  C   UNL     1      -2.230   1.234  -2.318  0.00  0.00    +0.104 A 
ATOM      4  C   UNL     1      -2.848   0.710  -3.454  0.00  0.00    +0.126 A 
ATOM      5  N   UNL     1      -2.102   0.089  -4.365  0.00  0.00    -0.333 N 
ATOM      6  C   UNL     1      -0.800  -0.035  -4.205  0.00  0.00    +0.200 A 
ATOM      7  N   UNL     1      -0.177   0.451  -3.150  0.00  0.00    -0.220 NA
ATOM      8  H   UNL     1      -2.524  -0.279  -5.158  0.00  0.00    +0.168 HD
ENDROOT
BRANCH   1   9
ATOM      9  C   UNL     1       0.065   0.758   0.023  0.00  0.00    +0.035 A 
ATOM     10  C   UNL     1       0.635   1.284   1.175  0.00  0.00    +0.023 A 
ATOM     11  C   UNL     1       0.877   0.465   2.260  0.00  0.00    +0.002 A 
ATOM     12  C   UNL     1       0.553  -0.878   2.200  0.00  0.00    +0.003 A 
ATOM     13  C   UNL     1      -0.014  -1.405   1.055  0.00  0.00    -0.049 A 
ATOM     14  C   UNL     1      -0.264  -0.590  -0.032  0.00  0.00    +0.026 A 
ATOM     15  C   UNL     1      -0.365  -2.870   0.994  0.00  0.00    +0.044 C 
ENDBRANCH   1   9
BRANCH   3  16
ATOM     16  N   UNL     1      -2.977   1.897  -1.331  0.00  0.00    -0.353 N 
ATOM     17  H   UNL     1      -2.548   2.188  -0.512  0.00  0.00    +0.143 HD
ATOM     18  H   UNL     1      -3.923   2.064  -1.469  0.00  0.00    +0.143 HD
ENDBRANCH   3  16
BRANCH   1  20
ATOM     19  C   UNL     1       1.727   3.057  -1.487  0.00  0.00    +0.025 C 
ATOM     20  C   UNL     1       0.260   2.981  -1.058  0.00  0.00    +0.109 C 
ENDBRANCH   1  20
BRANCH   4  21
ATOM     21  N   UNL     1      -4.222   0.835  -3.632  0.00  0.00    -0.299 N 
ATOM     22  H   UNL     1      -4.746   1.360  -3.007  0.00  0.00    +0.154 HD
BRANCH  21  23
ATOM     23  C   UNL     1      -4.847   0.204  -4.711  0.00  0.00    +0.037 A 
ATOM     24  C   UNL     1      -5.258   0.948  -5.809  0.00  0.00    +0.043 A 
ATOM     25  C   UNL     1      -5.876   0.320  -6.875  0.00  0.00    +0.047 A 
ATOM     26  C   UNL     1      -6.084  -1.048  -6.847  0.00  0.00    -0.008 A 
ATOM     27  C   UNL     1      -5.675  -1.791  -5.755  0.00  0.00    +0.011 A 
ATOM     28  C   UNL     1      -5.053  -1.170  -4.689  0.00  0.00    -0.029 A 
ATOM     29  C   UNL     1      -4.603  -1.982  -3.502  0.00  0.00    +0.045 C 
ATOM     30 CL   UNL     1      -6.391   1.248  -8.248  0.00  0.00    -0.083 Cl
BRANCH  26  31
ATOM     31  C   UNL     1      -6.758  -1.730  -8.010  0.00  0.00    +0.153 C 
BRANCH  31  32
ATOM     32  C   UNL     1      -8.086  -2.286  -7.565  0.00  0.00    -0.026 A 
ATOM     33  C   UNL     1      -8.129  -3.357  -6.692  0.00  0.00    +0.006 A 
ATOM     34  C   UNL     1      -9.347  -3.867  -6.284  0.00  0.00    +0.020 A 
ATOM     35  C   UNL     1     -10.523  -3.306  -6.749  0.00  0.00    +0.041 A 
ATOM     36  C   UNL     1     -10.479  -2.234  -7.623  0.00  0.00    +0.020 A 
ATOM     37  C   UNL     1      -9.261  -1.721  -8.026  0.00  0.00    +0.006 A 
ATOM     38 CL   UNL     1     -12.053  -3.947  -6.237  0.00  0.00    -0.084 Cl
ENDBRANCH  31  32
BRANCH  31  39
ATOM     39  C   UNL     1      -5.905  -2.826  -8.497  0.00  0.00    +0.075 C 
ATOM     40  N   UNL     1      -5.247  -3.673  -8.873  0.00  0.00    -0.196 NA
ENDBRANCH  31  39
ENDBRANCH  26  31
ENDBRANCH  21  23
ENDBRANCH   4  21
TORSDOF 8
