REMARK  Name = ZINC22456093
REMARK  4 active torsions:
REMARK  status: ('A' for Active; 'I' for Inactive)
REMARK    1  A    between atoms: C_16  and  C_18
REMARK    2  A    between atoms: C_18  and  C_19
REMARK    3  A    between atoms: C_19  and  N_20
REMARK    4  A    between atoms: N_23  and  C_26
REMARK                            x       y       z     vdW  Elec       q    Type
REMARK                         _______ _______ _______ _____ _____    ______ ____
ROOT
ATOM      1  C   UNL     1       2.675  -0.107   6.017  0.00  0.00    +0.112 C 
ENDROOT
BRANCH   1  17
ATOM      2  C   UNL     1       1.869  -3.186   4.383  0.00  0.00    +0.002 A 
ATOM      3  C   UNL     1       2.530  -4.383   4.183  0.00  0.00    +0.001 A 
ATOM      4  C   UNL     1       3.506  -4.789   5.073  0.00  0.00    +0.017 A 
ATOM      5  C   UNL     1       3.825  -3.998   6.168  0.00  0.00    +0.035 A 
ATOM      6  C   UNL     1       3.159  -2.791   6.374  0.00  0.00    +0.055 A 
ATOM      7  C   UNL     1       2.182  -2.392   5.469  0.00  0.00    +0.025 A 
ATOM      8  N   UNL     1       3.457  -1.962   7.454  0.00  0.00    -0.238 N 
ATOM      9  C   UNL     1       4.035  -2.385   8.650  0.00  0.00    +0.056 A 
ATOM     10  C   UNL     1       3.837  -1.624   9.797  0.00  0.00    +0.045 A 
ATOM     11  C   UNL     1       4.401  -2.011  10.999  0.00  0.00    +0.043 A 
ATOM     12  C   UNL     1       5.166  -3.161  11.069  0.00  0.00    +0.021 A 
ATOM     13  C   UNL     1       5.367  -3.926   9.936  0.00  0.00    +0.018 A 
ATOM     14  C   UNL     1       4.804  -3.543   8.726  0.00  0.00    +0.035 A 
ATOM     15  S   UNL     1       5.069  -4.534   7.294  0.00  0.00    -0.086 S 
ATOM     16 CL   UNL     1       4.147  -1.051  12.423  0.00  0.00    -0.083 Cl
ATOM     17  C   UNL     1       3.158  -0.653   7.336  0.00  0.00    +0.225 C 
ATOM     18  O   UNL     1       3.277   0.085   8.291  0.00  0.00    -0.275 OA
ENDBRANCH   1  17
BRANCH   1  19
ATOM     19  C   UNL     1       3.073   1.366   5.899  0.00  0.00    +0.093 C 
BRANCH  19  20
ATOM     20  N   UNL     1       2.603   1.899   4.613  0.00  0.00    -0.305 NA
ATOM     21  C   UNL     1       3.166   3.231   4.357  0.00  0.00    +0.066 C 
ATOM     22  C   UNL     1       2.591   3.784   3.051  0.00  0.00    -0.063 C 
ATOM     23  N   UNL     1       2.907   2.861   1.951  0.00  0.00    +0.384 N 
ATOM     24  C   UNL     1       2.343   1.528   2.207  0.00  0.00    -0.063 C 
ATOM     25  C   UNL     1       2.918   0.976   3.513  0.00  0.00    +0.066 C 
ATOM     26  H   UNL     1       4.001   2.762   1.895  0.00  0.00    -0.081 HD
BRANCH  23  27
ATOM     27  C   UNL     1       2.436   3.394   0.666  0.00  0.00    -0.062 C 
ATOM     28  C   UNL     1       3.111   4.740   0.393  0.00  0.00    -0.024 C 
ATOM     29  C   UNL     1       4.628   4.548   0.341  0.00  0.00    +0.005 C 
ATOM     30  C   UNL     1       4.979   3.565  -0.778  0.00  0.00    -0.010 C 
ATOM     31  C   UNL     1       4.489   4.120  -2.117  0.00  0.00    +0.007 C 
ATOM     32  C   UNL     1       2.972   4.312  -2.064  0.00  0.00    -0.010 C 
ATOM     33  C   UNL     1       2.621   5.295  -0.946  0.00  0.00    +0.005 C 
ATOM     34  C   UNL     1       2.297   2.966  -1.792  0.00  0.00    +0.005 C 
ATOM     35  C   UNL     1       2.787   2.411  -0.453  0.00  0.00    -0.024 C 
ATOM     36  C   UNL     1       4.304   2.219  -0.505  0.00  0.00    +0.005 C 
ENDBRANCH  23  27
ENDBRANCH  19  20
ENDBRANCH   1  19
TORSDOF 4
