REMARK  Name = ZINC41260690
REMARK  4 active torsions:
REMARK  status: ('A' for Active; 'I' for Inactive)
REMARK    1  A    between atoms: C_5  and  C_7
REMARK    2  A    between atoms: N_12  and  C_15
REMARK    3  A    between atoms: C_15  and  C_17
REMARK    4  A    between atoms: C_15  and  C_19
REMARK                            x       y       z     vdW  Elec       q    Type
REMARK                         _______ _______ _______ _____ _____    ______ ____
ROOT
ATOM      1  C   UNL     1       1.244  -2.119   0.030  0.00  0.00    +0.248 C 
ATOM      2  O   UNL     1       1.212  -0.910   0.159  0.00  0.00    -0.270 OA
ATOM      3  N   UNL     1       0.095  -2.815  -0.078  0.00  0.00    -0.295 N 
ATOM      4  C   UNL     1      -1.200  -2.124  -0.179  0.00  0.00    +0.123 C 
ATOM      5  C   UNL     1      -2.150  -2.716   0.868  0.00  0.00    +0.105 C 
ATOM      6  N   UNL     1      -2.209  -4.175   0.702  0.00  0.00    -0.281 NA
ATOM      7  C   UNL     1      -0.899  -4.792   0.945  0.00  0.00    +0.105 C 
ATOM      8  C   UNL     1       0.103  -4.285  -0.105  0.00  0.00    +0.123 C 
ENDROOT
BRANCH   1  13
ATOM      9  C   UNL     1       4.056  -4.338  -1.096  0.00  0.00    +0.001 A 
ATOM     10  C   UNL     1       4.974  -4.148  -0.078  0.00  0.00    +0.001 A 
ATOM     11  C   UNL     1       4.684  -3.300   0.975  0.00  0.00    +0.021 A 
ATOM     12  C   UNL     1       3.473  -2.636   1.017  0.00  0.00    +0.053 A 
ATOM     13  C   UNL     1       2.542  -2.824  -0.007  0.00  0.00    +0.055 A 
ATOM     14  C   UNL     1       2.843  -3.682  -1.067  0.00  0.00    +0.014 A 
ATOM     15 CL   UNL     1       3.108  -1.573   2.340  0.00  0.00    -0.083 Cl
ENDBRANCH   1  13
BRANCH   6  16
ATOM     16  C   UNL     1      -3.237  -4.762   1.571  0.00  0.00    +0.191 C 
BRANCH  16  17
ATOM     17  C   UNL     1      -4.597  -4.271   1.143  0.00  0.00    -0.013 A 
ATOM     18  C   UNL     1      -4.868  -4.073  -0.198  0.00  0.00    +0.010 A 
ATOM     19  C   UNL     1      -6.113  -3.623  -0.595  0.00  0.00    +0.050 A 
ATOM     20  C   UNL     1      -7.093  -3.370   0.351  0.00  0.00    +0.166 A 
ATOM     21  C   UNL     1      -6.820  -3.571   1.702  0.00  0.00    +0.167 A 
ATOM     22  C   UNL     1      -5.571  -4.027   2.093  0.00  0.00    +0.055 A 
ATOM     23  O   UNL     1      -7.935  -3.254   2.424  0.00  0.00    -0.453 OA
ATOM     24  C   UNL     1      -8.757  -2.471   1.539  0.00  0.00    +0.466 C 
ATOM     25  O   UNL     1      -8.379  -2.929   0.227  0.00  0.00    -0.453 OA
ENDBRANCH  16  17
BRANCH  16  26
ATOM     26  C   UNL     1      -3.190  -6.229   1.465  0.00  0.00    +0.086 C 
ATOM     27  N   UNL     1      -3.153  -7.362   1.383  0.00  0.00    -0.195 NA
ENDBRANCH  16  26
ENDBRANCH   6  16
TORSDOF 4
