REMARK  Name = ZINC20465239
REMARK  7 active torsions:
REMARK  status: ('A' for Active; 'I' for Inactive)
REMARK    1  A    between atoms: N_9  and  C_11
REMARK    2  A    between atoms: C_13  and  C_23
REMARK    3  A    between atoms: C_16  and  C_21
REMARK    4  A    between atoms: C_18  and  O_20
REMARK    5  A    between atoms: C_21  and  O_22
REMARK    6  A    between atoms: C_23  and  N_24
REMARK    7  A    between atoms: N_27  and  C_28
REMARK                            x       y       z     vdW  Elec       q    Type
REMARK                         _______ _______ _______ _____ _____    ______ ____
ROOT
ATOM      1  C   UNL     1       3.590   2.073   0.289  0.00  0.00    -0.006 C 
ATOM      2  C   UNL     1       3.385   3.547   0.689  0.00  0.00    +0.125 C 
ATOM      3  O   UNL     1       4.278   3.821   1.781  0.00  0.00    -0.369 OA
ATOM      4  C   UNL     1       5.389   2.907   1.657  0.00  0.00    +0.171 C 
ATOM      5  C   UNL     1       4.716   1.578   1.228  0.00  0.00    +0.135 C 
ENDROOT
BRANCH   1  14
ATOM      6  C   UNL     1      -2.086  -0.918  -0.112  0.00  0.00    +0.000 A 
ATOM      7  C   UNL     1      -2.093   0.168  -0.967  0.00  0.00    +0.000 A 
ATOM      8  C   UNL     1      -0.957   0.939  -1.110  0.00  0.00    +0.002 A 
ATOM      9  C   UNL     1       0.191   0.635  -0.394  0.00  0.00    -0.061 A 
ATOM     10  C   UNL     1       0.197  -0.447   0.461  0.00  0.00    -0.048 A 
ATOM     11  C   UNL     1      -0.943  -1.223   0.600  0.00  0.00    +0.004 A 
ATOM     12  C   UNL     1       1.420  -0.815   1.262  0.00  0.00    +0.017 C 
ATOM     13  C   UNL     1       2.654  -0.129   0.675  0.00  0.00    -0.073 C 
ATOM     14  N   UNL     1       2.358   1.304   0.513  0.00  0.00    +0.388 N 
ATOM     15  C   UNL     1       1.406   1.504  -0.584  0.00  0.00    -0.042 C 
ATOM     16  H   UNL     1       1.898   1.674   1.441  0.00  0.00    -0.081 HD
ENDBRANCH   1  14
BRANCH   5  17
ATOM     17  O   UNL     1       4.174   0.892   2.358  0.00  0.00    -0.391 OA
ATOM     18  H   UNL     1       4.846   0.477   3.124  0.00  0.00    +0.210 HD
ENDBRANCH   5  17
BRANCH   4  19
ATOM     19  C   UNL     1       6.103   2.740   3.000  0.00  0.00    +0.190 C 
BRANCH  19  20
ATOM     20  O   UNL     1       6.723   3.974   3.366  0.00  0.00    -0.392 OA
ATOM     21  H   UNL     1       7.287   4.049   4.308  0.00  0.00    +0.210 HD
ENDBRANCH  19  20
ENDBRANCH   4  19
BRANCH   2  22
ATOM     22  C   UNL     1       1.937   3.769   1.133  0.00  0.00    +0.135 C 
BRANCH  22  23
ATOM     23  N   UNL     1       1.801   5.114   1.699  0.00  0.00    -0.297 N 
ATOM     24  C   UNL     1       0.606   5.533   2.159  0.00  0.00    +0.304 C 
ATOM     25  O   UNL     1      -0.359   4.796   2.105  0.00  0.00    -0.253 OA
ATOM     26  N   UNL     1       0.480   6.770   2.679  0.00  0.00    -0.269 N 
ATOM     27  H   UNL     1       2.674   5.781   1.748  0.00  0.00    +0.150 HD
ATOM     28  H   UNL     1       1.329   7.470   2.646  0.00  0.00    +0.156 HD
BRANCH  26  29
ATOM     29  C   UNL     1      -0.730   7.165   3.261  0.00  0.00    +0.036 A 
ATOM     30  C   UNL     1      -1.516   6.236   3.929  0.00  0.00    +0.023 A 
ATOM     31  C   UNL     1      -2.710   6.628   4.503  0.00  0.00    +0.003 A 
ATOM     32  C   UNL     1      -3.122   7.945   4.413  0.00  0.00    +0.020 A 
ATOM     33  C   UNL     1      -2.341   8.873   3.749  0.00  0.00    +0.043 A 
ATOM     34  C   UNL     1      -1.143   8.488   3.177  0.00  0.00    +0.043 A 
ATOM     35 CL   UNL     1      -2.862  10.526   3.639  0.00  0.00    -0.083 Cl
ENDBRANCH  26  29
ENDBRANCH  22  23
ENDBRANCH   2  22
TORSDOF 7
