REMARK  Name = ZINC27237369
REMARK  14 active torsions:
REMARK  status: ('A' for Active; 'I' for Inactive)
REMARK    1  A    between atoms: C_1  and  C_2
REMARK    2  A    between atoms: C_2  and  C_3
REMARK    3  A    between atoms: C_3  and  C_4
REMARK    4  A    between atoms: C_4  and  C_5
REMARK    5  A    between atoms: C_4  and  C_14
REMARK    6  A    between atoms: C_4  and  O_31
REMARK    7  A    between atoms: C_8  and  O_11
REMARK    8  A    between atoms: O_11  and  C_12
REMARK    9  A    between atoms: C_12  and  C_13
REMARK   10  A    between atoms: C_14  and  C_16
REMARK   11  A    between atoms: C_14  and  O_22
REMARK   12  A    between atoms: C_16  and  N_17
REMARK   13  A    between atoms: O_22  and  C_23
REMARK   14  A    between atoms: C_28  and  C_29
REMARK                            x       y       z     vdW  Elec       q    Type
REMARK                         _______ _______ _______ _____ _____    ______ ____
ROOT
ATOM      1  C   UNL     1       2.786  -2.482  -0.583  0.00  0.00    +0.193 C 
ENDROOT
BRANCH   1   2
ATOM      2  C   UNL     1       2.624  -3.737  -1.442  0.00  0.00    +0.126 C 
BRANCH   2   3
ATOM      3  C   UNL     1       3.879  -4.568  -1.360  0.00  0.00    -0.012 A 
ATOM      4  C   UNL     1       5.101  -3.953  -1.162  0.00  0.00    +0.010 A 
ATOM      5  C   UNL     1       6.252  -4.712  -1.081  0.00  0.00    +0.046 A 
ATOM      6  C   UNL     1       6.183  -6.092  -1.211  0.00  0.00    +0.121 A 
ATOM      7  C   UNL     1       4.955  -6.706  -1.415  0.00  0.00    +0.046 A 
ATOM      8  C   UNL     1       3.806  -5.942  -1.489  0.00  0.00    +0.010 A 
BRANCH   6   9
ATOM      9  O   UNL     1       7.314  -6.840  -1.138  0.00  0.00    -0.492 OA
BRANCH   9  10
ATOM     10  C   UNL     1       8.542  -6.141  -0.926  0.00  0.00    +0.225 C 
ATOM     11  C   UNL     1       9.697  -7.143  -0.873  0.00  0.00    +0.048 C 
ENDBRANCH   9  10
ENDBRANCH   6   9
ENDBRANCH   2   3
BRANCH   2  12
ATOM     12  O   UNL     1       1.515  -4.502  -0.963  0.00  0.00    -0.380 OA
ATOM     13  H   UNL     1       1.514  -4.883   0.068  0.00  0.00    +0.211 HD
ENDBRANCH   2  12
BRANCH   2  14
ATOM     14  C   UNL     1       2.374  -3.332  -2.896  0.00  0.00    +0.043 C 
BRANCH  14  16
ATOM     15  C   UNL     1       2.168  -4.170  -5.240  0.00  0.00    +0.004 C 
ATOM     16  C   UNL     1       2.377  -4.580  -3.781  0.00  0.00    -0.000 C 
ENDBRANCH  14  16
ENDBRANCH   2  14
ENDBRANCH   1   2
BRANCH   1  17
ATOM     17  C   UNL     1       2.883  -2.881   0.891  0.00  0.00    -0.030 C 
BRANCH  17  18
ATOM     18  N   UNL     1       3.345  -1.732   1.680  0.00  0.00    +0.382 N 
ATOM     19  C   UNL     1       2.400  -0.592   1.565  0.00  0.00    -0.079 C 
ATOM     20  C   UNL     1       2.732   0.271   2.808  0.00  0.00    -0.020 C 
ATOM     21  C   UNL     1       3.029  -0.787   3.895  0.00  0.00    -0.020 C 
ATOM     22  C   UNL     1       3.401  -2.066   3.120  0.00  0.00    -0.079 C 
ATOM     23  H   UNL     1       4.341  -1.479   1.286  0.00  0.00    -0.082 HD
ENDBRANCH  17  18
ENDBRANCH   1  17
BRANCH   1  24
ATOM     24  O   UNL     1       1.657  -1.626  -0.771  0.00  0.00    -0.487 OA
BRANCH  24  25
ATOM     25  C   UNL     1       1.859  -0.487  -1.485  0.00  0.00    +0.124 A 
ATOM     26  C   UNL     1       3.067  -0.279  -2.135  0.00  0.00    +0.047 A 
ATOM     27  C   UNL     1       3.269   0.879  -2.860  0.00  0.00    +0.023 A 
ATOM     28  C   UNL     1       2.268   1.832  -2.938  0.00  0.00    +0.041 A 
ATOM     29  C   UNL     1       1.063   1.626  -2.291  0.00  0.00    +0.027 A 
ATOM     30  C   UNL     1       0.857   0.469  -1.564  0.00  0.00    -0.007 A 
ATOM     31  C   UNL     1      -0.456   0.245  -0.859  0.00  0.00    +0.047 C 
ATOM     32 CL   UNL     1       2.525   3.286  -3.850  0.00  0.00    -0.084 Cl
ENDBRANCH  24  25
ENDBRANCH   1  24
TORSDOF 11
