REMARK  Name = ZINC02517053
REMARK  9 active torsions:
REMARK  status: ('A' for Active; 'I' for Inactive)
REMARK    1  A    between atoms: C_5  and  S_12
REMARK    2  A    between atoms: S_12  and  N_15
REMARK    3  A    between atoms: N_15  and  C_16
REMARK    4  A    between atoms: C_16  and  C_17
REMARK    5  A    between atoms: C_17  and  C_18
REMARK    6  A    between atoms: C_18  and  C_19
REMARK    7  A    between atoms: C_19  and  C_20
REMARK    8  A    between atoms: C_20  and  C_21
REMARK    9  A    between atoms: C_21  and  N_22
REMARK                            x       y       z     vdW  Elec       q    Type
REMARK                         _______ _______ _______ _____ _____    ______ ____
ROOT
ATOM      1  S   UNL     1       6.287   2.347  -0.044  0.00  0.00    +0.058 S 
ATOM      2  O   UNL     1       7.261   1.480  -0.609  0.00  0.00    -0.153 OA
ATOM      3  O   UNL     1       6.004   3.630  -0.586  0.00  0.00    -0.153 OA
ENDROOT
BRANCH   1   8
ATOM      4  C   UNL     1      -0.017   1.389   0.010  0.00  0.00    +0.002 A 
ATOM      5  C   UNL     1       1.140   2.106   0.003  0.00  0.00    +0.008 A 
ATOM      6  C   UNL     1       2.375   1.435  -0.013  0.00  0.00    -0.015 A 
ATOM      7  C   UNL     1       3.590   2.141  -0.020  0.00  0.00    +0.037 A 
ATOM      8  C   UNL     1       4.766   1.457  -0.035  0.00  0.00    +0.106 A 
ATOM      9  C   UNL     1       4.786   0.064  -0.042  0.00  0.00    +0.029 A 
ATOM     10  C   UNL     1       3.630  -0.654  -0.036  0.00  0.00    +0.012 A 
ATOM     11  C   UNL     1       2.395   0.018  -0.021  0.00  0.00    +0.001 A 
ATOM     12  C   UNL     1       1.180  -0.689  -0.013  0.00  0.00    +0.049 A 
ATOM     13  C   UNL     1       0.002  -0.004   0.002  0.00  0.00    +0.020 A 
ATOM     14 CL   UNL     1       1.179  -2.425  -0.023  0.00  0.00    -0.083 Cl
ENDBRANCH   1   8
BRANCH   1  15
ATOM     15  N   UNL     1       6.724   2.586   1.535  0.00  0.00    -0.190 NA
ATOM     16  H   UNL     1       6.760   3.485   1.898  0.00  0.00    +0.148 HD
BRANCH  15  17
ATOM     17  C   UNL     1       7.058   1.440   2.384  0.00  0.00    +0.106 C 
BRANCH  17  18
ATOM     18  C   UNL     1       7.773   1.930   3.645  0.00  0.00    +0.017 C 
BRANCH  18  19
ATOM     19  C   UNL     1       8.121   0.733   4.532  0.00  0.00    +0.001 C 
BRANCH  19  20
ATOM     20  C   UNL     1       8.837   1.223   5.792  0.00  0.00    -0.002 C 
BRANCH  20  21
ATOM     21  C   UNL     1       9.185   0.026   6.679  0.00  0.00    -0.020 C 
BRANCH  21  22
ATOM     22  C   UNL     1       9.901   0.516   7.939  0.00  0.00    -0.086 C 
BRANCH  22  23
ATOM     23  N   UNL     1      10.235  -0.633   8.791  0.00  0.00    +0.378 N 
ATOM     24  H   UNL     1      10.707  -0.310   9.622  0.00  0.00    -0.090 HD
ATOM     25  H   UNL     1       9.389  -1.116   9.052  0.00  0.00    -0.090 HD
ATOM     26  H   UNL     1      10.839  -1.262   8.284  0.00  0.00    -0.090 HD
ENDBRANCH  22  23
ENDBRANCH  21  22
ENDBRANCH  20  21
ENDBRANCH  19  20
ENDBRANCH  18  19
ENDBRANCH  17  18
ENDBRANCH  15  17
ENDBRANCH   1  15
TORSDOF 9
