REMARK  Name = ZINC17449154
REMARK  6 active torsions:
REMARK  status: ('A' for Active; 'I' for Inactive)
REMARK    1  A    between atoms: C_1  and  C_2
REMARK    2  A    between atoms: C_10  and  C_11
REMARK    3  A    between atoms: N_13  and  N_14
REMARK    4  A    between atoms: C_15  and  C_17
REMARK    5  A    between atoms: C_17  and  N_18
REMARK    6  A    between atoms: C_19  and  C_21
REMARK                            x       y       z     vdW  Elec       q    Type
REMARK                         _______ _______ _______ _____ _____    ______ ____
ROOT
ATOM      1  C   UNL     1      -1.187   1.624   0.017  0.00  0.00    +0.296 C 
ATOM      2  O   UNL     1      -1.204   2.840   0.023  0.00  0.00    -0.265 OA
ATOM      3  N   UNL     1      -0.011   0.966   0.007  0.00  0.00    -0.228 N 
ATOM      4  H   UNL     1       0.002  -0.004   0.002  0.00  0.00    +0.173 HD
ENDROOT
BRANCH   1  14
ATOM      5  C   UNL     1      -4.025   2.895   0.050  0.00  0.00    +0.048 C 
ATOM      6  C   UNL     1      -3.690   1.426   0.033  0.00  0.00    +0.008 A 
ATOM      7  C   UNL     1      -4.633   0.308   0.025  0.00  0.00    +0.024 A 
ATOM      8  C   UNL     1      -6.027   0.211   0.031  0.00  0.00    +0.012 A 
ATOM      9  C   UNL     1      -6.619  -1.020   0.027  0.00  0.00    +0.001 A 
ATOM     10  C   UNL     1      -5.846  -2.173   0.018  0.00  0.00    +0.004 A 
ATOM     11  C   UNL     1      -4.470  -2.098   0.012  0.00  0.00    +0.047 A 
ATOM     12  C   UNL     1      -3.844  -0.857   0.016  0.00  0.00    +0.136 A 
ATOM     13  O   UNL     1      -2.553  -0.474   0.012  0.00  0.00    -0.450 OA
ATOM     14  C   UNL     1      -2.450   0.872   0.018  0.00  0.00    +0.195 A 
ENDBRANCH   1  14
BRANCH   3  15
ATOM     15  N   UNL     1       1.193   1.683  -0.000  0.00  0.00    -0.233 N 
ATOM     16  C   UNL     1       2.369   1.025  -0.015  0.00  0.00    +0.246 C 
ATOM     17  O   UNL     1       2.385  -0.188  -0.022  0.00  0.00    -0.273 OA
ATOM     18  H   UNL     1       1.179   2.653   0.005  0.00  0.00    +0.173 HD
BRANCH  16  19
ATOM     19  C   UNL     1       3.663   1.796  -0.023  0.00  0.00    +0.202 C 
BRANCH  19  20
ATOM     20  N   UNL     1       4.790   0.859  -0.039  0.00  0.00    -0.300 N 
ATOM     21  C   UNL     1       6.054   1.326  -0.049  0.00  0.00    +0.280 C 
ATOM     22  O   UNL     1       6.260   2.525  -0.044  0.00  0.00    -0.267 OA
ATOM     23  H   UNL     1       4.625  -0.097  -0.043  0.00  0.00    +0.150 HD
BRANCH  21  24
ATOM     24  C   UNL     1       7.182   0.388  -0.064  0.00  0.00    +0.189 A 
ATOM     25  C   UNL     1       8.505   0.725  -0.075  0.00  0.00    +0.054 A 
ATOM     26  C   UNL     1       9.227  -0.479  -0.088  0.00  0.00    +0.042 A 
ATOM     27  C   UNL     1       8.325  -1.485  -0.085  0.00  0.00    +0.196 A 
ATOM     28  O   UNL     1       7.093  -0.958  -0.065  0.00  0.00    -0.458 OA
ENDBRANCH  21  24
ENDBRANCH  19  20
ENDBRANCH  16  19
ENDBRANCH   3  15
TORSDOF 5
