REMARK  Name = ZINC38966060
REMARK  6 active torsions:
REMARK  status: ('A' for Active; 'I' for Inactive)
REMARK    1  A    between atoms: C_4  and  C_7
REMARK    2  A    between atoms: C_7  and  C_8
REMARK    3  A    between atoms: C_8  and  N_9
REMARK    4  A    between atoms: N_9  and  C_10
REMARK    5  A    between atoms: N_13  and  S_14
REMARK    6  A    between atoms: S_14  and  C_17
REMARK                            x       y       z     vdW  Elec       q    Type
REMARK                         _______ _______ _______ _____ _____    ______ ____
ROOT
ATOM      1  C   UNL     1       5.927  -1.944   2.747  0.00  0.00    +0.219 C 
ATOM      2  C   UNL     1       6.310  -3.405   2.829  0.00  0.00    +0.188 C 
ATOM      3  N   UNL     1       5.439  -4.331   2.558  0.00  0.00    -0.110 NA
ATOM      4  N   UNL     1       7.563  -3.730   3.184  0.00  0.00    -0.226 NA
ATOM      5  C   UNL     1       8.463  -2.811   3.463  0.00  0.00    +0.089 A 
ATOM      6  C   UNL     1       9.778  -3.191   3.835  0.00  0.00    +0.030 A 
ATOM      7  C   UNL     1      10.705  -2.252   4.122  0.00  0.00    +0.002 A 
ATOM      8  C   UNL     1      10.432  -0.875   4.072  0.00  0.00    +0.002 A 
ATOM      9  C   UNL     1       9.213  -0.404   3.730  0.00  0.00    +0.027 A 
ATOM     10  C   UNL     1       8.147  -1.362   3.401  0.00  0.00    +0.063 A 
ATOM     11  N   UNL     1       6.959  -0.945   3.065  0.00  0.00    -0.362 N 
ATOM     12  H   UNL     1       6.760   0.003   3.026  0.00  0.00    +0.162 HD
ENDROOT
BRANCH   3  13
ATOM     13  S   UNL     1       5.872  -5.927   2.651  0.00  0.00    +0.102 S 
ATOM     14  O   UNL     1       6.834  -6.147   1.628  0.00  0.00    -0.146 OA
ATOM     15  O   UNL     1       6.141  -6.196   4.020  0.00  0.00    -0.146 OA
BRANCH  13  16
ATOM     16  C   UNL     1       4.452  -6.878   2.220  0.00  0.00    +0.132 A 
ATOM     17  C   UNL     1       4.464  -7.660   1.081  0.00  0.00    +0.050 A 
ATOM     18  C   UNL     1       3.349  -8.406   0.743  0.00  0.00    +0.043 A 
ATOM     19  C   UNL     1       2.223  -8.370   1.546  0.00  0.00    +0.021 A 
ATOM     20  C   UNL     1       2.211  -7.588   2.685  0.00  0.00    +0.023 A 
ATOM     21  C   UNL     1       3.328  -6.846   3.026  0.00  0.00    +0.068 A 
ATOM     22 CL   UNL     1       3.317  -5.869   4.461  0.00  0.00    -0.082 Cl
ATOM     23 CL   UNL     1       3.363  -9.388  -0.689  0.00  0.00    -0.083 Cl
ENDBRANCH  13  16
ENDBRANCH   3  13
BRANCH   1  24
ATOM     24  N   UNL     1       5.453  -1.680   1.382  0.00  0.00    -0.290 NA
ATOM     25  H   UNL     1       5.382  -2.536   0.852  0.00  0.00    +0.124 HD
BRANCH  24  26
ATOM     26  C   UNL     1       4.171  -0.963   1.399  0.00  0.00    +0.088 C 
BRANCH  26  27
ATOM     27  C   UNL     1       3.711  -0.707  -0.038  0.00  0.00    +0.050 C 
BRANCH  27  31
ATOM     28  C   UNL     1      -0.017   1.378   0.010  0.00  0.00    +0.000 A 
ATOM     29  C   UNL     1       1.171   2.086   0.002  0.00  0.00    +0.000 A 
ATOM     30  C   UNL     1       2.377   1.411  -0.013  0.00  0.00    +0.003 A 
ATOM     31  C   UNL     1       2.396   0.029  -0.020  0.00  0.00    -0.046 A 
ATOM     32  C   UNL     1       1.208  -0.679  -0.012  0.00  0.00    +0.003 A 
ATOM     33  C   UNL     1       0.002  -0.004   0.002  0.00  0.00    +0.000 A 
ENDBRANCH  27  31
ENDBRANCH  26  27
ENDBRANCH  24  26
ENDBRANCH   1  24
TORSDOF 6
