REMARK  Name = ZINC12363551
REMARK  9 active torsions:
REMARK  status: ('A' for Active; 'I' for Inactive)
REMARK    1  A    between atoms: C_7  and  C_16
REMARK    2  A    between atoms: N_9  and  C_10
REMARK    3  A    between atoms: C_10  and  C_11
REMARK    4  A    between atoms: C_11  and  C_13
REMARK    5  A    between atoms: C_11  and  O_15
REMARK    6  A    between atoms: C_13  and  O_14
REMARK    7  A    between atoms: C_16  and  N_56
REMARK    8  A    between atoms: C_19  and  C_22
REMARK    9  A    between atoms: C_19  and  O_29
REMARK                            x       y       z     vdW  Elec       q    Type
REMARK                         _______ _______ _______ _____ _____    ______ ____
ROOT
ATOM      1  C   UNL     1      -1.767   4.701   0.045  0.00  0.00    -0.041 C 
ENDROOT
BRANCH   1   8
ATOM      2  C   UNL     1       2.909   4.372  -0.003  0.00  0.00    +0.001 A 
ATOM      3  C   UNL     1       3.359   3.058  -0.014  0.00  0.00    +0.002 A 
ATOM      4  C   UNL     1       2.466   2.010  -0.011  0.00  0.00    +0.026 A 
ATOM      5  C   UNL     1       1.098   2.267   0.004  0.00  0.00    +0.049 A 
ATOM      6  C   UNL     1       0.648   3.599   0.015  0.00  0.00    +0.001 A 
ATOM      7  C   UNL     1       1.571   4.647   0.011  0.00  0.00    +0.010 A 
ATOM      8  C   UNL     1      -0.816   3.532   0.029  0.00  0.00    -0.039 A 
ATOM      9  C   UNL     1      -1.148   2.232   0.019  0.00  0.00    +0.088 A 
ATOM     10  N   UNL     1      -0.018   1.461   0.010  0.00  0.00    -0.344 N 
BRANCH  10  11
ATOM     11  C   UNL     1       0.002  -0.004   0.002  0.00  0.00    +0.155 C 
BRANCH  11  12
ATOM     12  C   UNL     1       0.148  -0.520   1.435  0.00  0.00    +0.159 C 
BRANCH  12  13
ATOM     13  O   UNL     1      -1.010  -0.162   2.191  0.00  0.00    -0.388 OA
ATOM     14  H   UNL     1      -1.836  -0.523   1.840  0.00  0.00    +0.210 HD
ENDBRANCH  12  13
BRANCH  12  15
ATOM     15  C   UNL     1       0.294  -2.043   1.416  0.00  0.00    +0.188 C 
BRANCH  15  16
ATOM     16  O   UNL     1       0.547  -2.514   2.742  0.00  0.00    -0.392 OA
ATOM     17  H   UNL     1       0.651  -3.473   2.805  0.00  0.00    +0.210 HD
ENDBRANCH  15  16
ENDBRANCH  12  15
ENDBRANCH  11  12
ENDBRANCH  10  11
ENDBRANCH   1   8
BRANCH   1  23
ATOM     18  C   UNL     1      -0.636   5.820  -1.780  0.00  0.00    -0.075 C 
ATOM     19  C   UNL     1      -0.773   6.239  -3.246  0.00  0.00    +0.021 C 
ATOM     20  C   UNL     1      -1.903   7.263  -3.375  0.00  0.00    +0.090 C 
ATOM     21  C   UNL     1      -3.200   6.652  -2.840  0.00  0.00    +0.021 C 
ATOM     22  C   UNL     1      -2.993   6.221  -1.386  0.00  0.00    -0.075 C 
ATOM     23  N   UNL     1      -1.909   5.217  -1.333  0.00  0.00    +0.383 N 
ATOM     24  H   UNL     1      -2.146   4.437  -1.958  0.00  0.00    -0.081 HD
BRANCH  20  25
ATOM     25  C   UNL     1      -2.082   7.635  -4.825  0.00  0.00    +0.019 A 
ATOM     26  C   UNL     1      -1.929   8.949  -5.226  0.00  0.00    +0.009 A 
ATOM     27  C   UNL     1      -2.093   9.290  -6.555  0.00  0.00    +0.001 A 
ATOM     28  C   UNL     1      -2.409   8.317  -7.486  0.00  0.00    +0.003 A 
ATOM     29  C   UNL     1      -2.562   7.003  -7.087  0.00  0.00    +0.039 A 
ATOM     30  C   UNL     1      -2.394   6.659  -5.756  0.00  0.00    +0.129 A 
ATOM     31  F   UNL     1      -2.538   5.374  -5.366  0.00  0.00    -0.205 F 
ENDBRANCH  20  25
BRANCH  20  32
ATOM     32  O   UNL     1      -1.578   8.431  -2.619  0.00  0.00    -0.384 OA
ATOM     33  H   UNL     1      -0.765   8.871  -2.904  0.00  0.00    +0.211 HD
ENDBRANCH  20  32
ENDBRANCH   1  23
TORSDOF 9
