REMARK  Name = ZINC63572166
REMARK  7 active torsions:
REMARK  status: ('A' for Active; 'I' for Inactive)
REMARK    1  A    between atoms: C_1  and  C_2
REMARK    2  A    between atoms: C_2  and  O_3
REMARK    3  A    between atoms: O_3  and  C_4
REMARK    4  A    between atoms: C_9  and  N_10
REMARK    5  A    between atoms: C_26  and  C_28
REMARK    6  A    between atoms: C_31  and  O_34
REMARK    7  A    between atoms: O_34  and  C_35
REMARK                            x       y       z     vdW  Elec       q    Type
REMARK                         _______ _______ _______ _____ _____    ______ ____
ROOT
ATOM      1  N   UNL     1      -3.904  -1.971   0.211  0.00  0.00    -0.266 N 
ATOM      2  C   UNL     1      -5.181  -2.360   0.030  0.00  0.00    +0.307 C 
ATOM      3  O   UNL     1      -5.449  -3.542  -0.065  0.00  0.00    -0.252 OA
ATOM      4  N   UNL     1      -6.162  -1.439  -0.046  0.00  0.00    -0.276 N 
ATOM      5  C   UNL     1      -5.820  -0.013  -0.042  0.00  0.00    +0.114 C 
ATOM      6  C   UNL     1      -6.374   0.651  -1.316  0.00  0.00    +0.052 C 
ATOM      7  C   UNL     1      -7.790   0.158  -1.479  0.00  0.00    -0.035 C 
ATOM      8  C   UNL     1      -8.932   0.811  -1.657  0.00  0.00    +0.001 A 
ATOM      9  C   UNL     1      -9.221   2.239  -1.868  0.00  0.00    +0.030 A 
ATOM     10  C   UNL     1     -10.534   2.572  -1.997  0.00  0.00    +0.042 A 
ATOM     11  C   UNL     1     -11.574   1.638  -1.936  0.00  0.00    +0.022 A 
ATOM     12  C   UNL     1     -11.399   0.306  -1.753  0.00  0.00    +0.027 A 
ATOM     13  C   UNL     1     -10.061  -0.167  -1.614  0.00  0.00    +0.043 A 
ATOM     14  N   UNL     1      -9.609  -1.376  -1.454  0.00  0.00    -0.375 N 
ATOM     15  C   UNL     1      -8.147  -1.323  -1.438  0.00  0.00    +0.131 C 
ATOM     16  C   UNL     1      -7.564  -1.874  -0.138  0.00  0.00    +0.134 C 
ATOM     17 CL   UNL     1     -10.939   4.242  -2.248  0.00  0.00    -0.084 Cl
ATOM     18  H   UNL     1      -3.695  -1.031   0.329  0.00  0.00    +0.156 HD
ATOM     19  H   UNL     1     -10.149  -2.176  -1.361  0.00  0.00    +0.160 HD
ENDROOT
BRANCH   1  25
ATOM     20  C   UNL     1      -1.581  -2.561  -0.131  0.00  0.00    +0.142 A 
ATOM     21  C   UNL     1      -0.568  -3.506  -0.106  0.00  0.00    +0.047 A 
ATOM     22  C   UNL     1      -0.846  -4.808   0.269  0.00  0.00    +0.004 A 
ATOM     23  C   UNL     1      -2.133  -5.170   0.620  0.00  0.00    +0.002 A 
ATOM     24  C   UNL     1      -3.149  -4.233   0.598  0.00  0.00    +0.027 A 
ATOM     25  C   UNL     1      -2.876  -2.924   0.228  0.00  0.00    +0.077 A 
BRANCH  20  26
ATOM     26  O   UNL     1      -1.309  -1.281  -0.500  0.00  0.00    -0.490 OA
BRANCH  26  28
ATOM     27  C   UNL     1       0.153   0.496  -1.240  0.00  0.00    +0.048 C 
ATOM     28  C   UNL     1       0.042  -0.981  -0.856  0.00  0.00    +0.226 C 
ENDBRANCH  26  28
ENDBRANCH  20  26
ENDBRANCH   1  25
BRANCH  16  29
ATOM     29  C   UNL     1      -8.344  -1.337   1.034  0.00  0.00    -0.024 A 
ATOM     30  C   UNL     1      -8.488   0.028   1.200  0.00  0.00    +0.009 A 
ATOM     31  C   UNL     1      -9.202   0.523   2.274  0.00  0.00    +0.046 A 
ATOM     32  C   UNL     1      -9.775  -0.351   3.187  0.00  0.00    +0.120 A 
ATOM     33  C   UNL     1      -9.629  -1.720   3.018  0.00  0.00    +0.046 A 
ATOM     34  C   UNL     1      -8.918  -2.210   1.939  0.00  0.00    +0.009 A 
BRANCH  32  35
ATOM     35  O   UNL     1     -10.477   0.133   4.245  0.00  0.00    -0.495 OA
ATOM     36  C   UNL     1     -11.039  -0.825   5.144  0.00  0.00    +0.277 C 
ENDBRANCH  32  35
ENDBRANCH  16  29
TORSDOF 5
