REMARK  Name = ZINC02299200
REMARK  12 active torsions:
REMARK  status: ('A' for Active; 'I' for Inactive)
REMARK    1  A    between atoms: C_1  and  C_2
REMARK    2  A    between atoms: C_2  and  CA_3
REMARK    3  A    between atoms: CA_3  and  C_5
REMARK    4  A    between atoms: CA_3  and  N_66
REMARK    5  A    between atoms: C_5  and  O_6
REMARK    6  A    between atoms: C_7  and  C_8
REMARK    7  A    between atoms: C_7  and  N_66
REMARK    8  A    between atoms: C_8  and  C_10
REMARK    9  A    between atoms: C_8  and  O_36
REMARK   10  A    between atoms: C_10  and  N_11
REMARK   11  A    between atoms: C_22  and  C_30
REMARK   12  A    between atoms: C_23  and  C_24
REMARK                            x       y       z     vdW  Elec       q    Type
REMARK                         _______ _______ _______ _____ _____    ______ ____
ROOT
ATOM      1  N   UNL     1      -0.450   7.407  -4.188  0.00  0.00    -0.336 N 
ATOM      2  C   UNL     1      -0.159   6.990  -5.464  0.00  0.00    +0.058 A 
ATOM      3  C   UNL     1       0.862   6.171  -5.998  0.00  0.00    +0.006 A 
ATOM      4  C   UNL     1       1.843   5.604  -5.171  0.00  0.00    +0.010 A 
ATOM      5  C   UNL     1       2.814   4.819  -5.716  0.00  0.00    +0.001 A 
ATOM      6  C   UNL     1       2.847   4.571  -7.086  0.00  0.00    +0.001 A 
ATOM      7  C   UNL     1       1.910   5.106  -7.917  0.00  0.00    +0.008 A 
ATOM      8  C   UNL     1       0.894   5.920  -7.391  0.00  0.00    -0.016 A 
ATOM      9  C   UNL     1      -0.088   6.486  -8.230  0.00  0.00    +0.009 A 
ATOM     10  C   UNL     1      -1.068   7.263  -7.708  0.00  0.00    +0.011 A 
ATOM     11  C   UNL     1      -1.117   7.530  -6.327  0.00  0.00    +0.009 A 
ATOM     12  C   UNL     1      -2.024   8.326  -5.489  0.00  0.00    +0.015 A 
ATOM     13  C   UNL     1      -1.562   8.210  -4.194  0.00  0.00    +0.058 A 
ENDROOT
BRANCH  13  14
ATOM     14  C   UNL     1      -2.167   8.845  -3.007  0.00  0.00    -0.001 A 
ATOM     15  C   UNL     1      -2.466   8.080  -1.877  0.00  0.00    +0.010 A 
ATOM     16  C   UNL     1      -3.026   8.682  -0.769  0.00  0.00    +0.001 A 
ATOM     17  C   UNL     1      -3.303  10.038  -0.780  0.00  0.00    +0.000 A 
ATOM     18  C   UNL     1      -3.014  10.801  -1.897  0.00  0.00    +0.001 A 
ATOM     19  C   UNL     1      -2.449  10.213  -3.010  0.00  0.00    +0.010 A 
ENDBRANCH  13  14
BRANCH  12  20
ATOM     20  C   UNL     1      -3.201   9.100  -5.945  0.00  0.00    -0.015 A 
ATOM     21  C   UNL     1      -4.483   8.729  -5.537  0.00  0.00    +0.008 A 
ATOM     22  C   UNL     1      -5.576   9.457  -5.961  0.00  0.00    +0.001 A 
ATOM     23  C   UNL     1      -5.404  10.546  -6.796  0.00  0.00    +0.000 A 
ATOM     24  C   UNL     1      -4.135  10.916  -7.208  0.00  0.00    +0.001 A 
ATOM     25  C   UNL     1      -3.034  10.199  -6.788  0.00  0.00    +0.008 A 
ENDBRANCH  12  20
BRANCH   1  26
ATOM     26  C   UNL     1       0.321   7.051  -2.994  0.00  0.00    +0.151 C 
BRANCH  26  27
ATOM     27  C   UNL     1       1.420   8.091  -2.768  0.00  0.00    +0.117 C 
BRANCH  27  28
ATOM     28  O   UNL     1       2.336   8.062  -3.865  0.00  0.00    -0.392 OA
ATOM     29  H   UNL     1       2.866   7.255  -3.913  0.00  0.00    +0.210 HD
ENDBRANCH  27  28
BRANCH  27  30
ATOM     30  C   UNL     1       2.167   7.771  -1.472  0.00  0.00    -0.049 C 
BRANCH  30  31
ATOM     31  N   UNL     1       3.143   8.842  -1.199  0.00  0.00    +0.384 N 
ATOM     32  H1  UNL     1       3.861   8.842  -1.933  0.00  0.00    -0.085 HD
ATOM     33  H2  UNL     1       2.660   9.748  -1.193  0.00  0.00    -0.085 HD
BRANCH  31  34
ATOM     34  CA  UNL     1       3.787   8.627   0.111  0.00  0.00    -0.046 C 
BRANCH  34  36
ATOM     35  C   UNL     1       5.551   7.335   1.320  0.00  0.00    +0.002 C 
ATOM     36  C   UNL     1       4.979   7.681  -0.056  0.00  0.00    -0.017 C 
ENDBRANCH  34  36
BRANCH  34  37
ATOM     37  C   UNL     1       4.275   9.970   0.658  0.00  0.00    +0.140 C 
BRANCH  37  38
ATOM     38  O   UNL     1       5.299  10.488  -0.194  0.00  0.00    -0.397 OA
ATOM     39  H   UNL     1       5.655  11.339   0.093  0.00  0.00    +0.209 HD
ENDBRANCH  37  38
ENDBRANCH  34  37
ENDBRANCH  31  34
ENDBRANCH  30  31
ENDBRANCH  27  30
ENDBRANCH  26  27
ENDBRANCH   1  26
TORSDOF 11
