REMARK  Name = ZINC24593389
REMARK  13 active torsions:
REMARK  status: ('A' for Active; 'I' for Inactive)
REMARK    1  A    between atoms: C_1  and  C_2
REMARK    2  A    between atoms: C_2  and  C_3
REMARK    3  A    between atoms: C_3  and  C_4
REMARK    4  A    between atoms: C_4  and  N_5
REMARK    5  A    between atoms: N_5  and  C_6
REMARK    6  A    between atoms: C_7  and  N_19
REMARK    7  A    between atoms: N_8  and  C_15
REMARK    8  A    between atoms: C_15  and  C_16
REMARK    9  A    between atoms: C_16  and  C_17
REMARK   10  A    between atoms: C_16  and  C_18
REMARK   11  A    between atoms: C_20  and  C_22
REMARK   12  A    between atoms: C_22  and  N_23
REMARK   13  A    between atoms: C_29  and  C_31
REMARK                            x       y       z     vdW  Elec       q    Type
REMARK                         _______ _______ _______ _____ _____    ______ ____
ROOT
ATOM      1  N   UNL     1      -1.275  -0.525   0.026  0.00  0.00    -0.266 N 
ATOM      2  C   UNL     1      -1.705  -0.887   1.252  0.00  0.00    +0.203 C 
ATOM      3  O   UNL     1      -2.780  -1.434   1.382  0.00  0.00    -0.277 OA
ENDROOT
BRANCH   1   4
ATOM      4  C   UNL     1      -2.122  -0.678  -1.092  0.00  0.00    +0.140 A 
ATOM      5  C   UNL     1      -1.808  -1.575  -2.093  0.00  0.00    +0.127 A 
ATOM      6  N   UNL     1      -2.654  -1.702  -3.170  0.00  0.00    -0.280 N 
ATOM      7  C   UNL     1      -3.775  -0.961  -3.247  0.00  0.00    +0.331 A 
ATOM      8  O   UNL     1      -4.510  -1.089  -4.207  0.00  0.00    -0.246 OA
ATOM      9  N   UNL     1      -4.096  -0.082  -2.282  0.00  0.00    -0.273 N 
ATOM     10  H   UNL     1      -5.014   0.518  -2.368  0.00  0.00    +0.173 HD
ATOM     11  C   UNL     1      -3.304   0.077  -1.203  0.00  0.00    +0.277 A 
ATOM     12  O   UNL     1      -3.608   0.874  -0.331  0.00  0.00    -0.266 OA
BRANCH   5  13
ATOM     13  N   UNL     1      -0.664  -2.332  -2.014  0.00  0.00    -0.343 N 
ATOM     14  H   UNL     1      -0.420  -3.046  -2.815  0.00  0.00    +0.144 HD
ATOM     15  H   UNL     1       0.008  -2.225  -1.150  0.00  0.00    +0.144 HD
ENDBRANCH   5  13
BRANCH   6  16
ATOM     16  C   UNL     1      -2.334  -2.651  -4.239  0.00  0.00    +0.131 C 
BRANCH  16  17
ATOM     17  C   UNL     1      -2.953  -4.012  -3.916  0.00  0.00    +0.003 C 
ATOM     18  C   UNL     1      -2.725  -4.968  -5.089  0.00  0.00    +0.009 C 
ATOM     19  C   UNL     1      -2.298  -4.585  -2.658  0.00  0.00    +0.009 C 
ENDBRANCH  16  17
ENDBRANCH   6  16
ENDBRANCH   1   4
BRANCH   1  20
ATOM     20  C   UNL     1       0.071   0.027  -0.145  0.00  0.00    +0.114 C 
BRANCH  20  21
ATOM     21  C   UNL     1       0.004   1.555  -0.109  0.00  0.00    +0.019 C 
BRANCH  21  23
ATOM     22  C   UNL     1       1.344   3.659  -0.252  0.00  0.00    +0.004 C 
ATOM     23  C   UNL     1       1.411   2.131  -0.288  0.00  0.00    -0.002 C 
ENDBRANCH  21  23
ENDBRANCH  20  21
ENDBRANCH   1  20
BRANCH   2  24
ATOM     24  C   UNL     1      -0.849  -0.611   2.462  0.00  0.00    +0.019 C 
BRANCH  24  25
ATOM     25  N   UNL     1      -1.535  -1.097   3.667  0.00  0.00    +0.387 N 
ATOM     26  C   UNL     1      -2.764  -0.333   3.918  0.00  0.00    -0.059 C 
ATOM     27  C   UNL     1      -3.539  -0.982   5.070  0.00  0.00    +0.089 C 
ATOM     28  N   UNL     1      -2.639  -1.108   6.226  0.00  0.00    -0.305 N 
ATOM     29  C   UNL     1      -1.328  -1.742   6.021  0.00  0.00    +0.089 C 
ATOM     30  C   UNL     1      -0.640  -1.063   4.832  0.00  0.00    -0.059 C 
ATOM     31  C   UNL     1      -3.006  -0.656   7.441  0.00  0.00    +0.219 C 
ATOM     32  O   UNL     1      -2.252  -0.769   8.384  0.00  0.00    -0.275 OA
ATOM     33  H   UNL     1      -1.821  -2.145   3.496  0.00  0.00    -0.081 HD
BRANCH  31  34
ATOM     34  C   UNL     1      -4.355  -0.010   7.629  0.00  0.00    +0.075 C 
ATOM     35  C   UNL     1      -4.384   1.491   7.926  0.00  0.00    +0.013 C 
ATOM     36  C   UNL     1      -4.712   0.485   9.032  0.00  0.00    +0.013 C 
ENDBRANCH  31  34
ENDBRANCH  24  25
ENDBRANCH   2  24
TORSDOF 10
