REMARK  Name = ZINC40529021
REMARK  3 active torsions:
REMARK  status: ('A' for Active; 'I' for Inactive)
REMARK    1  A    between atoms: C_5  and  C_8
REMARK    2  A    between atoms: C_5  and  N_11
REMARK    3  A    between atoms: N_14  and  C_15
REMARK                            x       y       z     vdW  Elec       q    Type
REMARK                         _______ _______ _______ _____ _____    ______ ____
ROOT
ATOM      1  C   UNL     1      -0.056   1.404   0.003  0.00  0.00    +0.000 C 
ATOM      2  C   UNL     1       1.349   2.039  -0.010  0.00  0.00    +0.000 C 
ATOM      3  C   UNL     1       1.901   2.008   1.390  0.00  0.00    +0.003 C 
ATOM      4  C   UNL     1       2.776   0.767   1.651  0.00  0.00    +0.037 C 
ATOM      5  C   UNL     1       2.183  -0.521   1.050  0.00  0.00    +0.137 C 
ATOM      6  C   UNL     1       0.695  -0.618   1.252  0.00  0.00    +0.037 C 
ATOM      7  C   UNL     1      -0.008  -0.051   0.001  0.00  0.00    +0.003 C 
ENDROOT
BRANCH   5   8
ATOM      8  N   UNL     1       2.469  -0.548  -0.387  0.00  0.00    -0.284 N 
ATOM      9  C   UNL     1       2.115  -1.620  -1.124  0.00  0.00    +0.301 C 
ATOM     10  O   UNL     1       1.559  -2.564  -0.596  0.00  0.00    -0.253 OA
ATOM     11  N   UNL     1       2.379  -1.646  -2.445  0.00  0.00    -0.297 N 
ATOM     12  H   UNL     1       2.912   0.204  -0.808  0.00  0.00    +0.151 HD
ATOM     13  H   UNL     1       2.822  -0.893  -2.866  0.00  0.00    +0.151 HD
BRANCH  11  14
ATOM     14  C   UNL     1       1.995  -2.811  -3.246  0.00  0.00    +0.075 C 
ATOM     15  C   UNL     1       3.012  -3.337  -4.261  0.00  0.00    +0.024 C 
ATOM     16  C   UNL     1       1.763  -2.594  -4.743  0.00  0.00    +0.024 C 
ENDBRANCH  11  14
ENDBRANCH   5   8
BRANCH   5  17
ATOM     17  C   UNL     1       2.841  -1.711   1.698  0.00  0.00    +0.379 C 
ATOM     18  O   UNL     1       2.756  -1.873   2.904  0.00  0.00    -0.244 OA
ATOM     19  O   UNL     1       3.460  -2.511   1.018  0.00  0.00    -0.244 OA
ENDBRANCH   5  17
TORSDOF 3
