REMARK  Name = ZINC22320233
REMARK  12 active torsions:
REMARK  status: ('A' for Active; 'I' for Inactive)
REMARK    1  A    between atoms: C_1  and  C_2
REMARK    2  A    between atoms: C_2  and  C_3
REMARK    3  A    between atoms: N_9  and  C_10
REMARK    4  A    between atoms: C_10  and  C_11
REMARK    5  A    between atoms: C_11  and  C_12
REMARK    6  A    between atoms: C_12  and  N_13
REMARK    7  A    between atoms: C_14  and  C_16
REMARK    8  A    between atoms: C_16  and  N_17
REMARK    9  A    between atoms: N_17  and  C_18
REMARK   10  A    between atoms: N_17  and  S_25
REMARK   11  A    between atoms: S_25  and  C_28
REMARK   12  A    between atoms: C_31  and  C_34
REMARK                            x       y       z     vdW  Elec       q    Type
REMARK                         _______ _______ _______ _____ _____    ______ ____
ROOT
ATOM      1  N   UNL     1       3.051  -2.866  -2.679  0.00  0.00    -0.194 N 
ENDROOT
BRANCH   1   2
ATOM      2  C   UNL     1       2.992  -1.667  -1.965  0.00  0.00    +0.053 A 
ATOM      3  C   UNL     1       1.913  -1.408  -1.129  0.00  0.00    +0.025 A 
ATOM      4  C   UNL     1       1.857  -0.222  -0.424  0.00  0.00    +0.003 A 
ATOM      5  C   UNL     1       2.873   0.709  -0.550  0.00  0.00    +0.020 A 
ATOM      6  C   UNL     1       3.949   0.454  -1.383  0.00  0.00    +0.043 A 
ATOM      7  C   UNL     1       4.011  -0.732  -2.091  0.00  0.00    +0.044 A 
ATOM      8 CL   UNL     1       5.221   1.625  -1.538  0.00  0.00    -0.083 Cl
ENDBRANCH   1   2
BRANCH   1   9
ATOM      9  S   UNL     1       3.894  -2.942  -4.103  0.00  0.00    +0.075 S 
ATOM     10  O   UNL     1       3.324  -4.003  -4.856  0.00  0.00    -0.150 OA
ATOM     11  O   UNL     1       3.973  -1.613  -4.598  0.00  0.00    -0.150 OA
BRANCH   9  12
ATOM     12  C   UNL     1       5.540  -3.432  -3.708  0.00  0.00    +0.109 A 
ATOM     13  C   UNL     1       6.530  -2.477  -3.567  0.00  0.00    +0.029 A 
ATOM     14  C   UNL     1       7.820  -2.861  -3.253  0.00  0.00    +0.005 A 
ATOM     15  C   UNL     1       8.123  -4.200  -3.091  0.00  0.00    -0.050 A 
ATOM     16  C   UNL     1       7.134  -5.155  -3.237  0.00  0.00    +0.005 A 
ATOM     17  C   UNL     1       5.843  -4.771  -3.547  0.00  0.00    +0.029 A 
ATOM     18  C   UNL     1       9.531  -4.619  -2.754  0.00  0.00    +0.044 C 
ENDBRANCH   9  12
ENDBRANCH   1   9
BRANCH   1  19
ATOM     19  C   UNL     1       2.369  -4.058  -2.168  0.00  0.00    +0.227 C 
BRANCH  19  21
ATOM     20  N   UNL     1       0.100  -5.039  -2.249  0.00  0.00    -0.314 N 
ATOM     21  C   UNL     1       0.927  -4.037  -2.605  0.00  0.00    +0.232 C 
ATOM     22  O   UNL     1       0.510  -3.117  -3.278  0.00  0.00    -0.274 OA
ATOM     23  H   UNL     1       0.477  -5.873  -1.639  0.00  0.00    +0.149 HD
BRANCH  20  24
ATOM     24  C   UNL     1      -1.302  -5.019  -2.674  0.00  0.00    +0.102 C 
BRANCH  24  25
ATOM     25  C   UNL     1      -2.015  -6.263  -2.140  0.00  0.00    +0.000 C 
BRANCH  25  26
ATOM     26  C   UNL     1      -3.479  -6.242  -2.584  0.00  0.00    -0.077 C 
BRANCH  26  32
ATOM     27  C   UNL     1      -5.594  -7.405  -2.402  0.00  0.00    -0.069 C 
ATOM     28  C   UNL     1      -6.245  -8.725  -1.983  0.00  0.00    -0.015 C 
ATOM     29  C   UNL     1      -6.053  -8.927  -0.477  0.00  0.00    -0.003 C 
ATOM     30  C   UNL     1      -4.557  -8.908  -0.153  0.00  0.00    -0.019 C 
ATOM     31  C   UNL     1      -3.956  -7.582  -0.625  0.00  0.00    -0.078 C 
ATOM     32  N   UNL     1      -4.164  -7.436  -2.072  0.00  0.00    +0.382 N 
ATOM     33  H   UNL     1      -3.725  -8.317  -2.564  0.00  0.00    -0.081 HD
BRANCH  27  35
ATOM     34  C   UNL     1      -7.252  -7.054  -4.239  0.00  0.00    +0.002 C 
ATOM     35  C   UNL     1      -5.765  -7.209  -3.910  0.00  0.00    -0.019 C 
ENDBRANCH  27  35
ENDBRANCH  26  32
ENDBRANCH  25  26
ENDBRANCH  24  25
ENDBRANCH  20  24
ENDBRANCH  19  21
ENDBRANCH   1  19
TORSDOF 10
