REMARK  Name = ZINC36591632
REMARK  18 active torsions:
REMARK  status: ('A' for Active; 'I' for Inactive)
REMARK    1  A    between atoms: C_1  and  C_2
REMARK    2  A    between atoms: C_2  and  C_3
REMARK    3  A    between atoms: C_2  and  C_4
REMARK    4  A    between atoms: C_2  and  C_5
REMARK    5  A    between atoms: C_5  and  C_6
REMARK    6  A    between atoms: C_6  and  C_7
REMARK    7  A    between atoms: C_6  and  C_8
REMARK    8  A    between atoms: C_6  and  N_9
REMARK    9  A    between atoms: C_10  and  C_12
REMARK   10  A    between atoms: C_12  and  C_14
REMARK   11  A    between atoms: C_12  and  N_21
REMARK   12  A    between atoms: C_17  and  O_20
REMARK   13  A    between atoms: N_21  and  C_33
REMARK   14  A    between atoms: C_22  and  C_24
REMARK   15  A    between atoms: C_28  and  N_30
REMARK   16  A    between atoms: C_33  and  C_34
REMARK   17  A    between atoms: C_33  and  C_35
REMARK   18  A    between atoms: C_33  and  C_36
REMARK                            x       y       z     vdW  Elec       q    Type
REMARK                         _______ _______ _______ _____ _____    ______ ____
ROOT
ATOM      1  C   UNL     1       5.964   0.524  -3.097  0.00  0.00    +0.193 C 
ENDROOT
BRANCH   1   2
ATOM      2  C   UNL     1       5.397   1.873  -2.739  0.00  0.00    -0.018 A 
ATOM      3  C   UNL     1       6.099   3.022  -3.052  0.00  0.00    +0.009 A 
ATOM      4  C   UNL     1       5.582   4.261  -2.725  0.00  0.00    +0.046 A 
ATOM      5  C   UNL     1       4.356   4.351  -2.082  0.00  0.00    +0.117 A 
ATOM      6  C   UNL     1       3.653   3.196  -1.769  0.00  0.00    +0.046 A 
ATOM      7  C   UNL     1       4.172   1.961  -2.103  0.00  0.00    +0.009 A 
BRANCH   5   8
ATOM      8  O   UNL     1       3.845   5.568  -1.759  0.00  0.00    -0.507 OA
ATOM      9  H   UNL     1       3.289   5.957  -2.448  0.00  0.00    +0.292 HD
ENDBRANCH   5   8
ENDBRANCH   1   2
BRANCH   1  11
ATOM     10  N   UNL     1       6.229  -0.262  -0.767  0.00  0.00    -0.308 N 
ATOM     11  C   UNL     1       6.804   0.013  -1.954  0.00  0.00    +0.239 C 
ATOM     12  O   UNL     1       7.996  -0.150  -2.104  0.00  0.00    -0.273 OA
ATOM     13  H   UNL     1       5.276  -0.132  -0.647  0.00  0.00    +0.149 HD
BRANCH  10  14
ATOM     14  C   UNL     1       7.045  -0.759   0.344  0.00  0.00    +0.030 C 
ATOM     15  C   UNL     1       8.278   0.132   0.510  0.00  0.00    +0.031 C 
ATOM     16  C   UNL     1       7.489  -2.193   0.049  0.00  0.00    +0.031 C 
BRANCH  14  17
ATOM     17  C   UNL     1       6.222  -0.735   1.633  0.00  0.00    +0.031 C 
BRANCH  17  19
ATOM     18  C   UNL     1       4.285   0.579   0.759  0.00  0.00    +0.010 C 
ATOM     19  C   UNL     1       5.466   0.592   1.731  0.00  0.00    -0.036 C 
ATOM     20  C   UNL     1       6.409   1.743   1.373  0.00  0.00    +0.010 C 
ATOM     21  C   UNL     1       4.950   0.781   3.159  0.00  0.00    +0.010 C 
ENDBRANCH  17  19
ENDBRANCH  14  17
ENDBRANCH  10  14
ENDBRANCH   1  11
BRANCH   1  22
ATOM     22  N   UNL     1       6.795   0.646  -4.297  0.00  0.00    -0.277 N 
ATOM     23  C   UNL     1       8.023   1.194  -4.213  0.00  0.00    +0.248 C 
ATOM     24  O   UNL     1       8.535   1.376  -3.126  0.00  0.00    -0.270 OA
BRANCH  23  25
ATOM     25  C   UNL     1       8.748   1.575  -5.444  0.00  0.00    +0.039 A 
ATOM     26  C   UNL     1       8.447   0.952  -6.656  0.00  0.00    +0.013 A 
ATOM     27  C   UNL     1       9.127   1.312  -7.801  0.00  0.00    +0.003 A 
ATOM     28  C   UNL     1      10.106   2.288  -7.750  0.00  0.00    +0.033 A 
ATOM     29  C   UNL     1      10.410   2.910  -6.552  0.00  0.00    +0.127 A 
ATOM     30  C   UNL     1       9.733   2.563  -5.401  0.00  0.00    +0.045 A 
BRANCH  29  31
ATOM     31  N   UNL     1      11.459   3.953  -6.506  0.00  0.00    +0.056 N 
ATOM     32  O   UNL     1      12.049   4.261  -7.515  0.00  0.00    -0.126 OA
ATOM     33  O   UNL     1      11.725   4.497  -5.460  0.00  0.00    -0.126 OA
ENDBRANCH  29  31
ENDBRANCH  23  25
BRANCH  22  34
ATOM     34  C   UNL     1       6.291   0.172  -5.588  0.00  0.00    +0.030 C 
ATOM     35  C   UNL     1       4.822  -0.232  -5.446  0.00  0.00    +0.031 C 
ATOM     36  C   UNL     1       6.415   1.290  -6.626  0.00  0.00    +0.031 C 
ATOM     37  C   UNL     1       7.110  -1.038  -6.043  0.00  0.00    +0.031 C 
ENDBRANCH  22  34
ENDBRANCH   1  22
TORSDOF 10
