REMARK  Name = ZINC22203639
REMARK  7 active torsions:
REMARK  status: ('A' for Active; 'I' for Inactive)
REMARK    1  A    between atoms: C_3  and  O_20
REMARK    2  A    between atoms: C_6  and  C_7
REMARK    3  A    between atoms: C_7  and  C_13
REMARK    4  A    between atoms: N_8  and  N_9
REMARK    5  A    between atoms: N_9  and  C_10
REMARK    6  A    between atoms: C_10  and  N_12
REMARK    7  A    between atoms: C_16  and  O_19
REMARK                            x       y       z     vdW  Elec       q    Type
REMARK                         _______ _______ _______ _____ _____    ______ ____
ROOT
ATOM      1  C   UNL     1      -1.133  -0.743  -0.175  0.00  0.00    +0.096 C 
ATOM      2  N   UNL     1      -2.290  -0.149  -0.304  0.00  0.00    -0.180 NA
ENDROOT
BRANCH   1   8
ATOM      3  C   UNL     1      -0.149   1.281   0.896  0.00  0.00    +0.013 A 
ATOM      4  C   UNL     1       0.935   1.976   1.388  0.00  0.00    +0.046 A 
ATOM      5  C   UNL     1       2.203   1.412   1.342  0.00  0.00    +0.117 A 
ATOM      6  C   UNL     1       2.384   0.145   0.802  0.00  0.00    +0.046 A 
ATOM      7  C   UNL     1       1.305  -0.556   0.309  0.00  0.00    +0.013 A 
ATOM      8  C   UNL     1       0.029   0.008   0.353  0.00  0.00    +0.003 A 
BRANCH   5   9
ATOM      9  O   UNL     1       3.269   2.101   1.827  0.00  0.00    -0.507 OA
ATOM     10  H   UNL     1       3.447   1.942   2.764  0.00  0.00    +0.292 HD
ENDBRANCH   5   9
ENDBRANCH   1   8
BRANCH   1  11
ATOM     11  C   UNL     1      -0.983  -2.165  -0.558  0.00  0.00    +0.003 A 
ATOM     12  C   UNL     1      -0.260  -3.036   0.258  0.00  0.00    +0.013 A 
ATOM     13  C   UNL     1      -0.123  -4.360  -0.101  0.00  0.00    +0.046 A 
ATOM     14  C   UNL     1      -0.703  -4.826  -1.274  0.00  0.00    +0.117 A 
ATOM     15  C   UNL     1      -1.423  -3.962  -2.088  0.00  0.00    +0.046 A 
ATOM     16  C   UNL     1      -1.570  -2.639  -1.732  0.00  0.00    +0.013 A 
BRANCH  14  17
ATOM     17  O   UNL     1      -0.566  -6.132  -1.625  0.00  0.00    -0.507 OA
ATOM     18  H   UNL     1      -1.264  -6.707  -1.282  0.00  0.00    +0.292 HD
ENDBRANCH  14  17
ENDBRANCH   1  11
BRANCH   2  19
ATOM     19  N   UNL     1      -3.421  -0.892  -0.668  0.00  0.00    -0.218 N 
ATOM     20  H   UNL     1      -3.364  -1.857  -0.742  0.00  0.00    +0.176 HD
BRANCH  19  21
ATOM     21  C   UNL     1      -4.587  -0.264  -0.916  0.00  0.00    +0.147 C 
ATOM     22  S   UNL     1      -5.969  -1.171  -1.361  0.00  0.00    -0.017 S 
BRANCH  21  23
ATOM     23  N   UNL     1      -4.666   1.077  -0.815  0.00  0.00    -0.339 N 
ATOM     24  H   UNL     1      -3.883   1.591  -0.563  0.00  0.00    +0.144 HD
ATOM     25  H   UNL     1      -5.506   1.529  -0.993  0.00  0.00    +0.144 HD
ENDBRANCH  21  23
ENDBRANCH  19  21
ENDBRANCH   2  19
TORSDOF 7
