REMARK  Name = ZINC32194013
REMARK  10 active torsions:
REMARK  status: ('A' for Active; 'I' for Inactive)
REMARK    1  A    between atoms: C_1  and  C_2
REMARK    2  A    between atoms: C_2  and  C_3
REMARK    3  A    between atoms: C_6  and  N_9
REMARK    4  A    between atoms: C_10  and  C_12
REMARK    5  A    between atoms: C_12  and  C_33
REMARK    6  A    between atoms: C_13  and  C_14
REMARK    7  A    between atoms: C_17  and  O_20
REMARK    8  A    between atoms: O_20  and  C_21
REMARK    9  A    between atoms: C_24  and  N_30
REMARK   10  A    between atoms: C_26  and  N_27
REMARK                            x       y       z     vdW  Elec       q    Type
REMARK                         _______ _______ _______ _____ _____    ______ ____
ROOT
ATOM      1  C   UNL     1       3.796   4.413   0.088  0.00  0.00    -0.023 A 
ATOM      2  C   UNL     1       2.489   4.779  -0.266  0.00  0.00    +0.011 A 
ATOM      3  C   UNL     1       2.217   6.068  -0.627  0.00  0.00    +0.047 A 
ATOM      4  C   UNL     1       3.236   7.015  -0.653  0.00  0.00    +0.129 A 
ATOM      5  C   UNL     1       4.536   6.657  -0.308  0.00  0.00    +0.047 A 
ATOM      6  C   UNL     1       4.819   5.373   0.059  0.00  0.00    +0.011 A 
ENDROOT
BRANCH   1   8
ATOM      7  C   UNL     1       3.256   2.371   1.353  0.00  0.00    +0.114 C 
ATOM      8  C   UNL     1       4.092   3.034   0.481  0.00  0.00    +0.032 C 
BRANCH   7  10
ATOM      9  N   UNL     1       1.303   2.444   2.817  0.00  0.00    -0.281 N 
ATOM     10  C   UNL     1       2.205   3.110   2.070  0.00  0.00    +0.259 C 
ATOM     11  O   UNL     1       2.150   4.323   1.987  0.00  0.00    -0.269 OA
ATOM     12  H   UNL     1       1.296   1.344   2.819  0.00  0.00    +0.155 HD
BRANCH   9  16
ATOM     13  C   UNL     1      -1.454   4.551   5.122  0.00  0.00    -0.048 A 
ATOM     14  C   UNL     1      -1.803   3.331   4.571  0.00  0.00    +0.005 A 
ATOM     15  C   UNL     1      -0.892   2.630   3.807  0.00  0.00    +0.023 A 
ATOM     16  C   UNL     1       0.378   3.151   3.591  0.00  0.00    +0.034 A 
ATOM     17  C   UNL     1       0.728   4.373   4.151  0.00  0.00    +0.023 A 
ATOM     18  C   UNL     1      -0.191   5.072   4.909  0.00  0.00    +0.005 A 
BRANCH  13  20
ATOM     19  C   UNL     1      -2.313   4.900   7.421  0.00  0.00    +0.009 C 
ATOM     20  C   UNL     1      -2.452   5.313   5.955  0.00  0.00    +0.032 C 
ENDBRANCH  13  20
ENDBRANCH   9  16
ENDBRANCH   7  10
BRANCH   7  21
ATOM     21  C   UNL     1       3.411   0.963   1.562  0.00  0.00    +0.104 C 
ATOM     22  N   UNL     1       3.533  -0.154   1.728  0.00  0.00    -0.191 NA
ENDBRANCH   7  21
ENDBRANCH   1   8
BRANCH   4  23
ATOM     23  O   UNL     1       2.961   8.293  -1.017  0.00  0.00    -0.454 OA
BRANCH  23  24
ATOM     24  C   UNL     1       1.663   8.628  -1.240  0.00  0.00    +0.159 A 
ATOM     25  C   UNL     1       1.149   8.597  -2.529  0.00  0.00    +0.051 A 
ATOM     26  C   UNL     1      -0.170   8.938  -2.753  0.00  0.00    +0.036 A 
ATOM     27  C   UNL     1      -0.979   9.309  -1.694  0.00  0.00    +0.129 A 
ATOM     28  C   UNL     1      -0.469   9.340  -0.409  0.00  0.00    +0.069 A 
ATOM     29  C   UNL     1       0.849   8.995  -0.179  0.00  0.00    +0.170 A 
BRANCH  29  30
ATOM     30  N   UNL     1       1.392   9.023   1.197  0.00  0.00    +0.060 N 
ATOM     31  O   UNL     1       0.676   9.346   2.128  0.00  0.00    -0.126 OA
ATOM     32  O   UNL     1       2.555   8.723   1.399  0.00  0.00    -0.126 OA
ENDBRANCH  29  30
BRANCH  27  33
ATOM     33  N   UNL     1      -2.393   9.674  -1.937  0.00  0.00    +0.057 N 
ATOM     34  O   UNL     1      -2.843   9.646  -3.068  0.00  0.00    -0.126 OA
ATOM     35  O   UNL     1      -3.106  10.001  -1.005  0.00  0.00    -0.126 OA
ENDBRANCH  27  33
ENDBRANCH  23  24
ENDBRANCH   4  23
TORSDOF 9
