REMARK  Name = ZINC13592091
REMARK  11 active torsions:
REMARK  status: ('A' for Active; 'I' for Inactive)
REMARK    1  A    between atoms: C_1  and  C_2
REMARK    2  A    between atoms: C_4  and  C_33
REMARK    3  A    between atoms: C_9  and  C_17
REMARK    4  A    between atoms: C_12  and  C_14
REMARK    5  A    between atoms: C_14  and  C_15
REMARK    6  A    between atoms: C_14  and  C_16
REMARK    7  A    between atoms: N_19  and  C_20
REMARK    8  A    between atoms: C_22  and  O_28
REMARK    9  A    between atoms: C_25  and  O_26
REMARK   10  A    between atoms: O_26  and  C_27
REMARK   11  A    between atoms: O_28  and  C_29
REMARK                            x       y       z     vdW  Elec       q    Type
REMARK                         _______ _______ _______ _____ _____    ______ ____
ROOT
ATOM      1  C   UNL     1      -1.251  -0.790  -0.042  0.00  0.00    +0.044 C 
ATOM      2  C   UNL     1       0.044  -0.020  -0.036  0.00  0.00    -0.050 A 
ATOM      3  C   UNL     1       0.027   1.363  -0.038  0.00  0.00    +0.008 A 
ATOM      4  C   UNL     1       1.210   2.074  -0.034  0.00  0.00    -0.029 A 
ATOM      5  C   UNL     1       2.430   1.403  -0.028  0.00  0.00    +0.039 A 
ATOM      6  C   UNL     1       2.434   0.012  -0.024  0.00  0.00    -0.027 A 
ATOM      7  C   UNL     1       1.252  -0.694  -0.029  0.00  0.00    +0.008 A 
ATOM      8  C   UNL     1       3.882  -0.399  -0.015  0.00  0.00    +0.049 C 
ATOM      9  C   UNL     1       4.208  -1.219   1.244  0.00  0.00    +0.076 C 
ATOM     10  C   UNL     1       5.235  -2.260   0.721  0.00  0.00    -0.003 C 
ATOM     11  C   UNL     1       4.709  -2.529  -0.712  0.00  0.00    -0.067 C 
ATOM     12  C   UNL     1       4.650   0.898  -0.017  0.00  0.00    +0.211 C 
ATOM     13  O   UNL     1       5.856   1.025  -0.014  0.00  0.00    -0.277 OA
ATOM     14  N   UNL     1       3.739   1.889  -0.024  0.00  0.00    -0.286 N 
ATOM     15  C   UNL     1       1.180   3.581  -0.037  0.00  0.00    +0.045 C 
ATOM     16  H   UNL     1       3.966   2.833  -0.026  0.00  0.00    +0.155 HD
ATOM     17  N   UNL     1       4.215  -1.219  -1.179  0.00  0.00    +0.394 N 
ATOM     18  H   UNL     1       4.944  -0.753  -1.732  0.00  0.00    -0.083 HD
ATOM     19  H   UNL     1       3.378  -1.352  -1.758  0.00  0.00    -0.083 HD
ENDROOT
BRANCH   9  20
ATOM     20  C   UNL     1       2.972  -1.902   1.770  0.00  0.00    +0.220 C 
ATOM     21  O   UNL     1       2.632  -2.975   1.318  0.00  0.00    -0.275 OA
ATOM     22  N   UNL     1       2.243  -1.320   2.743  0.00  0.00    -0.282 N 
ATOM     23  H   UNL     1       2.466  -0.426   3.047  0.00  0.00    +0.155 HD
BRANCH  22  24
ATOM     24  C   UNL     1       1.164  -2.006   3.317  0.00  0.00    +0.079 A 
ATOM     25  C   UNL     1       1.218  -3.384   3.467  0.00  0.00    +0.072 A 
ATOM     26  C   UNL     1       0.152  -4.060   4.040  0.00  0.00    +0.122 A 
ATOM     27  C   UNL     1      -0.973  -3.360   4.452  0.00  0.00    +0.049 A 
ATOM     28  C   UNL     1      -1.032  -1.988   4.297  0.00  0.00    +0.051 A 
ATOM     29  C   UNL     1       0.033  -1.307   3.731  0.00  0.00    +0.141 A 
BRANCH  29  30
ATOM     30  O   UNL     1      -0.025   0.044   3.579  0.00  0.00    -0.493 OA
ATOM     31  C   UNL     1      -1.216   0.696   4.026  0.00  0.00    +0.277 C 
ENDBRANCH  29  30
BRANCH  26  32
ATOM     32  O   UNL     1       0.207  -5.410   4.194  0.00  0.00    -0.495 OA
ATOM     33  C   UNL     1      -0.929  -6.042   4.786  0.00  0.00    +0.277 C 
ENDBRANCH  26  32
ENDBRANCH  22  24
ENDBRANCH   9  20
BRANCH  11  34
ATOM     34  C   UNL     1       5.842  -3.030  -1.610  0.00  0.00    -0.031 C 
ATOM     35  C   UNL     1       5.301  -3.289  -3.017  0.00  0.00    +0.005 C 
ATOM     36  C   UNL     1       6.947  -1.974  -1.674  0.00  0.00    +0.005 C 
ENDBRANCH  11  34
TORSDOF 5
