REMARK  Name = ZINC08927633
REMARK  5 active torsions:
REMARK  status: ('A' for Active; 'I' for Inactive)
REMARK    1  A    between atoms: C_1  and  C_2
REMARK    2  A    between atoms: C_2  and  N_42
REMARK    3  A    between atoms: C_10  and  O_23
REMARK    4  A    between atoms: C_12  and  C_15
REMARK    5  A    between atoms: C_18  and  O_22
REMARK                            x       y       z     vdW  Elec       q    Type
REMARK                         _______ _______ _______ _____ _____    ______ ____
ROOT
ATOM      1  C   UNL     1       2.617   0.218  -6.559  0.00  0.00    -0.074 C 
ATOM      2  C   UNL     1       2.748  -0.377  -5.154  0.00  0.00    +0.018 C 
ATOM      3  C   UNL     1       3.190   0.733  -4.207  0.00  0.00    -0.027 A 
ATOM      4  C   UNL     1       3.732   1.870  -4.705  0.00  0.00    -0.021 A 
ATOM      5  S   UNL     1       4.091   2.864  -3.281  0.00  0.00    -0.080 S 
ATOM      6  C   UNL     1       3.539   1.794  -2.065  0.00  0.00    +0.080 A 
ATOM      7  C   UNL     1       3.073   0.672  -2.762  0.00  0.00    +0.067 A 
ATOM      8  C   UNL     1       2.515  -0.446  -1.958  0.00  0.00    +0.220 C 
ATOM      9  N   UNL     1       2.308  -0.236  -0.687  0.00  0.00    -0.223 NA
ATOM     10  C   UNL     1       2.490   1.045  -0.016  0.00  0.00    +0.224 C 
ATOM     11  N   UNL     1       3.500   1.877  -0.696  0.00  0.00    -0.313 N 
ATOM     12  C   UNL     1       3.966   2.187  -6.148  0.00  0.00    -0.035 C 
ATOM     13  H   UNL     1       4.105   2.452  -0.202  0.00  0.00    +0.149 HD
ATOM     14  N   UNL     1       3.868   0.920  -6.912  0.00  0.00    +0.383 N 
ATOM     15  H   UNL     1       4.667   0.322  -6.672  0.00  0.00    -0.081 HD
ENDROOT
BRANCH  10  16
ATOM     16  C   UNL     1       1.176   1.783   0.000  0.00  0.00    -0.004 A 
ATOM     17  C   UNL     1      -0.013   1.076   0.008  0.00  0.00    +0.011 A 
ATOM     18  C   UNL     1      -1.218   1.750   0.017  0.00  0.00    +0.047 A 
ATOM     19  C   UNL     1      -1.237   3.137   0.031  0.00  0.00    +0.130 A 
ATOM     20  C   UNL     1      -0.043   3.844   0.024  0.00  0.00    +0.055 A 
ATOM     21  C   UNL     1       1.161   3.165   0.008  0.00  0.00    +0.025 A 
ATOM     22  I   UNL     1      -0.066   5.939   0.036  0.00  0.00    -0.040 I 
BRANCH  19  23
ATOM     23  O   UNL     1      -2.422   3.802   0.046  0.00  0.00    -0.506 OA
ATOM     24  H   UNL     1      -2.774   3.999  -0.833  0.00  0.00    +0.292 HD
ENDBRANCH  19  23
ENDBRANCH  10  16
BRANCH  14  26
ATOM     25  C   UNL     1       5.284   1.731  -8.737  0.00  0.00    -0.017 C 
ATOM     26  C   UNL     1       3.897   1.202  -8.364  0.00  0.00    -0.082 C 
ENDBRANCH  14  26
BRANCH   8  27
ATOM     27  O   UNL     1       2.231  -1.641  -2.524  0.00  0.00    -0.492 OA
ATOM     28  H   UNL     1       1.873  -2.294  -1.907  0.00  0.00    +0.294 HD
ENDBRANCH   8  27
TORSDOF 4
