REMARK  Name = ZINC39632102
REMARK  13 active torsions:
REMARK  status: ('A' for Active; 'I' for Inactive)
REMARK    1  A    between atoms: C_1  and  C_2
REMARK    2  A    between atoms: C_5  and  C_8
REMARK    3  A    between atoms: C_8  and  C_9
REMARK    4  A    between atoms: C_13  and  C_22
REMARK    5  A    between atoms: N_24  and  C_25
REMARK    6  A    between atoms: C_25  and  C_27
REMARK    7  A    between atoms: C_25  and  C_28
REMARK    8  A    between atoms: C_28  and  C_29
REMARK    9  A    between atoms: C_29  and  C_30
REMARK   10  A    between atoms: C_30  and  C_31
REMARK   11  A    between atoms: C_31  and  C_32
REMARK   12  A    between atoms: C_31  and  C_33
REMARK   13  A    between atoms: C_31  and  O_34
REMARK                            x       y       z     vdW  Elec       q    Type
REMARK                         _______ _______ _______ _____ _____    ______ ____
ROOT
ATOM      1  C   UNL     1       1.604  -4.771  -0.006  0.00  0.00    +0.220 C 
ATOM      2  O   UNL     1       2.529  -3.989  -0.047  0.00  0.00    -0.275 OA
ATOM      3  N   UNL     1       1.841  -6.098  -0.041  0.00  0.00    -0.300 N 
ATOM      4  C   UNL     1       0.849  -7.199  -0.008  0.00  0.00    +0.121 C 
ATOM      5  C   UNL     1       1.397  -8.247  -1.002  0.00  0.00    +0.100 C 
ATOM      6  C   UNL     1       2.909  -7.971  -1.070  0.00  0.00    -0.004 C 
ATOM      7  C   UNL     1       3.152  -6.785  -0.126  0.00  0.00    +0.115 C 
ATOM      8  C   UNL     1       3.314  -7.598  -2.492  0.00  0.00    -0.010 C 
ATOM      9  C   UNL     1       4.830  -7.385  -2.546  0.00  0.00    -0.082 C 
ATOM     10  N   UNL     1       5.514  -8.614  -2.127  0.00  0.00    +0.379 N 
ATOM     11  C   UNL     1       5.191  -8.915  -0.728  0.00  0.00    -0.082 C 
ATOM     12  C   UNL     1       3.691  -9.193  -0.597  0.00  0.00    -0.010 C 
ATOM     13  H   UNL     1       5.215  -9.380  -2.712  0.00  0.00    -0.086 HD
ATOM     14  H   UNL     1       6.511  -8.491  -2.222  0.00  0.00    -0.086 HD
ENDROOT
BRANCH   5  15
ATOM     15  C   UNL     1       1.138  -9.641  -0.491  0.00  0.00    +0.218 C 
ATOM     16  O   UNL     1       1.127  -9.857   0.703  0.00  0.00    -0.275 OA
ATOM     17  N   UNL     1       0.919 -10.648  -1.359  0.00  0.00    -0.312 N 
ATOM     18  H   UNL     1       0.929 -10.475  -2.314  0.00  0.00    +0.149 HD
BRANCH  17  19
ATOM     19  C   UNL     1       0.668 -12.002  -0.863  0.00  0.00    +0.070 C 
ATOM     20  C   UNL     1      -0.819 -12.158  -0.535  0.00  0.00    +0.028 C 
BRANCH  19  21
ATOM     21  C   UNL     1       1.063 -13.021  -1.934  0.00  0.00    +0.022 C 
BRANCH  21  22
ATOM     22  C   UNL     1       2.573 -12.951  -2.172  0.00  0.00    +0.005 C 
BRANCH  22  23
ATOM     23  C   UNL     1       2.968 -13.969  -3.243  0.00  0.00    +0.034 C 
BRANCH  23  24
ATOM     24  C   UNL     1       4.478 -13.899  -3.481  0.00  0.00    +0.061 C 
ATOM     25  C   UNL     1       4.855 -14.826  -4.638  0.00  0.00    +0.041 C 
ATOM     26  C   UNL     1       4.873 -12.462  -3.829  0.00  0.00    +0.041 C 
BRANCH  24  27
ATOM     27  O   UNL     1       5.166 -14.309  -2.297  0.00  0.00    -0.389 OA
ATOM     28  H   UNL     1       6.129 -14.290  -2.376  0.00  0.00    +0.210 HD
ENDBRANCH  24  27
ENDBRANCH  23  24
ENDBRANCH  22  23
ENDBRANCH  21  22
ENDBRANCH  19  21
ENDBRANCH  17  19
ENDBRANCH   5  15
BRANCH   1  29
ATOM     29  C   UNL     1       0.189  -4.261   0.083  0.00  0.00    +0.131 C 
BRANCH  29  34
ATOM     30  C   UNL     1       0.224   1.517   0.171  0.00  0.00    +0.044 C 
ATOM     31  C   UNL     1       0.215   0.010   0.148  0.00  0.00    -0.050 A 
ATOM     32  C   UNL     1       0.143  -0.662  -1.058  0.00  0.00    +0.003 A 
ATOM     33  C   UNL     1       0.135  -2.045  -1.079  0.00  0.00    +0.004 A 
ATOM     34  C   UNL     1       0.199  -2.754   0.106  0.00  0.00    -0.039 A 
ATOM     35  C   UNL     1       0.271  -2.082   1.312  0.00  0.00    +0.004 A 
ATOM     36  C   UNL     1       0.284  -0.700   1.332  0.00  0.00    +0.003 A 
ENDBRANCH  29  34
ENDBRANCH   1  29
TORSDOF 9
