REMARK  Name = ZINC64164920
REMARK  11 active torsions:
REMARK  status: ('A' for Active; 'I' for Inactive)
REMARK    1  A    between atoms: C_1  and  C_2
REMARK    2  A    between atoms: C_2  and  C_3
REMARK    3  A    between atoms: C_8  and  N_9
REMARK    4  A    between atoms: C_10  and  S_15
REMARK    5  A    between atoms: S_15  and  C_16
REMARK    6  A    between atoms: C_16  and  C_17
REMARK    7  A    between atoms: N_19  and  C_20
REMARK    8  A    between atoms: C_20  and  C_21
REMARK    9  A    between atoms: C_21  and  C_22
REMARK   10  A    between atoms: C_26  and  O_31
REMARK   11  A    between atoms: O_31  and  C_32
REMARK                            x       y       z     vdW  Elec       q    Type
REMARK                         _______ _______ _______ _____ _____    ______ ____
ROOT
ATOM      1  C   UNL     1      -2.659  -2.138   0.159  0.00  0.00    +0.167 C 
ENDROOT
BRANCH   1   2
ATOM      2  C   UNL     1      -2.862  -3.338  -0.731  0.00  0.00    +0.223 C 
ATOM      3  O   UNL     1      -2.755  -4.456  -0.274  0.00  0.00    -0.275 OA
ATOM      4  N   UNL     1      -3.163  -3.167  -2.033  0.00  0.00    -0.314 N 
ATOM      5  H   UNL     1      -3.249  -2.273  -2.398  0.00  0.00    +0.149 HD
BRANCH   4   6
ATOM      6  C   UNL     1      -3.361  -4.334  -2.898  0.00  0.00    +0.108 C 
BRANCH   6   7
ATOM      7  C   UNL     1      -3.689  -3.866  -4.317  0.00  0.00    +0.052 C 
BRANCH   7   8
ATOM      8  C   UNL     1      -3.892  -5.066  -5.207  0.00  0.00    -0.040 C 
ATOM      9  C   UNL     1      -5.068  -5.653  -5.521  0.00  0.00    -0.001 A 
ATOM     10  C   UNL     1      -6.456  -5.361  -5.142  0.00  0.00    +0.013 A 
ATOM     11  C   UNL     1      -7.447  -6.142  -5.624  0.00  0.00    +0.046 A 
ATOM     12  C   UNL     1      -7.180  -7.228  -6.480  0.00  0.00    +0.122 A 
ATOM     13  C   UNL     1      -5.923  -7.557  -6.872  0.00  0.00    +0.071 A 
ATOM     14  C   UNL     1      -4.812  -6.800  -6.422  0.00  0.00    +0.046 A 
ATOM     15  N   UNL     1      -3.525  -6.916  -6.655  0.00  0.00    -0.380 N 
ATOM     16  C   UNL     1      -2.822  -5.850  -5.932  0.00  0.00    +0.144 C 
ATOM     17  H   UNL     1      -3.109  -7.591  -7.215  0.00  0.00    +0.160 HD
BRANCH  12  18
ATOM     18  O   UNL     1      -8.220  -7.974  -6.929  0.00  0.00    -0.495 OA
ATOM     19  C   UNL     1      -9.527  -7.595  -6.493  0.00  0.00    +0.277 C 
ENDBRANCH  12  18
ENDBRANCH   7   8
ENDBRANCH   6   7
ENDBRANCH   4   6
ENDBRANCH   1   2
BRANCH   1  20
ATOM     20  S   UNL     1      -2.269  -2.692   1.841  0.00  0.00    -0.114 S 
BRANCH  20  22
ATOM     21  N   UNL     1      -1.066  -0.304   2.235  0.00  0.00    -0.254 N 
ATOM     22  C   UNL     1      -2.135  -1.152   2.790  0.00  0.00    +0.203 C 
ATOM     23  N   UNL     1      -3.383  -0.360   2.664  0.00  0.00    -0.320 NA
ATOM     24  N   UNL     1      -2.881   1.021   2.560  0.00  0.00    +0.411 N 
ATOM     25  N   UNL     1      -1.642   0.862   1.790  0.00  0.00    -0.265 NA
ATOM     26  H   UNL     1      -3.896  -0.622   1.835  0.00  0.00    +0.106 HD
ATOM     27  H   UNL     1      -3.539   1.604   2.064  0.00  0.00    -0.031 HD
ATOM     28  H   UNL     1      -1.024   1.647   1.932  0.00  0.00    +0.125 HD
ATOM     29  H   UNL     1      -2.683   1.399   3.474  0.00  0.00    -0.031 HD
BRANCH  21  35
ATOM     30  C   UNL     1       1.156  -0.180   3.168  0.00  0.00    -0.025 A 
ATOM     31  C   UNL     1       2.497  -0.504   3.110  0.00  0.00    +0.005 A 
ATOM     32  C   UNL     1       2.981  -1.267   2.063  0.00  0.00    +0.000 A 
ATOM     33  C   UNL     1       2.124  -1.708   1.071  0.00  0.00    +0.002 A 
ATOM     34  C   UNL     1       0.782  -1.388   1.123  0.00  0.00    +0.025 A 
ATOM     35  C   UNL     1       0.292  -0.626   2.177  0.00  0.00    +0.048 A 
BRANCH  30  37
ATOM     36  C   UNL     1       0.132  -0.269   5.425  0.00  0.00    +0.009 C 
ATOM     37  C   UNL     1       0.630   0.652   4.309  0.00  0.00    +0.033 C 
ENDBRANCH  30  37
ENDBRANCH  21  35
ENDBRANCH  20  22
ENDBRANCH   1  20
TORSDOF 9
