REMARK  Name = ZINC40633500
REMARK  6 active torsions:
REMARK  status: ('A' for Active; 'I' for Inactive)
REMARK    1  A    between atoms: C_1  and  O_2
REMARK    2  A    between atoms: O_2  and  C_3
REMARK    3  A    between atoms: C_6  and  C_10
REMARK    4  A    between atoms: N_12  and  C_13
REMARK    5  A    between atoms: C_16  and  S_20
REMARK    6  A    between atoms: S_20  and  N_23
REMARK                            x       y       z     vdW  Elec       q    Type
REMARK                         _______ _______ _______ _____ _____    ______ ____
ROOT
ATOM      1  C   UNL     1      -2.523  -4.087   0.209  0.00  0.00    +0.203 C 
ATOM      2  O   UNL     1      -3.732  -4.045   0.123  0.00  0.00    -0.277 OA
ATOM      3  N   UNL     1      -1.929  -5.110   0.855  0.00  0.00    -0.286 N 
ATOM      4  H   UNL     1      -0.961  -5.179   0.867  0.00  0.00    +0.155 HD
ENDROOT
BRANCH   1   7
ATOM      5  C   UNL     1      -1.290  -0.610  -0.021  0.00  0.00    +0.100 C 
ATOM      6  C   UNL     1      -1.238  -1.987   0.672  0.00  0.00    +0.023 C 
ATOM      7  C   UNL     1      -1.685  -2.996  -0.407  0.00  0.00    +0.019 C 
ATOM      8  N   UNL     1      -2.495  -2.193  -1.359  0.00  0.00    +0.388 N 
ATOM      9  C   UNL     1      -1.766  -0.901  -1.461  0.00  0.00    -0.050 C 
ATOM     10  H   UNL     1      -2.536  -2.647  -2.259  0.00  0.00    -0.085 HD
ATOM     11  H   UNL     1      -3.424  -2.044  -0.994  0.00  0.00    -0.085 HD
BRANCH   5  13
ATOM     12  C   UNL     1      -0.008   1.415  -0.040  0.00  0.00    +0.194 C 
ATOM     13  O   UNL     1       0.009  -0.013  -0.038  0.00  0.00    -0.382 OA
ENDBRANCH   5  13
ENDBRANCH   1   7
BRANCH   3  14
ATOM     14  C   UNL     1      -2.707  -6.073   1.507  0.00  0.00    +0.048 A 
ATOM     15  C   UNL     1      -3.934  -6.451   0.978  0.00  0.00    +0.026 A 
ATOM     16  C   UNL     1      -4.700  -7.402   1.624  0.00  0.00    +0.030 A 
ATOM     17  C   UNL     1      -4.247  -7.976   2.797  0.00  0.00    +0.106 A 
ATOM     18  C   UNL     1      -3.026  -7.602   3.328  0.00  0.00    +0.045 A 
ATOM     19  C   UNL     1      -2.252  -6.656   2.683  0.00  0.00    +0.041 A 
ATOM     20 BR   UNL     1      -0.579  -6.150   3.405  0.00  0.00    -0.048 Br
BRANCH  17  21
ATOM     21  S   UNL     1      -5.228  -9.188   3.618  0.00  0.00    +0.056 S 
ATOM     22  O   UNL     1      -4.832  -9.175   4.983  0.00  0.00    -0.153 OA
ATOM     23  O   UNL     1      -6.571  -8.966   3.212  0.00  0.00    -0.153 OA
BRANCH  21  24
ATOM     24  N   UNL     1      -4.789 -10.666   3.013  0.00  0.00    -0.204 NA
ATOM     25  H   UNL     1      -4.851 -11.457   3.571  0.00  0.00    +0.144 HD
ATOM     26  H   UNL     1      -4.470 -10.741   2.099  0.00  0.00    +0.144 HD
ENDBRANCH  21  24
ENDBRANCH  17  21
ENDBRANCH   3  14
TORSDOF 5
