REMARK  Name = ZINC40854525
REMARK  5 active torsions:
REMARK  status: ('A' for Active; 'I' for Inactive)
REMARK    1  A    between atoms: C_1  and  C_2
REMARK    2  A    between atoms: C_2  and  C_4
REMARK    3  A    between atoms: C_2  and  N_11
REMARK    4  A    between atoms: C_12  and  C_14
REMARK    5  A    between atoms: C_17  and  O_21
REMARK                            x       y       z     vdW  Elec       q    Type
REMARK                         _______ _______ _______ _____ _____    ______ ____
ROOT
ATOM      1  N   UNL     1       0.688  -0.476  -1.203  0.00  0.00    -0.310 N 
ATOM      2  C   UNL     1       2.031  -0.587  -1.215  0.00  0.00    +0.200 C 
ATOM      3  O   UNL     1       2.672  -0.295  -0.228  0.00  0.00    -0.278 OA
ATOM      4  H   UNL     1       0.175  -0.710  -1.993  0.00  0.00    +0.149 HD
ENDROOT
BRANCH   2   5
ATOM      5  C   UNL     1       2.736  -1.073  -2.455  0.00  0.00    +0.018 C 
ATOM      6  C   UNL     1       2.661  -2.612  -2.533  0.00  0.00    +0.023 C 
ATOM      7  C   UNL     1       4.056  -3.003  -3.085  0.00  0.00    +0.097 C 
ATOM      8  C   UNL     1       4.968  -1.949  -2.409  0.00  0.00    -0.050 C 
ATOM      9  N   UNL     1       4.163  -0.705  -2.397  0.00  0.00    +0.388 N 
ATOM     10  H   UNL     1       4.400  -0.137  -3.197  0.00  0.00    -0.085 HD
ATOM     11  H   UNL     1       4.346  -0.188  -1.550  0.00  0.00    -0.085 HD
BRANCH   7  12
ATOM     12  O   UNL     1       4.415  -4.326  -2.680  0.00  0.00    -0.394 OA
ATOM     13  H   UNL     1       5.280  -4.615  -3.002  0.00  0.00    +0.210 HD
ENDBRANCH   7  12
ENDBRANCH   2   5
BRANCH   1  15
ATOM     14  C   UNL     1      -0.019   1.526   0.010  0.00  0.00    +0.033 C 
ATOM     15  C   UNL     1       0.002  -0.004   0.002  0.00  0.00    +0.100 C 
BRANCH  15  16
ATOM     16  C   UNL     1      -1.412  -0.526   0.013  0.00  0.00    -0.027 A 
ATOM     17  C   UNL     1      -2.141  -0.569  -1.161  0.00  0.00    +0.006 A 
ATOM     18  C   UNL     1      -3.438  -1.048  -1.151  0.00  0.00    +0.015 A 
ATOM     19  C   UNL     1      -4.005  -1.484   0.032  0.00  0.00    +0.018 A 
ATOM     20  C   UNL     1      -3.275  -1.440   1.206  0.00  0.00    +0.015 A 
ATOM     21  C   UNL     1      -1.977  -0.966   1.195  0.00  0.00    +0.006 A 
ATOM     22 BR   UNL     1      -5.779  -2.138   0.046  0.00  0.00    -0.050 Br
ENDBRANCH  15  16
ENDBRANCH   1  15
TORSDOF 4
