REMARK  Name = ZINC39659915
REMARK  6 active torsions:
REMARK  status: ('A' for Active; 'I' for Inactive)
REMARK    1  A    between atoms: C_1  and  C_2
REMARK    2  A    between atoms: C_12  and  O_13
REMARK    3  A    between atoms: O_13  and  C_14
REMARK    4  A    between atoms: C_14  and  C_15
REMARK    5  A    between atoms: C_19  and  C_28
REMARK    6  A    between atoms: N_30  and  C_31
REMARK                            x       y       z     vdW  Elec       q    Type
REMARK                         _______ _______ _______ _____ _____    ______ ____
ROOT
ATOM      1  C   UNL     1       0.141  -6.565   3.313  0.00  0.00    +0.253 C 
ATOM      2  O   UNL     1       0.091  -7.025   2.192  0.00  0.00    -0.272 OA
ATOM      3  N   UNL     1       0.125  -7.389   4.380  0.00  0.00    -0.297 N 
ATOM      4  C   UNL     1       0.171  -7.018   5.814  0.00  0.00    +0.121 C 
ATOM      5  C   UNL     1      -0.808  -7.996   6.502  0.00  0.00    +0.100 C 
ATOM      6  C   UNL     1      -0.877  -9.210   5.559  0.00  0.00    -0.004 C 
ATOM      7  C   UNL     1       0.051  -8.870   4.384  0.00  0.00    +0.115 C 
ATOM      8  C   UNL     1      -2.304  -9.409   5.057  0.00  0.00    -0.010 C 
ATOM      9  C   UNL     1      -2.357 -10.654   4.168  0.00  0.00    -0.082 C 
ATOM     10  N   UNL     1      -1.920 -11.826   4.936  0.00  0.00    +0.379 N 
ATOM     11  C   UNL     1      -0.517 -11.667   5.337  0.00  0.00    -0.082 C 
ATOM     12  C   UNL     1      -0.385 -10.464   6.276  0.00  0.00    -0.010 C 
ATOM     13  H   UNL     1      -2.495 -11.919   5.760  0.00  0.00    -0.086 HD
ATOM     14  H   UNL     1      -2.015 -12.654   4.368  0.00  0.00    -0.086 HD
ENDROOT
BRANCH   5  15
ATOM     15  C   UNL     1      -0.278  -8.407   7.851  0.00  0.00    +0.218 C 
ATOM     16  O   UNL     1       0.918  -8.472   8.039  0.00  0.00    -0.275 OA
ATOM     17  N   UNL     1      -1.134  -8.701   8.850  0.00  0.00    -0.312 N 
ATOM     18  H   UNL     1      -2.091  -8.649   8.700  0.00  0.00    +0.149 HD
BRANCH  17  19
ATOM     19  C   UNL     1      -0.619  -9.100  10.162  0.00  0.00    +0.073 C 
ATOM     20  C   UNL     1      -0.332 -10.603  10.162  0.00  0.00    +0.022 C 
ATOM     21  C   UNL     1       0.558 -10.952  11.357  0.00  0.00    +0.002 C 
ATOM     22  C   UNL     1       1.677  -9.916  11.479  0.00  0.00    +0.000 C 
ATOM     23  C   UNL     1       1.481  -9.102  12.760  0.00  0.00    +0.000 C 
ATOM     24  C   UNL     1       0.350  -8.093  12.554  0.00  0.00    +0.000 C 
ATOM     25  C   UNL     1      -0.997  -8.816  12.616  0.00  0.00    +0.002 C 
ATOM     26  C   UNL     1      -1.660  -8.780  11.238  0.00  0.00    +0.022 C 
ENDBRANCH  17  19
ENDBRANCH   5  15
BRANCH   1  27
ATOM     27  C   UNL     1       0.220  -5.074   3.514  0.00  0.00    +0.324 C 
BRANCH  27  28
ATOM     28  O   UNL     1       0.222  -4.422   2.242  0.00  0.00    -0.479 OA
BRANCH  28  40
ATOM     29  C   UNL     1       0.447   1.274  -0.242  0.00  0.00    +0.045 C 
ATOM     30  C   UNL     1       0.373  -0.231  -0.212  0.00  0.00    -0.033 A 
ATOM     31  C   UNL     1       0.310  -0.948  -1.363  0.00  0.00    +0.096 A 
ATOM     32  C   UNL     1       0.242  -2.357  -1.307  0.00  0.00    +0.338 A 
ATOM     33  O   UNL     1       0.186  -2.990  -2.346  0.00  0.00    -0.245 OA
ATOM     34  O   UNL     1       0.236  -3.017  -0.139  0.00  0.00    -0.418 OA
ATOM     35  C   UNL     1       0.297  -2.362   1.041  0.00  0.00    +0.181 A 
ATOM     36  C   UNL     1       0.372  -0.960   1.060  0.00  0.00    +0.024 A 
ATOM     37  C   UNL     1       0.440  -0.280   2.280  0.00  0.00    +0.012 A 
ATOM     38  C   UNL     1       0.438  -0.991   3.459  0.00  0.00    +0.004 A 
ATOM     39  C   UNL     1       0.369  -2.376   3.443  0.00  0.00    +0.049 A 
ATOM     40  C   UNL     1       0.290  -3.064   2.245  0.00  0.00    +0.164 A 
ENDBRANCH  28  40
ENDBRANCH  27  28
ENDBRANCH   1  27
TORSDOF 5
