REMARK  Name = ZINC55143371
REMARK  4 active torsions:
REMARK  status: ('A' for Active; 'I' for Inactive)
REMARK    1  A    between atoms: C_3  and  N_16
REMARK    2  A    between atoms: C_4  and  O_8
REMARK    3  A    between atoms: O_8  and  C_9
REMARK    4  A    between atoms: C_12  and  N_15
REMARK                            x       y       z     vdW  Elec       q    Type
REMARK                         _______ _______ _______ _____ _____    ______ ____
ROOT
ATOM      1  O   UNL     1       3.587  -0.629  -0.036  0.00  0.00    -0.486 OA
ENDROOT
BRANCH   1   5
ATOM      2  C   UNL     1      -0.017   1.380   0.007  0.00  0.00    +0.041 A 
ATOM      3  C   UNL     1       1.158   2.073  -0.218  0.00  0.00    +0.039 A 
ATOM      4  C   UNL     1       2.365   1.403  -0.233  0.00  0.00    +0.168 A 
ATOM      5  C   UNL     1       2.400   0.031  -0.021  0.00  0.00    +0.154 A 
ATOM      6  C   UNL     1       1.222  -0.663   0.205  0.00  0.00    +0.086 A 
ATOM      7  C   UNL     1       0.014   0.012   0.219  0.00  0.00    +0.127 A 
ATOM      8  F   UNL     1      -1.135  -0.663   0.439  0.00  0.00    -0.205 F 
BRANCH   4   9
ATOM      9  N   UNL     1       3.622   2.146  -0.475  0.00  0.00    +0.060 N 
ATOM     10  O   UNL     1       3.592   3.340  -0.659  0.00  0.00    -0.126 OA
ATOM     11  O   UNL     1       4.679   1.559  -0.487  0.00  0.00    -0.126 OA
ENDBRANCH   4   9
ENDBRANCH   1   5
BRANCH   1  12
ATOM     12  C   UNL     1       3.538  -2.054   0.068  0.00  0.00    +0.173 C 
ATOM     13  C   UNL     1       3.470  -2.456   1.543  0.00  0.00    +0.043 C 
ATOM     14  C   UNL     1       3.418  -3.981   1.654  0.00  0.00    -0.013 C 
ATOM     15  C   UNL     1       4.673  -4.582   1.019  0.00  0.00    -0.075 C 
ATOM     16  C   UNL     1       4.741  -4.180  -0.456  0.00  0.00    -0.013 C 
ATOM     17  C   UNL     1       4.794  -2.655  -0.567  0.00  0.00    +0.043 C 
BRANCH  15  18
ATOM     18  N   UNL     1       4.623  -6.046   1.126  0.00  0.00    +0.380 N 
ATOM     19  H   UNL     1       3.805  -6.390   0.645  0.00  0.00    -0.090 HD
ATOM     20  H   UNL     1       5.451  -6.443   0.707  0.00  0.00    -0.090 HD
ATOM     21  H   UNL     1       4.578  -6.311   2.098  0.00  0.00    -0.090 HD
ENDBRANCH  15  18
ENDBRANCH   1  12
TORSDOF 4
