REMARK  Name = ZINC36500476
REMARK  11 active torsions:
REMARK  status: ('A' for Active; 'I' for Inactive)
REMARK    1  A    between atoms: C_1  and  C_2
REMARK    2  A    between atoms: C_5  and  C_9
REMARK    3  A    between atoms: C_6  and  C_8
REMARK    4  A    between atoms: C_9  and  C_11
REMARK    5  A    between atoms: C_9  and  N_20
REMARK    6  A    between atoms: N_13  and  C_14
REMARK    7  A    between atoms: N_20  and  C_21
REMARK    8  A    between atoms: C_21  and  C_22
REMARK    9  A    between atoms: C_27  and  C_29
REMARK   10  A    between atoms: C_30  and  O_36
REMARK   11  A    between atoms: C_34  and  O_35
REMARK                            x       y       z     vdW  Elec       q    Type
REMARK                         _______ _______ _______ _____ _____    ______ ____
ROOT
ATOM      1  C   UNL     1      -0.431  -3.970  -0.203  0.00  0.00    +0.193 C 
ENDROOT
BRANCH   1   6
ATOM      2  C   UNL     1       0.223   1.616  -1.530  0.00  0.00    +0.044 C 
ATOM      3  C   UNL     1       0.052   0.159  -1.184  0.00  0.00    -0.050 A 
ATOM      4  C   UNL     1      -1.149  -0.476  -1.439  0.00  0.00    +0.004 A 
ATOM      5  C   UNL     1      -1.306  -1.812  -1.121  0.00  0.00    +0.006 A 
ATOM      6  C   UNL     1      -0.261  -2.514  -0.550  0.00  0.00    -0.015 A 
ATOM      7  C   UNL     1       0.941  -1.879  -0.296  0.00  0.00    -0.045 A 
ATOM      8  C   UNL     1       1.099  -0.544  -0.618  0.00  0.00    +0.007 A 
ATOM      9  C   UNL     1       2.080  -2.644   0.327  0.00  0.00    +0.044 C 
ENDBRANCH   1   6
BRANCH   1  10
ATOM     10  C   UNL     1      -1.898  -4.317  -0.199  0.00  0.00    +0.238 C 
ATOM     11  O   UNL     1      -2.369  -4.968  -1.108  0.00  0.00    -0.273 OA
ATOM     12  N   UNL     1      -2.686  -3.904   0.813  0.00  0.00    -0.311 N 
ATOM     13  H   UNL     1      -2.325  -3.326   1.504  0.00  0.00    +0.149 HD
BRANCH  12  14
ATOM     14  C   UNL     1      -4.087  -4.329   0.872  0.00  0.00    +0.073 C 
ATOM     15  C   UNL     1      -4.941  -3.389   0.019  0.00  0.00    +0.022 C 
ATOM     16  C   UNL     1      -6.404  -3.833   0.080  0.00  0.00    +0.002 C 
ATOM     17  C   UNL     1      -6.890  -3.789   1.530  0.00  0.00    +0.000 C 
ATOM     18  C   UNL     1      -6.036  -4.729   2.383  0.00  0.00    +0.002 C 
ATOM     19  C   UNL     1      -4.573  -4.285   2.322  0.00  0.00    +0.022 C 
ENDBRANCH  12  14
ENDBRANCH   1  10
BRANCH   1  20
ATOM     20  N   UNL     1       0.263  -4.794  -1.196  0.00  0.00    -0.274 N 
ATOM     21  C   UNL     1      -0.031  -4.662  -2.505  0.00  0.00    +0.255 C 
ATOM     22  O   UNL     1      -0.872  -3.859  -2.861  0.00  0.00    -0.270 OA
BRANCH  21  23
ATOM     23  C   UNL     1       0.667  -5.489  -3.503  0.00  0.00    +0.119 A 
ATOM     24  C   UNL     1       0.142  -6.734  -3.880  0.00  0.00    +0.133 A 
ATOM     25  C   UNL     1       0.806  -7.504  -4.820  0.00  0.00    +0.046 A 
ATOM     26  C   UNL     1       1.983  -7.050  -5.386  0.00  0.00    +0.007 A 
ATOM     27  C   UNL     1       2.509  -5.825  -5.022  0.00  0.00    +0.046 A 
ATOM     28  C   UNL     1       1.858  -5.036  -4.088  0.00  0.00    +0.133 A 
BRANCH  28  29
ATOM     29  O   UNL     1       2.374  -3.831  -3.736  0.00  0.00    -0.506 OA
ATOM     30  H   UNL     1       2.987  -3.868  -2.990  0.00  0.00    +0.292 HD
ENDBRANCH  28  29
BRANCH  24  31
ATOM     31  O   UNL     1      -1.012  -7.182  -3.325  0.00  0.00    -0.506 OA
ATOM     32  H   UNL     1      -1.808  -6.922  -3.809  0.00  0.00    +0.292 HD
ENDBRANCH  24  31
ENDBRANCH  21  23
BRANCH  20  33
ATOM     33  C   UNL     1       1.276  -5.761  -0.766  0.00  0.00    +0.183 C 
BRANCH  33  34
ATOM     34  C   UNL     1       0.603  -7.046  -0.358  0.00  0.00    +0.122 A 
ATOM     35  C   UNL     1       0.451  -8.135  -1.132  0.00  0.00    +0.046 A 
ATOM     36  C   UNL     1      -0.230  -9.099  -0.354  0.00  0.00    +0.041 A 
ATOM     37  C   UNL     1      -0.454  -8.541   0.849  0.00  0.00    +0.195 A 
ATOM     38  O   UNL     1       0.058  -7.300   0.843  0.00  0.00    -0.466 OA
ENDBRANCH  33  34
ENDBRANCH  20  33
ENDBRANCH   1  20
TORSDOF 9
