REMARK  Name = ZINC65329930
REMARK  10 active torsions:
REMARK  status: ('A' for Active; 'I' for Inactive)
REMARK    1  A    between atoms: C_1  and  C_2
REMARK    2  A    between atoms: C_2  and  C_3
REMARK    3  A    between atoms: C_8  and  N_9
REMARK    4  A    between atoms: N_11  and  C_12
REMARK    5  A    between atoms: C_12  and  C_13
REMARK    6  A    between atoms: C_13  and  C_14
REMARK    7  A    between atoms: N_23  and  C_24
REMARK    8  A    between atoms: C_24  and  C_26
REMARK    9  A    between atoms: C_30  and  O_32
REMARK   10  A    between atoms: O_32  and  C_33
REMARK                            x       y       z     vdW  Elec       q    Type
REMARK                         _______ _______ _______ _____ _____    ______ ____
ROOT
ATOM      1  N   UNL     1       3.790  -1.475   0.059  0.00  0.00    -0.328 N 
ATOM      2  C   UNL     1       4.880  -0.654   0.056  0.00  0.00    +0.194 C 
ATOM      3  N   UNL     1       5.110   0.181   1.110  0.00  0.00    -0.357 N 
ATOM      4  N   UNL     1       5.716  -0.667  -0.972  0.00  0.00    -0.143 NA
ATOM      5  H   UNL     1       5.858   0.797   1.087  0.00  0.00    +0.162 HD
ATOM      6  H   UNL     1       3.901  -2.428   0.201  0.00  0.00    +0.169 HD
ENDROOT
BRANCH   1  12
ATOM      7  C   UNL     1       1.391  -1.747   0.009  0.00  0.00    -0.024 A 
ATOM      8  C   UNL     1       0.131  -1.216  -0.185  0.00  0.00    +0.005 A 
ATOM      9  C   UNL     1      -0.015   0.114  -0.533  0.00  0.00    +0.000 A 
ATOM     10  C   UNL     1       1.100   0.917  -0.689  0.00  0.00    +0.002 A 
ATOM     11  C   UNL     1       2.363   0.393  -0.497  0.00  0.00    +0.026 A 
ATOM     12  C   UNL     1       2.512  -0.942  -0.141  0.00  0.00    +0.045 A 
BRANCH   7  14
ATOM     13  C   UNL     1       1.657  -3.317   1.909  0.00  0.00    +0.009 C 
ATOM     14  C   UNL     1       1.548  -3.197   0.388  0.00  0.00    +0.034 C 
ENDBRANCH   7  14
ENDBRANCH   1  12
BRANCH   4  15
ATOM     15  C   UNL     1       5.398  -1.341  -2.085  0.00  0.00    +0.270 C 
ATOM     16  O   UNL     1       4.292  -1.838  -2.201  0.00  0.00    -0.268 OA
BRANCH  15  17
ATOM     17  C   UNL     1       6.390  -1.480  -3.176  0.00  0.00    +0.042 A 
ATOM     18  C   UNL     1       7.694  -1.015  -2.999  0.00  0.00    +0.013 A 
ATOM     19  C   UNL     1       8.616  -1.146  -4.017  0.00  0.00    +0.004 A 
ATOM     20  C   UNL     1       8.253  -1.737  -5.213  0.00  0.00    +0.045 A 
ATOM     21  C   UNL     1       6.958  -2.202  -5.398  0.00  0.00    +0.121 A 
ATOM     22  C   UNL     1       6.027  -2.081  -4.380  0.00  0.00    +0.058 A 
BRANCH  21  23
ATOM     23  O   UNL     1       6.606  -2.782  -6.575  0.00  0.00    -0.495 OA
ATOM     24  C   UNL     1       7.618  -2.879  -7.579  0.00  0.00    +0.277 C 
ENDBRANCH  21  23
ENDBRANCH  15  17
ENDBRANCH   4  15
BRANCH   3  25
ATOM     25  C   UNL     1       4.225   0.145   2.277  0.00  0.00    +0.120 C 
BRANCH  25  26
ATOM     26  C   UNL     1       4.670   1.207   3.286  0.00  0.00    +0.054 C 
BRANCH  26  27
ATOM     27  C   UNL     1       3.836   1.092   4.536  0.00  0.00    -0.040 C 
ATOM     28  C   UNL     1       4.035   0.246   5.572  0.00  0.00    -0.001 A 
ATOM     29  C   UNL     1       5.049  -0.782   5.835  0.00  0.00    +0.010 A 
ATOM     30  C   UNL     1       4.986  -1.484   6.989  0.00  0.00    +0.001 A 
ATOM     31  C   UNL     1       3.980  -1.256   7.938  0.00  0.00    +0.002 A 
ATOM     32  C   UNL     1       3.014  -0.329   7.767  0.00  0.00    +0.026 A 
ATOM     33  C   UNL     1       2.983   0.469   6.590  0.00  0.00    +0.043 A 
ATOM     34  N   UNL     1       2.165   1.415   6.198  0.00  0.00    -0.380 N 
ATOM     35  C   UNL     1       2.610   1.905   4.888  0.00  0.00    +0.144 C 
ATOM     36  H   UNL     1       1.396   1.740   6.692  0.00  0.00    +0.160 HD
ENDBRANCH  26  27
ENDBRANCH  25  26
ENDBRANCH   3  25
TORSDOF 8
