REMARK  Name = ZINC29122295
REMARK  10 active torsions:
REMARK  status: ('A' for Active; 'I' for Inactive)
REMARK    1  A    between atoms: C_1  and  C_2
REMARK    2  A    between atoms: C_2  and  C_3
REMARK    3  A    between atoms: C_2  and  C_4
REMARK    4  A    between atoms: C_2  and  C_5
REMARK    5  A    between atoms: C_8  and  S_11
REMARK    6  A    between atoms: S_11  and  N_14
REMARK    7  A    between atoms: N_17  and  C_20
REMARK    8  A    between atoms: C_20  and  C_21
REMARK    9  A    between atoms: N_23  and  C_24
REMARK   10  A    between atoms: C_29  and  C_30
REMARK                            x       y       z     vdW  Elec       q    Type
REMARK                         _______ _______ _______ _____ _____    ______ ____
ROOT
ATOM      1  N   UNL     1      -0.915   1.877  -1.318  0.00  0.00    -0.180 NA
ATOM      2  C   UNL     1      -1.805   1.004  -2.099  0.00  0.00    +0.091 C 
ATOM      3  C   UNL     1      -3.167   1.703  -2.237  0.00  0.00    -0.061 C 
ATOM      4  N   UNL     1      -2.967   3.046  -2.797  0.00  0.00    +0.387 N 
ATOM      5  C   UNL     1      -2.169   3.886  -1.894  0.00  0.00    -0.061 C 
ATOM      6  C   UNL     1      -0.771   3.279  -1.739  0.00  0.00    +0.091 C 
ATOM      7  H   UNL     1      -2.406   2.937  -3.736  0.00  0.00    -0.081 HD
ENDROOT
BRANCH   1   8
ATOM      8  S   UNL     1      -0.093   1.295  -0.004  0.00  0.00    +0.061 S 
ATOM      9  O   UNL     1       0.018  -0.111  -0.183  0.00  0.00    -0.153 OA
ATOM     10  O   UNL     1       1.042   2.132   0.169  0.00  0.00    -0.153 OA
BRANCH   8  14
ATOM     11  C   UNL     1      -2.733   1.932   3.618  0.00  0.00    -0.042 A 
ATOM     12  C   UNL     1      -2.823   0.757   2.895  0.00  0.00    +0.006 A 
ATOM     13  C   UNL     1      -2.016   0.562   1.790  0.00  0.00    +0.029 A 
ATOM     14  C   UNL     1      -1.121   1.543   1.406  0.00  0.00    +0.105 A 
ATOM     15  C   UNL     1      -1.027   2.716   2.131  0.00  0.00    +0.029 A 
ATOM     16  C   UNL     1      -1.837   2.913   3.235  0.00  0.00    +0.006 A 
BRANCH  11  18
ATOM     17  C   UNL     1      -3.332   1.053   5.858  0.00  0.00    +0.015 C 
ATOM     18  C   UNL     1      -3.612   2.145   4.823  0.00  0.00    -0.013 C 
ATOM     19  C   UNL     1      -3.315   3.515   5.436  0.00  0.00    +0.015 C 
ATOM     20  C   UNL     1      -5.081   2.082   4.401  0.00  0.00    +0.015 C 
ENDBRANCH  11  18
ENDBRANCH   8  14
ENDBRANCH   1   8
BRANCH   4  21
ATOM     21  C   UNL     1      -4.254   3.683  -3.109  0.00  0.00    +0.019 C 
BRANCH  21  22
ATOM     22  C   UNL     1      -5.080   3.788  -1.853  0.00  0.00    +0.201 C 
ATOM     23  O   UNL     1      -4.605   3.461  -0.786  0.00  0.00    -0.278 OA
ATOM     24  N   UNL     1      -6.346   4.244  -1.915  0.00  0.00    -0.286 N 
ATOM     25  H   UNL     1      -6.801   4.474  -2.890  0.00  0.00    +0.155 HD
BRANCH  24  26
ATOM     26  C   UNL     1      -7.080   4.425  -0.745  0.00  0.00    +0.045 A 
ATOM     27  C   UNL     1      -6.942   3.533   0.309  0.00  0.00    +0.024 A 
ATOM     28  C   UNL     1      -7.667   3.716   1.470  0.00  0.00    +0.002 A 
ATOM     29  C   UNL     1      -8.543   4.782   1.588  0.00  0.00    +0.001 A 
ATOM     30  C   UNL     1      -8.698   5.675   0.549  0.00  0.00    +0.015 A 
ATOM     31  C   UNL     1      -7.967   5.505  -0.629  0.00  0.00    +0.058 A 
BRANCH  31  32
ATOM     32  C   UNL     1      -8.128   6.457  -1.745  0.00  0.00    +0.243 C 
ATOM     33  O   UNL     1      -7.558   6.258  -2.801  0.00  0.00    -0.270 OA
ATOM     34  N   UNL     1      -8.906   7.547  -1.595  0.00  0.00    -0.325 N 
ATOM     35  H   UNL     1      -9.026   8.256  -2.427  0.00  0.00    +0.145 HD
ATOM     36  H   UNL     1      -9.422   7.727  -0.640  0.00  0.00    +0.145 HD
ENDBRANCH  31  32
ENDBRANCH  24  26
ENDBRANCH  21  22
ENDBRANCH   4  21
TORSDOF 7
