REMARK  Name = ZINC40778023
REMARK  10 active torsions:
REMARK  status: ('A' for Active; 'I' for Inactive)
REMARK    1  A    between atoms: C_1  and  C_2
REMARK    2  A    between atoms: C_2  and  C_4
REMARK    3  A    between atoms: C_2  and  N_7
REMARK    4  A    between atoms: C_4  and  O_5
REMARK    5  A    between atoms: O_5  and  C_6
REMARK    6  A    between atoms: C_9  and  N_28
REMARK    7  A    between atoms: C_10  and  N_14
REMARK    8  A    between atoms: N_14  and  N_15
REMARK    9  A    between atoms: N_15  and  C_16
REMARK   10  A    between atoms: N_15  and  C_22
REMARK                            x       y       z     vdW  Elec       q    Type
REMARK                         _______ _______ _______ _____ _____    ______ ____
ROOT
ATOM      1  N   UNL     1       5.909  -1.927   6.881  0.00  0.00    -0.323 N 
ATOM      2  C   UNL     1       4.607  -2.413   6.887  0.00  0.00    +0.145 A 
ATOM      3  C   UNL     1       3.524  -1.536   6.970  0.00  0.00    +0.105 A 
ATOM      4  C   UNL     1       2.237  -2.077   6.973  0.00  0.00    +0.139 A 
ATOM      5  N   UNL     1       2.093  -3.398   6.897  0.00  0.00    -0.332 N 
ATOM      6  C   UNL     1       3.142  -4.191   6.819  0.00  0.00    +0.200 A 
ATOM      7  N   UNL     1       4.373  -3.721   6.809  0.00  0.00    -0.221 NA
ATOM      8  H   UNL     1       6.071  -0.973   6.939  0.00  0.00    +0.148 HD
ATOM      9  H   UNL     1       1.202  -3.783   6.898  0.00  0.00    +0.168 HD
ENDROOT
BRANCH   3  10
ATOM     10  N   UNL     1       3.724  -0.148   7.050  0.00  0.00    -0.353 N 
ATOM     11  H   UNL     1       4.624   0.213   7.047  0.00  0.00    +0.143 HD
ATOM     12  H   UNL     1       2.961   0.449   7.107  0.00  0.00    +0.143 HD
ENDBRANCH   3  10
BRANCH   1  14
ATOM     13  C   UNL     1       7.308  -3.184   5.317  0.00  0.00    +0.030 C 
ATOM     14  C   UNL     1       7.038  -2.857   6.787  0.00  0.00    +0.094 C 
BRANCH  14  15
ATOM     15  C   UNL     1       8.281  -2.214   7.404  0.00  0.00    +0.181 C 
BRANCH  15  16
ATOM     16  O   UNL     1       8.663  -1.076   6.628  0.00  0.00    -0.381 OA
ATOM     17  C   UNL     1       9.821  -0.399   7.122  0.00  0.00    +0.194 C 
ENDBRANCH  15  16
ENDBRANCH  14  15
ENDBRANCH   1  14
BRANCH   4  18
ATOM     18  N   UNL     1       1.124  -1.249   7.055  0.00  0.00    -0.243 N 
ATOM     19  H   UNL     1       1.238  -0.287   7.110  0.00  0.00    +0.172 HD
BRANCH  18  20
ATOM     20  N   UNL     1      -0.163  -1.803   7.056  0.00  0.00    -0.221 N 
BRANCH  20  21
ATOM     21  C   UNL     1      -0.895  -1.864   8.244  0.00  0.00    +0.053 A 
ATOM     22  C   UNL     1      -0.352  -2.475   9.367  0.00  0.00    +0.025 A 
ATOM     23  C   UNL     1      -1.079  -2.534  10.540  0.00  0.00    +0.002 A 
ATOM     24  C   UNL     1      -2.347  -1.984  10.597  0.00  0.00    +0.000 A 
ATOM     25  C   UNL     1      -2.891  -1.375   9.481  0.00  0.00    +0.002 A 
ATOM     26  C   UNL     1      -2.167  -1.308   8.307  0.00  0.00    +0.025 A 
ENDBRANCH  20  21
BRANCH  20  27
ATOM     27  C   UNL     1      -0.713  -2.295   5.870  0.00  0.00    +0.053 A 
ATOM     28  C   UNL     1      -0.069  -2.073   4.659  0.00  0.00    +0.025 A 
ATOM     29  C   UNL     1      -0.616  -2.561   3.489  0.00  0.00    +0.002 A 
ATOM     30  C   UNL     1      -1.803  -3.269   3.521  0.00  0.00    +0.000 A 
ATOM     31  C   UNL     1      -2.447  -3.492   4.724  0.00  0.00    +0.002 A 
ATOM     32  C   UNL     1      -1.902  -3.013   5.899  0.00  0.00    +0.025 A 
ENDBRANCH  20  27
ENDBRANCH  18  20
ENDBRANCH   4  18
TORSDOF 8
