REMARK  Name = ZINC14157989
REMARK  14 active torsions:
REMARK  status: ('A' for Active; 'I' for Inactive)
REMARK    1  A    between atoms: C_1  and  C_2
REMARK    2  A    between atoms: C_4  and  C_34
REMARK    3  A    between atoms: N_10  and  C_11
REMARK    4  A    between atoms: C_11  and  N_13
REMARK    5  A    between atoms: N_13  and  C_14
REMARK    6  A    between atoms: C_16  and  O_22
REMARK    7  A    between atoms: C_18  and  O_20
REMARK    8  A    between atoms: O_20  and  C_21
REMARK    9  A    between atoms: O_22  and  C_23
REMARK   10  A    between atoms: N_24  and  C_25
REMARK   11  A    between atoms: C_27  and  C_32
REMARK   12  A    between atoms: C_27  and  C_33
REMARK   13  A    between atoms: C_28  and  C_30
REMARK   14  A    between atoms: C_28  and  C_31
REMARK                            x       y       z     vdW  Elec       q    Type
REMARK                         _______ _______ _______ _____ _____    ______ ____
ROOT
ATOM      1  C   UNL     1       1.472   7.551  -9.728  0.00  0.00    +0.066 C 
ATOM      2  C   UNL     1       0.275   7.259  -8.861  0.00  0.00    +0.044 A 
ATOM      3  C   UNL     1      -0.903   7.970  -9.029  0.00  0.00    +0.046 A 
ATOM      4  C   UNL     1      -1.981   7.669  -8.211  0.00  0.00    +0.044 A 
ATOM      5  N   UNL     1      -1.854   6.717  -7.301  0.00  0.00    -0.217 NA
ATOM      6  C   UNL     1      -0.714   6.056  -7.167  0.00  0.00    +0.231 A 
ATOM      7  N   UNL     1       0.336   6.323  -7.928  0.00  0.00    -0.217 NA
ATOM      8  N   UNL     1      -0.616   5.064  -6.201  0.00  0.00    -0.297 N 
ATOM      9  C   UNL     1       0.553   4.368  -6.051  0.00  0.00    +0.196 C 
ATOM     10  N   UNL     1       1.654   4.997  -5.679  0.00  0.00    -0.159 NA
ATOM     11  N   UNL     1       0.581   3.023  -6.286  0.00  0.00    -0.355 N 
ATOM     12  C   UNL     1      -3.282   8.415  -8.358  0.00  0.00    +0.066 C 
ATOM     13  H   UNL     1      -1.376   4.864  -5.632  0.00  0.00    +0.171 HD
ATOM     14  H   UNL     1       1.410   2.530  -6.180  0.00  0.00    +0.163 HD
ENDROOT
BRANCH  11  15
ATOM     15  C   UNL     1      -0.642   2.324  -6.699  0.00  0.00    +0.079 C 
ATOM     16  C   UNL     1      -0.538   0.852  -6.303  0.00  0.00    +0.011 C 
ATOM     17  C   UNL     1      -1.790   0.095  -6.740  0.00  0.00    -0.071 C 
ATOM     18  C   UNL     1      -2.035   1.671  -8.680  0.00  0.00    -0.071 C 
ATOM     19  C   UNL     1      -0.782   2.410  -8.219  0.00  0.00    +0.011 C 
ATOM     20  C   UNL     1      -1.962   1.546 -10.218  0.00  0.00    -0.010 C 
ATOM     21  C   UNL     1      -3.276   2.510  -8.352  0.00  0.00    -0.010 C 
ATOM     22  C   UNL     1      -2.952   0.441  -5.802  0.00  0.00    -0.010 C 
ATOM     23  C   UNL     1      -1.502  -1.415  -6.575  0.00  0.00    -0.010 C 
ATOM     24  N   UNL     1      -2.168   0.281  -8.167  0.00  0.00    +0.386 N 
ATOM     25  H   UNL     1      -3.147  -0.006  -8.277  0.00  0.00    -0.084 HD
ATOM     26  H   UNL     1      -1.567  -0.327  -8.737  0.00  0.00    -0.084 HD
ENDBRANCH  11  15
BRANCH  10  27
ATOM     27  C   UNL     1       1.579   6.233  -5.165  0.00  0.00    +0.161 C 
ATOM     28  S   UNL     1       0.051   6.930  -4.831  0.00  0.00    -0.016 S 
BRANCH  27  29
ATOM     29  N   UNL     1       2.705   6.928  -4.913  0.00  0.00    -0.295 N 
ATOM     30  H   UNL     1       3.568   6.562  -5.164  0.00  0.00    +0.154 HD
BRANCH  29  31
ATOM     31  C   UNL     1       2.632   8.177  -4.288  0.00  0.00    +0.040 A 
ATOM     32  C   UNL     1       1.931   8.318  -3.098  0.00  0.00    +0.069 A 
ATOM     33  C   UNL     1       1.863   9.555  -2.476  0.00  0.00    +0.125 A 
ATOM     34  C   UNL     1       2.486  10.655  -3.049  0.00  0.00    +0.091 A 
ATOM     35  C   UNL     1       3.181  10.516  -4.241  0.00  0.00    +0.125 A 
ATOM     36  C   UNL     1       3.255   9.278  -4.861  0.00  0.00    +0.069 A 
BRANCH  35  37
ATOM     37  O   UNL     1       3.791  11.593  -4.801  0.00  0.00    -0.495 OA
ATOM     38  C   UNL     1       3.675  12.837  -4.108  0.00  0.00    +0.277 C 
ENDBRANCH  35  37
BRANCH  33  39
ATOM     39  O   UNL     1       1.182   9.692  -1.308  0.00  0.00    -0.495 OA
ATOM     40  C   UNL     1       1.148  10.997  -0.726  0.00  0.00    +0.277 C 
ENDBRANCH  33  39
ENDBRANCH  29  31
ENDBRANCH  27  29
ENDBRANCH  10  27
TORSDOF 6
