REMARK  Name = ZINC41716956
REMARK  6 active torsions:
REMARK  status: ('A' for Active; 'I' for Inactive)
REMARK    1  A    between atoms: C_1  and  C_2
REMARK    2  A    between atoms: C_2  and  N_3
REMARK    3  A    between atoms: N_3  and  C_4
REMARK    4  A    between atoms: C_4  and  C_6
REMARK    5  A    between atoms: C_4  and  C_7
REMARK    6  A    between atoms: C_10  and  N_13
REMARK                            x       y       z     vdW  Elec       q    Type
REMARK                         _______ _______ _______ _____ _____    ______ ____
ROOT
ATOM      1  C   UNL     1       1.504  -2.437  -2.398  0.00  0.00    -0.062 A 
ATOM      2  C   UNL     1       1.283  -1.909  -3.658  0.00  0.00    +0.004 A 
ATOM      3  C   UNL     1       2.030  -2.350  -4.733  0.00  0.00    +0.023 A 
ATOM      4  C   UNL     1       3.002  -3.324  -4.548  0.00  0.00    +0.035 A 
ATOM      5  C   UNL     1       3.221  -3.851  -3.282  0.00  0.00    +0.023 A 
ATOM      6  C   UNL     1       2.475  -3.402  -2.210  0.00  0.00    +0.004 A 
ENDROOT
BRANCH   4   7
ATOM      7  N   UNL     1       3.760  -3.773  -5.636  0.00  0.00    -0.269 N 
ATOM      8  C   UNL     1       4.075  -2.924  -6.634  0.00  0.00    +0.310 C 
ATOM      9  O   UNL     1       3.786  -1.746  -6.544  0.00  0.00    -0.252 OA
ATOM     10  N   UNL     1       4.712  -3.380  -7.731  0.00  0.00    -0.248 N 
ATOM     11  C   UNL     1       5.037  -2.504  -8.760  0.00  0.00    +0.167 A 
ATOM     12  N   UNL     1       4.811  -1.211  -8.835  0.00  0.00    -0.232 NA
ATOM     13  C   UNL     1       5.186  -0.512  -9.891  0.00  0.00    +0.136 A 
ATOM     14  C   UNL     1       5.811  -1.189 -10.887  0.00  0.00    +0.076 A 
ATOM     15  S   UNL     1       5.823  -2.841 -10.210  0.00  0.00    -0.045 S 
ATOM     16 BR   UNL     1       6.487  -0.556 -12.536  0.00  0.00    -0.041 Br
ATOM     17  H   UNL     1       4.058  -4.696  -5.671  0.00  0.00    +0.156 HD
ATOM     18  H   UNL     1       4.943  -4.320  -7.802  0.00  0.00    +0.158 HD
ENDBRANCH   4   7
BRANCH   1  19
ATOM     19  C   UNL     1       0.687  -1.954  -1.228  0.00  0.00    -0.044 C 
ATOM     20  C   UNL     1      -0.675  -2.650  -1.234  0.00  0.00    -0.009 C 
BRANCH  19  21
ATOM     21  N   UNL     1       0.495  -0.501  -1.331  0.00  0.00    +0.383 N 
ATOM     22  H   UNL     1      -0.060  -0.292  -2.147  0.00  0.00    -0.085 HD
ATOM     23  H   UNL     1       1.393  -0.048  -1.409  0.00  0.00    -0.085 HD
BRANCH  21  25
ATOM     24  C   UNL     1      -0.398   1.501  -0.238  0.00  0.00    -0.017 C 
ATOM     25  C   UNL     1      -0.197  -0.012  -0.131  0.00  0.00    -0.085 C 
ENDBRANCH  21  25
ENDBRANCH  19  21
ENDBRANCH   1  19
TORSDOF 4
