REMARK  Name = ZINC38799880
REMARK  11 active torsions:
REMARK  status: ('A' for Active; 'I' for Inactive)
REMARK    1  A    between atoms: C_1  and  C_2
REMARK    2  A    between atoms: C_2  and  C_3
REMARK    3  A    between atoms: C_2  and  O_4
REMARK    4  A    between atoms: O_4  and  C_5
REMARK    5  A    between atoms: C_5  and  C_6
REMARK    6  A    between atoms: C_6  and  C_7
REMARK    7  A    between atoms: C_7  and  N_8
REMARK    8  A    between atoms: C_9  and  C_11
REMARK    9  A    between atoms: N_23  and  N_27
REMARK   10  A    between atoms: C_24  and  N_26
REMARK   11  A    between atoms: C_28  and  C_29
REMARK                            x       y       z     vdW  Elec       q    Type
REMARK                         _______ _______ _______ _____ _____    ______ ____
ROOT
ATOM      1  C   UNL     1      -6.961  -2.422  -3.655  0.00  0.00    +0.131 C 
ATOM      2  C   UNL     1      -7.805  -1.659  -2.658  0.00  0.00    +0.095 A 
ATOM      3  C   UNL     1      -8.990  -1.263  -3.299  0.00  0.00    +0.162 A 
ATOM      4  N   UNL     1      -9.902  -0.573  -2.624  0.00  0.00    -0.227 NA
ATOM      5  C   UNL     1      -9.691  -0.257  -1.344  0.00  0.00    +0.091 A 
ATOM      6  C   UNL     1     -10.644   0.472  -0.610  0.00  0.00    +0.030 A 
ATOM      7  C   UNL     1     -10.402   0.779   0.694  0.00  0.00    +0.002 A 
ATOM      8  C   UNL     1      -9.222   0.380   1.317  0.00  0.00    +0.002 A 
ATOM      9  C   UNL     1      -8.277  -0.328   0.639  0.00  0.00    +0.030 A 
ATOM     10  C   UNL     1      -8.491  -0.663  -0.708  0.00  0.00    +0.090 A 
ATOM     11  N   UNL     1      -7.581  -1.357  -1.401  0.00  0.00    -0.246 NA
ATOM     12  N   UNL     1      -9.019  -1.686  -4.620  0.00  0.00    -0.219 N 
ATOM     13  C   UNL     1      -7.794  -2.425  -4.947  0.00  0.00    +0.058 C 
ENDROOT
BRANCH   1  15
ATOM     14  N   UNL     1      -4.564  -2.423  -4.268  0.00  0.00    -0.315 N 
ATOM     15  C   UNL     1      -5.646  -1.720  -3.878  0.00  0.00    +0.222 C 
ATOM     16  O   UNL     1      -5.562  -0.522  -3.707  0.00  0.00    -0.275 OA
ATOM     17  H   UNL     1      -4.632  -3.381  -4.404  0.00  0.00    +0.149 HD
BRANCH  14  18
ATOM     18  C   UNL     1      -3.286  -1.740  -4.484  0.00  0.00    +0.106 C 
BRANCH  18  19
ATOM     19  C   UNL     1      -2.231  -2.759  -4.918  0.00  0.00    +0.047 C 
BRANCH  19  20
ATOM     20  C   UNL     1      -0.896  -2.046  -5.144  0.00  0.00    +0.161 C 
BRANCH  20  21
ATOM     21  O   UNL     1       0.090  -2.998  -5.549  0.00  0.00    -0.377 OA
BRANCH  21  23
ATOM     22  C   UNL     1       2.193  -2.453  -4.491  0.00  0.00    +0.037 C 
ATOM     23  C   UNL     1       1.380  -2.433  -5.787  0.00  0.00    +0.112 C 
ATOM     24  C   UNL     1       2.106  -3.251  -6.857  0.00  0.00    +0.037 C 
ENDBRANCH  21  23
ENDBRANCH  20  21
ENDBRANCH  19  20
ENDBRANCH  18  19
ENDBRANCH  14  18
ENDBRANCH   1  15
BRANCH  13  25
ATOM     25  N   UNL     1      -7.062  -1.746  -6.025  0.00  0.00    +0.392 N 
ATOM     26  H   UNL     1      -6.182  -2.213  -6.180  0.00  0.00    -0.087 HD
ATOM     27  H   UNL     1      -7.611  -1.772  -6.872  0.00  0.00    -0.087 HD
ATOM     28  H   UNL     1      -6.893  -0.786  -5.764  0.00  0.00    -0.087 HD
ENDBRANCH  13  25
BRANCH  12  29
ATOM     29  N   UNL     1      -9.986  -1.462  -5.444  0.00  0.00    -0.188 NA
ATOM     30  C   UNL     1      -9.963  -1.996  -6.643  0.00  0.00    +0.136 C 
BRANCH  30  31
ATOM     31  C   UNL     1     -10.943  -1.653  -7.579  0.00  0.00    +0.000 C 
ATOM     32  C   UNL     1     -11.065  -2.129  -8.885  0.00  0.00    +0.004 A 
ATOM     33  C   UNL     1     -10.303  -3.045  -9.642  0.00  0.00    +0.010 A 
ATOM     34  C   UNL     1     -10.663  -3.327 -10.920  0.00  0.00    +0.001 A 
ATOM     35  C   UNL     1     -11.778  -2.730 -11.514  0.00  0.00    +0.002 A 
ATOM     36  C   UNL     1     -12.555  -1.842 -10.848  0.00  0.00    +0.026 A 
ATOM     37  C   UNL     1     -12.241  -1.498  -9.507  0.00  0.00    +0.043 A 
ATOM     38  N   UNL     1     -12.826  -0.677  -8.658  0.00  0.00    -0.380 N 
ATOM     39  C   UNL     1     -12.096  -0.692  -7.387  0.00  0.00    +0.150 C 
ATOM     40  H   UNL     1     -13.619  -0.149  -8.843  0.00  0.00    +0.160 HD
ENDBRANCH  30  31
ENDBRANCH  12  29
TORSDOF 9
