REMARK  Name = ZINC40757693
REMARK  11 active torsions:
REMARK  status: ('A' for Active; 'I' for Inactive)
REMARK    1  A    between atoms: C_1  and  C_2
REMARK    2  A    between atoms: C_2  and  N_3
REMARK    3  A    between atoms: N_3  and  C_4
REMARK    4  A    between atoms: N_3  and  S_6
REMARK    5  A    between atoms: C_4  and  C_5
REMARK    6  A    between atoms: S_6  and  C_9
REMARK    7  A    between atoms: C_12  and  N_15
REMARK    8  A    between atoms: C_17  and  N_30
REMARK    9  A    between atoms: C_18  and  N_22
REMARK   10  A    between atoms: N_22  and  C_23
REMARK   11  A    between atoms: N_22  and  C_24
REMARK                            x       y       z     vdW  Elec       q    Type
REMARK                         _______ _______ _______ _____ _____    ______ ____
ROOT
ATOM      1  N   UNL     1      -4.710   4.042   3.384  0.00  0.00    -0.299 N 
ATOM      2  C   UNL     1      -5.999   4.342   2.957  0.00  0.00    +0.126 A 
ATOM      3  C   UNL     1      -6.644   5.497   3.406  0.00  0.00    +0.104 A 
ATOM      4  C   UNL     1      -7.937   5.750   2.945  0.00  0.00    +0.151 A 
ATOM      5  N   UNL     1      -8.502   4.889   2.101  0.00  0.00    -0.220 NA
ATOM      6  C   UNL     1      -7.858   3.812   1.702  0.00  0.00    +0.200 A 
ATOM      7  N   UNL     1      -6.634   3.538   2.108  0.00  0.00    -0.333 N 
ATOM      8  H   UNL     1      -4.290   4.581   4.073  0.00  0.00    +0.154 HD
ATOM      9  H   UNL     1      -6.192   2.736   1.788  0.00  0.00    +0.168 HD
ENDROOT
BRANCH   1  13
ATOM     10  C   UNL     1      -2.658   0.828   1.711  0.00  0.00    +0.106 A 
ATOM     11  C   UNL     1      -2.567   1.073   3.069  0.00  0.00    +0.030 A 
ATOM     12  C   UNL     1      -3.247   2.138   3.627  0.00  0.00    +0.025 A 
ATOM     13  C   UNL     1      -4.022   2.963   2.823  0.00  0.00    +0.032 A 
ATOM     14  C   UNL     1      -4.111   2.715   1.459  0.00  0.00    +0.025 A 
ATOM     15  C   UNL     1      -3.425   1.651   0.907  0.00  0.00    +0.030 A 
BRANCH  10  16
ATOM     16  S   UNL     1      -1.790  -0.532   1.003  0.00  0.00    +0.061 S 
ATOM     17  O   UNL     1      -2.470  -0.867  -0.199  0.00  0.00    -0.153 OA
ATOM     18  O   UNL     1      -1.584  -1.472   2.049  0.00  0.00    -0.153 OA
BRANCH  16  19
ATOM     19  N   UNL     1      -0.292   0.020   0.561  0.00  0.00    -0.177 NA
BRANCH  19  21
ATOM     20  C   UNL     1       0.946   1.295   2.242  0.00  0.00    +0.022 C 
ATOM     21  C   UNL     1       0.822  -0.044   1.511  0.00  0.00    +0.106 C 
ENDBRANCH  19  21
BRANCH  19  22
ATOM     22  C   UNL     1      -0.081   0.572  -0.779  0.00  0.00    +0.106 C 
ATOM     23  C   UNL     1       0.453  -0.524  -1.704  0.00  0.00    +0.022 C 
ENDBRANCH  19  22
ENDBRANCH  16  19
ENDBRANCH  10  16
ENDBRANCH   1  13
BRANCH   3  24
ATOM     24  N   UNL     1      -6.010   6.377   4.297  0.00  0.00    -0.353 N 
ATOM     25  H   UNL     1      -5.085   6.229   4.549  0.00  0.00    +0.143 HD
ATOM     26  H   UNL     1      -6.497   7.133   4.660  0.00  0.00    +0.143 HD
ENDBRANCH   3  24
BRANCH   4  27
ATOM     27  N   UNL     1      -8.625   6.885   3.361  0.00  0.00    -0.287 N 
ATOM     28  C   UNL     1      -9.538   6.810   4.504  0.00  0.00    +0.137 C 
BRANCH  27  29
ATOM     29  C   UNL     1      -8.445   8.097   2.689  0.00  0.00    +0.035 A 
ATOM     30  C   UNL     1      -7.675   8.145   1.533  0.00  0.00    +0.023 A 
ATOM     31  C   UNL     1      -7.500   9.344   0.871  0.00  0.00    +0.002 A 
ATOM     32  C   UNL     1      -8.090  10.496   1.357  0.00  0.00    +0.000 A 
ATOM     33  C   UNL     1      -8.856  10.453   2.508  0.00  0.00    +0.002 A 
ATOM     34  C   UNL     1      -9.040   9.256   3.171  0.00  0.00    +0.023 A 
ENDBRANCH  27  29
ENDBRANCH   4  27
TORSDOF 8
