REMARK  Name = ZINC66925380
REMARK  10 active torsions:
REMARK  status: ('A' for Active; 'I' for Inactive)
REMARK    1  A    between atoms: C_1  and  C_2
REMARK    2  A    between atoms: C_5  and  C_29
REMARK    3  A    between atoms: N_8  and  C_10
REMARK    4  A    between atoms: C_10  and  C_11
REMARK    5  A    between atoms: C_10  and  C_12
REMARK    6  A    between atoms: C_10  and  C_13
REMARK    7  A    between atoms: C_13  and  N_14
REMARK    8  A    between atoms: N_17  and  N_18
REMARK    9  A    between atoms: C_19  and  C_21
REMARK   10  A    between atoms: C_21  and  C_22
REMARK                            x       y       z     vdW  Elec       q    Type
REMARK                         _______ _______ _______ _____ _____    ______ ____
ROOT
ATOM      1  N   UNL     1       3.474  -2.390   0.904  0.00  0.00    -0.300 N 
ATOM      2  C   UNL     1       4.768  -2.196   0.578  0.00  0.00    +0.316 C 
ATOM      3  O   UNL     1       5.535  -1.721   1.393  0.00  0.00    -0.251 OA
ATOM      4  N   UNL     1       5.210  -2.529  -0.651  0.00  0.00    -0.218 N 
ATOM      5  H   UNL     1       2.862  -2.769   0.254  0.00  0.00    +0.150 HD
ATOM      6  H   UNL     1       6.141  -2.389  -0.885  0.00  0.00    +0.174 HD
ENDROOT
BRANCH   4   7
ATOM      7  N   UNL     1       4.326  -3.076  -1.589  0.00  0.00    -0.233 N 
ATOM      8  C   UNL     1       4.769  -3.409  -2.818  0.00  0.00    +0.234 C 
ATOM      9  O   UNL     1       5.933  -3.234  -3.111  0.00  0.00    -0.274 OA
ATOM     10  H   UNL     1       3.395  -3.216  -1.355  0.00  0.00    +0.173 HD
BRANCH   8  11
ATOM     11  C   UNL     1       3.818  -3.998  -3.828  0.00  0.00    +0.135 C 
BRANCH  11  12
ATOM     12  C   UNL     1       4.557  -4.278  -5.111  0.00  0.00    -0.003 A 
ATOM     13  C   UNL     1       4.551  -3.346  -6.131  0.00  0.00    +0.007 A 
ATOM     14  C   UNL     1       5.229  -3.603  -7.307  0.00  0.00    +0.000 A 
ATOM     15  C   UNL     1       5.915  -4.793  -7.465  0.00  0.00    +0.003 A 
ATOM     16  C   UNL     1       5.923  -5.727  -6.446  0.00  0.00    +0.038 A 
ATOM     17  C   UNL     1       5.248  -5.468  -5.265  0.00  0.00    +0.127 A 
ATOM     18  F   UNL     1       5.260  -6.378  -4.267  0.00  0.00    -0.205 F 
ENDBRANCH  11  12
ENDBRANCH   8  11
ENDBRANCH   4   7
BRANCH   1  19
ATOM     19  C   UNL     1       2.993  -2.028   2.239  0.00  0.00    +0.093 C 
BRANCH  19  20
ATOM     20  C   UNL     1       1.478  -2.227   2.306  0.00  0.00    -0.055 C 
ATOM     21  C   UNL     1       0.963  -1.768   3.672  0.00  0.00    -0.008 C 
ATOM     22  C   UNL     1       1.148  -3.707   2.108  0.00  0.00    -0.008 C 
BRANCH  20  28
ATOM     23  C   UNL     1       0.932   2.275   0.461  0.00  0.00    +0.005 C 
ATOM     24  C   UNL     1       0.574   0.799   0.278  0.00  0.00    -0.031 C 
ATOM     25  C   UNL     1      -0.949   0.636   0.288  0.00  0.00    +0.003 C 
ATOM     26  C   UNL     1      -1.294  -0.852   0.182  0.00  0.00    -0.031 C 
ATOM     27  C   UNL     1      -0.623  -1.608   1.330  0.00  0.00    -0.075 C 
ATOM     28  N   UNL     1       0.833  -1.436   1.250  0.00  0.00    +0.384 N 
ATOM     29  C   UNL     1       1.177  -0.019   1.421  0.00  0.00    -0.075 C 
ATOM     30  C   UNL     1      -0.791  -1.399  -1.155  0.00  0.00    +0.005 C 
ATOM     31  H   UNL     1       1.159  -1.752   0.349  0.00  0.00    -0.081 HD
ENDBRANCH  20  28
ENDBRANCH  19  20
ENDBRANCH   1  19
TORSDOF 6
