REMARK  Name = ZINC19339005
REMARK  13 active torsions:
REMARK  status: ('A' for Active; 'I' for Inactive)
REMARK    1  A    between atoms: C_1  and  C_2
REMARK    2  A    between atoms: C_6  and  C_24
REMARK    3  A    between atoms: C_12  and  C_13
REMARK    4  A    between atoms: C_13  and  C_14
REMARK    5  A    between atoms: C_13  and  C_15
REMARK    6  A    between atoms: C_13  and  O_23
REMARK    7  A    between atoms: C_15  and  C_16
REMARK    8  A    between atoms: C_15  and  C_17
REMARK    9  A    between atoms: C_15  and  O_22
REMARK   10  A    between atoms: C_17  and  C_18
REMARK   11  A    between atoms: C_17  and  C_19
REMARK   12  A    between atoms: C_17  and  O_21
REMARK   13  A    between atoms: C_19  and  O_20
REMARK                            x       y       z     vdW  Elec       q    Type
REMARK                         _______ _______ _______ _____ _____    ______ ____
ROOT
ATOM      1  C   UNL     1       2.177   6.122   5.906  0.00  0.00    +0.018 C 
ATOM      2  C   UNL     1       2.189   5.478   4.518  0.00  0.00    +0.025 C 
ATOM      3  C   UNL     1       1.991   3.955   4.598  0.00  0.00    -0.061 C 
ATOM      4  N   UNL     1       2.023   3.389   3.243  0.00  0.00    +0.393 N 
ATOM      5  C   UNL     1       3.327   3.579   2.594  0.00  0.00    -0.056 C 
ATOM      6  C   UNL     1       3.591   5.084   2.415  0.00  0.00    +0.052 C 
ATOM      7  C   UNL     1       3.518   5.703   3.806  0.00  0.00    +0.148 C 
ATOM      8  O   UNL     1       4.433   6.317   4.301  0.00  0.00    -0.296 OA
ATOM      9  C   UNL     1       2.431   5.681   1.603  0.00  0.00    +0.100 C 
ATOM     10  N   UNL     1       1.163   5.405   2.291  0.00  0.00    -0.311 NA
ATOM     11  C   UNL     1       1.095   6.056   3.606  0.00  0.00    +0.095 C 
ATOM     12  C   UNL     1       0.945   3.956   2.418  0.00  0.00    +0.037 C 
ATOM     13  H   UNL     1       1.865   2.305   3.341  0.00  0.00    -0.079 HD
ENDROOT
BRANCH   6  14
ATOM     14  C   UNL     1       4.920   5.338   1.752  0.00  0.00    -0.035 A 
ATOM     15  C   UNL     1       4.974   6.030   0.556  0.00  0.00    +0.004 A 
ATOM     16  C   UNL     1       6.194   6.268  -0.050  0.00  0.00    +0.000 A 
ATOM     17  C   UNL     1       7.358   5.805   0.534  0.00  0.00    +0.000 A 
ATOM     18  C   UNL     1       7.303   5.108   1.727  0.00  0.00    +0.000 A 
ATOM     19  C   UNL     1       6.084   4.875   2.336  0.00  0.00    +0.004 A 
ENDBRANCH   6  14
BRANCH  12  20
ATOM     20  C   UNL     1      -0.405   3.696   3.089  0.00  0.00    +0.095 C 
ATOM     21  C   UNL     1      -1.532   3.999   2.100  0.00  0.00    +0.044 C 
BRANCH  20  22
ATOM     22  C   UNL     1      -0.487   2.230   3.520  0.00  0.00    +0.121 C 
ATOM     23  C   UNL     1       0.482   1.985   4.679  0.00  0.00    +0.047 C 
BRANCH  22  24
ATOM     24  C   UNL     1      -0.110   1.330   2.342  0.00  0.00    +0.117 C 
ATOM     25  C   UNL     1       1.387   1.463   2.056  0.00  0.00    +0.047 C 
BRANCH  24  26
ATOM     26  O   UNL     1      -0.852   1.723   1.186  0.00  0.00    -0.384 OA
ATOM     27  H   UNL     1      -0.714   1.187   0.235  0.00  0.00    +0.210 HD
ENDBRANCH  24  26
BRANCH  24  28
ATOM     28  C   UNL     1      -0.436  -0.125   2.687  0.00  0.00    +0.193 C 
BRANCH  28  29
ATOM     29  O   UNL     1       0.022  -0.978   1.636  0.00  0.00    -0.392 OA
ATOM     30  H   UNL     1      -0.125  -2.066   1.707  0.00  0.00    +0.210 HD
ENDBRANCH  28  29
ENDBRANCH  24  28
ENDBRANCH  22  24
BRANCH  22  31
ATOM     31  O   UNL     1      -1.819   1.931   3.942  0.00  0.00    -0.383 OA
ATOM     32  H   UNL     1      -2.071   0.918   4.290  0.00  0.00    +0.210 HD
ENDBRANCH  22  31
ENDBRANCH  20  22
BRANCH  20  33
ATOM     33  O   UNL     1      -0.537   4.538   4.236  0.00  0.00    -0.386 OA
ATOM     34  H   UNL     1      -1.449   4.492   4.849  0.00  0.00    +0.210 HD
ENDBRANCH  20  33
ENDBRANCH  12  20
TORSDOF 9
