REMARK  Name = ZINC66864234
REMARK  8 active torsions:
REMARK  status: ('A' for Active; 'I' for Inactive)
REMARK    1  A    between atoms: C_1  and  C_2
REMARK    2  A    between atoms: C_2  and  C_3
REMARK    3  A    between atoms: C_3  and  C_4
REMARK    4  A    between atoms: C_4  and  N_5
REMARK    5  A    between atoms: N_14  and  C_27
REMARK    6  A    between atoms: C_15  and  C_17
REMARK    7  A    between atoms: C_17  and  N_18
REMARK    8  A    between atoms: C_22  and  C_24
REMARK                            x       y       z     vdW  Elec       q    Type
REMARK                         _______ _______ _______ _____ _____    ______ ____
ROOT
ATOM      1  N   UNL     1      -3.481  -2.864  -0.122  0.00  0.00    -0.277 N 
ATOM      2  C   UNL     1      -3.960  -3.024   1.168  0.00  0.00    +0.168 A 
ATOM      3  C   UNL     1      -5.267  -3.459   1.349  0.00  0.00    +0.151 A 
ATOM      4  C   UNL     1      -6.066  -3.725   0.216  0.00  0.00    +0.280 A 
ATOM      5  O   UNL     1      -7.214  -4.108   0.348  0.00  0.00    -0.265 OA
ATOM      6  N   UNL     1      -5.542  -3.551  -1.015  0.00  0.00    -0.273 N 
ATOM      7  H   UNL     1      -6.087  -3.732  -1.797  0.00  0.00    +0.173 HD
ATOM      8  C   UNL     1      -4.277  -3.123  -1.175  0.00  0.00    +0.331 A 
ATOM      9  O   UNL     1      -3.841  -2.972  -2.300  0.00  0.00    -0.246 OA
ATOM     10  N   UNL     1      -5.467  -3.526   2.713  0.00  0.00    -0.327 N 
ATOM     11  C   UNL     1      -4.316  -3.143   3.299  0.00  0.00    +0.096 A 
ATOM     12  N   UNL     1      -3.430  -2.848   2.382  0.00  0.00    -0.216 NA
ATOM     13  C   UNL     1      -6.697  -3.936   3.394  0.00  0.00    +0.151 C 
ENDROOT
BRANCH   1  14
ATOM     14  C   UNL     1      -2.106  -2.406  -0.340  0.00  0.00    +0.128 C 
BRANCH  14  15
ATOM     15  C   UNL     1      -2.083  -0.877  -0.408  0.00  0.00    +0.021 C 
BRANCH  15  17
ATOM     16  C   UNL     1      -0.624   1.129  -0.705  0.00  0.00    +0.004 C 
ATOM     17  C   UNL     1      -0.647  -0.399  -0.636  0.00  0.00    -0.002 C 
ENDBRANCH  15  17
ENDBRANCH  14  15
ENDBRANCH   1  14
BRANCH  11  18
ATOM     18  C   UNL     1      -4.083  -3.065   4.786  0.00  0.00    -0.002 C 
BRANCH  18  19
ATOM     19  N   UNL     1      -3.570  -4.354   5.269  0.00  0.00    +0.392 N 
ATOM     20  C   UNL     1      -2.209  -4.579   4.737  0.00  0.00    -0.077 C 
ATOM     21  C   UNL     1      -1.451  -5.299   5.880  0.00  0.00    -0.020 C 
ATOM     22  C   UNL     1      -2.031  -4.592   7.134  0.00  0.00    -0.008 C 
ATOM     23  C   UNL     1      -3.502  -4.340   6.742  0.00  0.00    +0.019 C 
ATOM     24  H   UNL     1      -4.179  -5.098   4.965  0.00  0.00    -0.080 HD
BRANCH  23  25
ATOM     25  C   UNL     1      -3.948  -2.998   7.263  0.00  0.00    +0.197 C 
ATOM     26  O   UNL     1      -3.392  -1.987   6.889  0.00  0.00    -0.278 OA
ATOM     27  N   UNL     1      -4.965  -2.921   8.145  0.00  0.00    -0.331 N 
ATOM     28  H   UNL     1      -5.409  -3.730   8.444  0.00  0.00    +0.145 HD
ATOM     29  H   UNL     1      -5.252  -2.058   8.480  0.00  0.00    +0.145 HD
ENDBRANCH  23  25
ENDBRANCH  18  19
ENDBRANCH  11  18
TORSDOF 6
