REMARK  Name = ZINC50119488
REMARK  10 active torsions:
REMARK  status: ('A' for Active; 'I' for Inactive)
REMARK    1  A    between atoms: C_1  and  N_2
REMARK    2  A    between atoms: N_2  and  C_3
REMARK    3  A    between atoms: N_2  and  C_10
REMARK    4  A    between atoms: C_3  and  C_4
REMARK    5  A    between atoms: C_4  and  C_6
REMARK    6  A    between atoms: C_4  and  O_9
REMARK    7  A    between atoms: C_6  and  O_7
REMARK    8  A    between atoms: O_7  and  C_8
REMARK    9  A    between atoms: C_10  and  C_11
REMARK   10  A    between atoms: N_13  and  C_14
REMARK                            x       y       z     vdW  Elec       q    Type
REMARK                         _______ _______ _______ _____ _____    ______ ____
ROOT
ATOM      1  C   UNL     1       0.482   0.334  -2.747  0.00  0.00    +0.201 C 
ATOM      2  O   UNL     1      -0.271   1.283  -2.807  0.00  0.00    -0.278 OA
ATOM      3  N   UNL     1       0.599  -0.500  -3.799  0.00  0.00    -0.285 N 
ATOM      4  H   UNL     1       1.238  -1.229  -3.771  0.00  0.00    +0.155 HD
ENDROOT
BRANCH   3   5
ATOM      5  C   UNL     1      -0.202  -0.314  -4.933  0.00  0.00    +0.062 A 
ATOM      6  C   UNL     1       0.359  -0.395  -6.202  0.00  0.00    +0.041 A 
ATOM      7  C   UNL     1      -0.434  -0.211  -7.319  0.00  0.00    +0.032 A 
ATOM      8  C   UNL     1      -1.784   0.054  -7.175  0.00  0.00    +0.020 A 
ATOM      9  C   UNL     1      -2.345   0.136  -5.912  0.00  0.00    +0.032 A 
ATOM     10  C   UNL     1      -1.559  -0.053  -4.792  0.00  0.00    +0.041 A 
ATOM     11 BR   UNL     1      -2.328   0.051  -3.067  0.00  0.00    -0.048 Br
ATOM     12 BR   UNL     1      -2.865   0.306  -8.706  0.00  0.00    -0.050 Br
ATOM     13 BR   UNL     1       2.204  -0.756  -6.400  0.00  0.00    -0.048 Br
ENDBRANCH   3   5
BRANCH   1  14
ATOM     14  C   UNL     1       1.286   0.087  -1.497  0.00  0.00    +0.019 C 
BRANCH  14  16
ATOM     15  C   UNL     1       1.435   2.431  -1.008  0.00  0.00    -0.095 C 
ATOM     16  N   UNL     1       0.981   1.128  -0.505  0.00  0.00    +0.385 N 
ATOM     17  H   UNL     1      -0.015   1.157  -0.344  0.00  0.00    -0.081 HD
BRANCH  16  18
ATOM     18  C   UNL     1       1.672   0.821   0.754  0.00  0.00    -0.045 C 
BRANCH  18  19
ATOM     19  C   UNL     1       1.097  -0.464   1.352  0.00  0.00    +0.124 C 
BRANCH  19  20
ATOM     20  O   UNL     1      -0.299  -0.290   1.602  0.00  0.00    -0.391 OA
ATOM     21  H   UNL     1      -0.502   0.427   2.218  0.00  0.00    +0.210 HD
ENDBRANCH  19  20
BRANCH  19  22
ATOM     22  C   UNL     1       1.815  -0.781   2.666  0.00  0.00    +0.188 C 
BRANCH  22  23
ATOM     23  O   UNL     1       1.360  -2.041   3.165  0.00  0.00    -0.381 OA
ATOM     24  C   UNL     1       1.971  -2.433   4.395  0.00  0.00    +0.194 C 
ENDBRANCH  22  23
ENDBRANCH  19  22
ENDBRANCH  18  19
ENDBRANCH  16  18
ENDBRANCH  14  16
ENDBRANCH   1  14
TORSDOF 8
