REMARK  Name = ZINC58193181
REMARK  7 active torsions:
REMARK  status: ('A' for Active; 'I' for Inactive)
REMARK    1  A    between atoms: C_1  and  C_2
REMARK    2  A    between atoms: C_4  and  C_7
REMARK    3  A    between atoms: C_7  and  N_13
REMARK    4  A    between atoms: N_13  and  C_14
REMARK    5  A    between atoms: C_14  and  C_15
REMARK    6  A    between atoms: N_20  and  C_21
REMARK    7  A    between atoms: C_21  and  C_22
REMARK                            x       y       z     vdW  Elec       q    Type
REMARK                         _______ _______ _______ _____ _____    ______ ____
ROOT
ATOM      1  N   UNL     1      -2.441  -3.209  -1.203  0.00  0.00    +0.393 N 
ATOM      2  H   UNL     1      -1.863  -3.232  -2.030  0.00  0.00    -0.084 HD
ATOM      3  H   UNL     1      -3.060  -4.006  -1.204  0.00  0.00    -0.084 HD
ENDROOT
BRANCH   1   4
ATOM      4  C   UNL     1      -1.588  -3.254  -0.008  0.00  0.00    -0.003 C 
ATOM      5  C   UNL     1      -2.464  -3.221   1.246  0.00  0.00    -0.005 C 
ATOM      6  C   UNL     1      -3.403  -4.428   1.244  0.00  0.00    -0.001 C 
ATOM      7  C   UNL     1      -2.578  -5.717   1.233  0.00  0.00    -0.000 C 
ATOM      8  C   UNL     1      -1.702  -5.750  -0.021  0.00  0.00    -0.001 C 
ATOM      9  C   UNL     1      -0.762  -4.542  -0.019  0.00  0.00    -0.005 C 
BRANCH   4  13
ATOM     10  C   UNL     1      -0.018   1.503   0.010  0.00  0.00    +0.112 C 
ATOM     11  C   UNL     1       0.002  -0.004   0.002  0.00  0.00    +0.224 A 
ATOM     12  N   UNL     1      -1.044  -0.783   0.003  0.00  0.00    -0.198 NA
ATOM     13  C   UNL     1      -0.663  -2.065  -0.006  0.00  0.00    +0.161 A 
ATOM     14  N   UNL     1       0.638  -2.118  -0.012  0.00  0.00    -0.063 NA
ATOM     15  O   UNL     1       1.097  -0.774  -0.013  0.00  0.00    -0.338 OA
ENDBRANCH   4  13
ENDBRANCH   1   4
BRANCH   1  16
ATOM     16  C   UNL     1      -3.233  -1.973  -1.192  0.00  0.00    +0.017 C 
BRANCH  16  17
ATOM     17  C   UNL     1      -4.109  -1.926  -2.418  0.00  0.00    +0.203 C 
ATOM     18  O   UNL     1      -4.076  -2.834  -3.221  0.00  0.00    -0.277 OA
ATOM     19  N   UNL     1      -4.928  -0.876  -2.622  0.00  0.00    -0.242 N 
ATOM     20  C   UNL     1      -5.711  -0.835  -3.718  0.00  0.00    +0.306 C 
ATOM     21  O   UNL     1      -5.678  -1.745  -4.523  0.00  0.00    -0.252 OA
ATOM     22  N   UNL     1      -6.531   0.215  -3.922  0.00  0.00    -0.291 N 
ATOM     23  H   UNL     1      -4.955  -0.150  -1.979  0.00  0.00    +0.159 HD
ATOM     24  H   UNL     1      -6.558   0.942  -3.279  0.00  0.00    +0.151 HD
BRANCH  22  25
ATOM     25  C   UNL     1      -7.382   0.260  -5.114  0.00  0.00    +0.219 C 
BRANCH  25  26
ATOM     26  C   UNL     1      -8.207   1.548  -5.103  0.00  0.00    +0.405 C 
ATOM     27  F   UNL     1      -7.348   2.653  -5.101  0.00  0.00    -0.169 F 
ATOM     28  F   UNL     1      -9.020   1.591  -6.241  0.00  0.00    -0.169 F 
ATOM     29  F   UNL     1      -9.009   1.579  -3.956  0.00  0.00    -0.169 F 
ENDBRANCH  25  26
ENDBRANCH  22  25
ENDBRANCH  16  17
ENDBRANCH   1  16
TORSDOF 6
