REMARK  Name = ZINC09968572
REMARK  10 active torsions:
REMARK  status: ('A' for Active; 'I' for Inactive)
REMARK    1  A    between atoms: C_1  and  C_2
REMARK    2  A    between atoms: C_7  and  N_8
REMARK    3  A    between atoms: C_9  and  C_11
REMARK    4  A    between atoms: C_12  and  C_36
REMARK    5  A    between atoms: C_14  and  S_25
REMARK    6  A    between atoms: C_15  and  C_23
REMARK    7  A    between atoms: C_16  and  C_18
REMARK    8  A    between atoms: S_25  and  C_26
REMARK    9  A    between atoms: C_26  and  C_27
REMARK   10  A    between atoms: N_29  and  C_30
REMARK                            x       y       z     vdW  Elec       q    Type
REMARK                         _______ _______ _______ _____ _____    ______ ____
ROOT
ATOM      1  C   UNL     1       0.379  -0.280  -2.178  0.00  0.00    +0.047 C 
ATOM      2  C   UNL     1       1.623  -0.776  -2.255  0.00  0.00    +0.015 C 
ATOM      3  N   UNL     1       2.410  -0.881  -1.140  0.00  0.00    -0.312 N 
ATOM      4  C   UNL     1       1.844  -0.828   0.114  0.00  0.00    +0.080 C 
ATOM      5  C   UNL     1       0.592  -0.326   0.285  0.00  0.00    +0.072 C 
ATOM      6  C   UNL     1      -0.207   0.191  -0.877  0.00  0.00    +0.134 C 
ATOM      7  C   UNL     1       2.161  -1.226  -3.588  0.00  0.00    +0.061 C 
ATOM      8  H   UNL     1       3.498  -1.007  -1.245  0.00  0.00    +0.152 HD
ENDROOT
BRANCH   6   9
ATOM      9  C   UNL     1      -0.204   1.698  -0.850  0.00  0.00    +0.118 A 
ATOM     10  C   UNL     1      -1.291   2.484  -0.747  0.00  0.00    +0.045 A 
ATOM     11  C   UNL     1      -0.831   3.821  -0.757  0.00  0.00    +0.041 A 
ATOM     12  C   UNL     1       0.508   3.772  -0.874  0.00  0.00    +0.195 A 
ATOM     13  O   UNL     1       0.882   2.483  -0.930  0.00  0.00    -0.467 OA
ENDBRANCH   6   9
BRANCH   1  15
ATOM     14  N   UNL     1      -1.656   0.296  -3.300  0.00  0.00    -0.281 N 
ATOM     15  C   UNL     1      -0.404  -0.199  -3.355  0.00  0.00    +0.247 C 
ATOM     16  O   UNL     1       0.055  -0.577  -4.418  0.00  0.00    -0.270 OA
ATOM     17  H   UNL     1      -2.044   0.706  -2.355  0.00  0.00    +0.155 HD
BRANCH  14  24
ATOM     18  C   UNL     1      -4.449  -0.137  -2.970  0.00  0.00    +0.045 C 
ATOM     19  C   UNL     1      -3.830   0.081  -4.327  0.00  0.00    -0.029 A 
ATOM     20  C   UNL     1      -4.625   0.080  -5.457  0.00  0.00    +0.005 A 
ATOM     21  C   UNL     1      -4.057   0.273  -6.703  0.00  0.00    +0.000 A 
ATOM     22  C   UNL     1      -2.694   0.475  -6.822  0.00  0.00    +0.002 A 
ATOM     23  C   UNL     1      -1.895   0.482  -5.695  0.00  0.00    +0.023 A 
ATOM     24  C   UNL     1      -2.462   0.288  -4.442  0.00  0.00    +0.037 A 
ENDBRANCH  14  24
ENDBRANCH   1  15
BRANCH   5  25
ATOM     25  C   UNL     1       0.023  -0.290   1.599  0.00  0.00    +0.098 C 
ATOM     26  N   UNL     1      -0.428  -0.262   2.641  0.00  0.00    -0.191 NA
ENDBRANCH   5  25
BRANCH   4  27
ATOM     27  S   UNL     1       2.749  -1.415   1.507  0.00  0.00    -0.100 S 
BRANCH  27  28
ATOM     28  C   UNL     1       4.278  -1.937   0.691  0.00  0.00    +0.171 C 
BRANCH  28  29
ATOM     29  C   UNL     1       5.232  -2.490   1.718  0.00  0.00    +0.227 C 
ATOM     30  O   UNL     1       4.910  -2.528   2.887  0.00  0.00    -0.275 OA
ATOM     31  N   UNL     1       6.443  -2.944   1.338  0.00  0.00    -0.285 N 
ATOM     32  H   UNL     1       6.707  -2.980   0.271  0.00  0.00    +0.155 HD
BRANCH  31  33
ATOM     33  C   UNL     1       7.365  -3.368   2.301  0.00  0.00    +0.033 A 
ATOM     34  C   UNL     1       8.723  -3.152   2.107  0.00  0.00    +0.023 A 
ATOM     35  C   UNL     1       9.630  -3.568   3.062  0.00  0.00    +0.002 A 
ATOM     36  C   UNL     1       9.188  -4.208   4.205  0.00  0.00    +0.000 A 
ATOM     37  C   UNL     1       7.837  -4.430   4.399  0.00  0.00    +0.002 A 
ATOM     38  C   UNL     1       6.925  -4.012   3.450  0.00  0.00    +0.023 A 
ENDBRANCH  31  33
ENDBRANCH  28  29
ENDBRANCH  27  28
ENDBRANCH   4  27
TORSDOF 8
