REMARK  Name = ZINC66246456
REMARK  7 active torsions:
REMARK  status: ('A' for Active; 'I' for Inactive)
REMARK    1  A    between atoms: C_1  and  O_2
REMARK    2  A    between atoms: O_2  and  C_3
REMARK    3  A    between atoms: C_6  and  C_13
REMARK    4  A    between atoms: C_7  and  C_9
REMARK    5  A    between atoms: C_13  and  N_14
REMARK    6  A    between atoms: N_16  and  C_17
REMARK    7  A    between atoms: C_17  and  C_18
REMARK                            x       y       z     vdW  Elec       q    Type
REMARK                         _______ _______ _______ _____ _____    ______ ____
ROOT
ATOM      1  N   UNL     1       1.488  -2.942  -5.340  0.00  0.00    -0.354 N 
ATOM      2  C   UNL     1       1.865  -3.582  -6.497  0.00  0.00    +0.169 C 
ATOM      3  N   UNL     1       0.959  -3.972  -7.350  0.00  0.00    -0.355 N 
ATOM      4  N   UNL     1       3.196  -3.811  -6.754  0.00  0.00    -0.371 N 
ATOM      5  H   UNL     1       0.549  -2.781  -5.158  0.00  0.00    +0.163 HD
ATOM      6  H   UNL     1       3.869  -3.520  -6.119  0.00  0.00    +0.159 HD
ATOM      7  H   UNL     1       3.461  -4.262  -7.570  0.00  0.00    +0.159 HD
ATOM      8  H   UNL     1       0.020  -3.811  -7.168  0.00  0.00    +0.162 HD
ENDROOT
BRANCH   1   9
ATOM      9  C   UNL     1       2.506  -2.503  -4.381  0.00  0.00    +0.151 C 
BRANCH   9  13
ATOM     10  C   UNL     1       0.606  -0.607  -1.056  0.00  0.00    +0.121 A 
ATOM     11  C   UNL     1       1.173   0.161  -2.063  0.00  0.00    +0.046 A 
ATOM     12  C   UNL     1       1.786  -0.455  -3.136  0.00  0.00    +0.009 A 
ATOM     13  C   UNL     1       1.836  -1.835  -3.208  0.00  0.00    -0.016 A 
ATOM     14  C   UNL     1       1.271  -2.602  -2.207  0.00  0.00    +0.063 A 
ATOM     15  C   UNL     1       0.661  -1.991  -1.128  0.00  0.00    +0.058 A 
BRANCH  14  16
ATOM     16  C   UNL     1       1.325  -4.106  -2.289  0.00  0.00    +0.418 C 
ATOM     17  F   UNL     1       0.693  -4.657  -1.169  0.00  0.00    -0.166 F 
ATOM     18  F   UNL     1       0.674  -4.534  -3.451  0.00  0.00    -0.166 F 
ATOM     19  F   UNL     1       2.660  -4.523  -2.322  0.00  0.00    -0.166 F 
ENDBRANCH  14  16
BRANCH  10  21
ATOM     20  C   UNL     1      -0.017   1.425   0.010  0.00  0.00    +0.277 C 
ATOM     21  O   UNL     1       0.002  -0.004   0.002  0.00  0.00    -0.495 OA
ENDBRANCH  10  21
ENDBRANCH   9  13
ENDBRANCH   1   9
BRANCH   3  22
ATOM     22  C   UNL     1       1.361  -4.654  -8.582  0.00  0.00    +0.147 C 
BRANCH  22  23
ATOM     23  C   UNL     1       0.116  -5.003  -9.401  0.00  0.00    +0.137 C 
ATOM     24  C   UNL     1       0.518  -5.828 -10.642  0.00  0.00    +0.035 C 
ATOM     25  C   UNL     1      -0.420  -5.254 -11.738  0.00  0.00    +0.031 C 
ATOM     26  C   UNL     1      -0.510  -3.770 -11.300  0.00  0.00    +0.160 C 
ATOM     27  O   UNL     1      -0.514  -3.802  -9.863  0.00  0.00    -0.375 OA
ENDBRANCH  22  23
ENDBRANCH   3  22
TORSDOF 6
