REMARK  Name = ZINC04221993
REMARK  14 active torsions:
REMARK  status: ('A' for Active; 'I' for Inactive)
REMARK    1  A    between atoms: C_1  and  C_2
REMARK    2  A    between atoms: C_10  and  C_12
REMARK    3  A    between atoms: C_12  and  C_13
REMARK    4  A    between atoms: C_13  and  C_14
REMARK    5  A    between atoms: C_13  and  C_15
REMARK    6  A    between atoms: C_13  and  C_16
REMARK    7  A    between atoms: C_18  and  C_41
REMARK    8  A    between atoms: C_21  and  O_40
REMARK    9  A    between atoms: C_23  and  C_27
REMARK   10  A    between atoms: C_27  and  C_29
REMARK   11  A    between atoms: C_27  and  C_30
REMARK   12  A    between atoms: N_32  and  C_33
REMARK   13  A    between atoms: C_33  and  C_34
REMARK   14  A    between atoms: C_34  and  N_83
REMARK                            x       y       z     vdW  Elec       q    Type
REMARK                         _______ _______ _______ _____ _____    ______ ____
ROOT
ATOM      1  C   UNL     1      -1.449   3.105   0.396  0.00  0.00    +0.014 C 
ATOM      2  C   UNL     1      -0.098   3.647   0.869  0.00  0.00    +0.042 C 
ATOM      3  C   UNL     1      -0.218   5.139   1.141  0.00  0.00    +0.057 A 
ATOM      4  C   UNL     1       0.776   5.982   0.762  0.00  0.00    +0.015 A 
ATOM      5  S   UNL     1       0.171   7.561   1.294  0.00  0.00    -0.057 S 
ATOM      6  C   UNL     1      -1.329   6.998   1.967  0.00  0.00    +0.165 A 
ATOM      7  N   UNL     1      -1.261   5.701   1.746  0.00  0.00    -0.229 NA
ATOM      8  N   UNL     1      -2.340   7.728   2.581  0.00  0.00    -0.265 N 
ATOM      9  C   UNL     1      -2.222   9.063   2.714  0.00  0.00    +0.219 C 
ATOM     10  O   UNL     1      -1.232   9.629   2.299  0.00  0.00    -0.275 OA
ATOM     11  C   UNL     1       2.048   5.637   0.070  0.00  0.00    +0.051 C 
ATOM     12  C   UNL     1       2.264   4.113   0.148  0.00  0.00    -0.022 C 
ATOM     13  C   UNL     1       0.957   3.406  -0.219  0.00  0.00    +0.033 C 
ATOM     14  C   UNL     1       1.185   1.894  -0.311  0.00  0.00    +0.123 C 
ATOM     15  C   UNL     1       2.263   1.584  -1.347  0.00  0.00    +0.029 C 
ATOM     16  C   UNL     1       3.572   2.248  -0.909  0.00  0.00    +0.007 C 
ATOM     17  C   UNL     1       3.359   3.760  -0.864  0.00  0.00    +0.008 C 
ATOM     18  C   UNL     1       2.693   3.718   1.562  0.00  0.00    +0.012 C 
ATOM     19  H   UNL     1      -3.132   7.275   2.914  0.00  0.00    +0.157 HD
ENDROOT
BRANCH  15  20
ATOM     20  C   UNL     1       2.466   0.070  -1.439  0.00  0.00    +0.077 C 
ATOM     21  C   UNL     1       3.034  -0.450  -0.117  0.00  0.00    +0.017 C 
BRANCH  20  22
ATOM     22  C   UNL     1       3.429  -0.240  -2.556  0.00  0.00    +0.216 C 
ATOM     23  O   UNL     1       3.832   0.650  -3.275  0.00  0.00    -0.276 OA
ATOM     24  N   UNL     1       3.843  -1.507  -2.756  0.00  0.00    -0.317 N 
ATOM     25  H   UNL     1       3.522  -2.219  -2.181  0.00  0.00    +0.149 HD
BRANCH  24  26
ATOM     26  C   UNL     1       4.780  -1.809  -3.842  0.00  0.00    +0.085 C 
BRANCH  26  27
ATOM     27  C   UNL     1       5.085  -3.308  -3.849  0.00  0.00    -0.060 C 
BRANCH  27  33
ATOM     28  C   UNL     1       5.402  -3.381  -6.250  0.00  0.00    -0.050 C 
ATOM     29  C   UNL     1       6.430  -3.650  -7.351  0.00  0.00    +0.141 C 
ATOM     30  O   UNL     1       6.929  -4.983  -7.215  0.00  0.00    -0.383 OA
ATOM     31  C   UNL     1       7.543  -5.242  -5.949  0.00  0.00    +0.141 C 
ATOM     32  C   UNL     1       6.525  -4.989  -4.834  0.00  0.00    -0.050 C 
ATOM     33  N   UNL     1       6.046  -3.595  -4.937  0.00  0.00    +0.384 N 
ATOM     34  H   UNL     1       6.848  -2.959  -4.850  0.00  0.00    -0.082 HD
ENDBRANCH  27  33
ENDBRANCH  26  27
ENDBRANCH  24  26
ENDBRANCH  20  22
ENDBRANCH  15  20
BRANCH  14  35
ATOM     35  O   UNL     1      -0.035   1.255  -0.694  0.00  0.00    -0.391 OA
ATOM     36  H   UNL     1       0.044   0.300  -0.820  0.00  0.00    +0.210 HD
ENDBRANCH  14  35
BRANCH   9  37
ATOM     37  C   UNL     1      -3.318   9.855   3.380  0.00  0.00    +0.102 C 
BRANCH  37  38
ATOM     38  C   UNL     1      -2.936  11.336   3.402  0.00  0.00    -0.029 C 
ATOM     39  C   UNL     1      -2.746  11.835   1.968  0.00  0.00    +0.011 C 
ATOM     40  C   UNL     1      -4.050  12.140   4.077  0.00  0.00    +0.011 C 
ATOM     41  C   UNL     1      -1.633  11.515   4.182  0.00  0.00    +0.011 C 
ENDBRANCH  37  38
ENDBRANCH   9  37
TORSDOF 8
