REMARK  Name = ZINC47607587
REMARK  8 active torsions:
REMARK  status: ('A' for Active; 'I' for Inactive)
REMARK    1  A    between atoms: C_1  and  N_2
REMARK    2  A    between atoms: C_4  and  S_10
REMARK    3  A    between atoms: C_6  and  C_7
REMARK    4  A    between atoms: S_10  and  N_13
REMARK    5  A    between atoms: N_13  and  C_14
REMARK    6  A    between atoms: C_14  and  C_15
REMARK    7  A    between atoms: N_21  and  C_22
REMARK    8  A    between atoms: N_21  and  C_23
REMARK                            x       y       z     vdW  Elec       q    Type
REMARK                         _______ _______ _______ _____ _____    ______ ____
ROOT
ATOM      1  S   UNL     1      -0.116  -3.489  -1.782  0.00  0.00    +0.060 S 
ATOM      2  O   UNL     1      -0.581  -4.574  -0.993  0.00  0.00    -0.153 OA
ATOM      3  O   UNL     1      -0.784  -3.063  -2.962  0.00  0.00    -0.153 OA
ENDROOT
BRANCH   1   7
ATOM      4  C   UNL     1      -0.018   1.461   0.010  0.00  0.00    +0.149 C 
ATOM      5  N   UNL     1       0.001  -0.004   0.002  0.00  0.00    -0.344 N 
ATOM      6  C   UNL     1      -0.090  -0.790  -1.098  0.00  0.00    +0.114 A 
ATOM      7  C   UNL     1      -0.037  -2.088  -0.716  0.00  0.00    +0.123 A 
ATOM      8  C   UNL     1       0.092  -2.120   0.676  0.00  0.00    +0.061 A 
ATOM      9  C   UNL     1       0.120  -0.812   1.111  0.00  0.00    +0.106 A 
BRANCH   9  10
ATOM     10  C   UNL     1       0.249  -0.362   2.501  0.00  0.00    +0.258 C 
ATOM     11  O   UNL     1       0.170   0.823   2.767  0.00  0.00    -0.269 OA
ATOM     12  N   UNL     1       0.456  -1.261   3.483  0.00  0.00    -0.324 N 
ATOM     13  H   UNL     1       0.592  -2.196   3.264  0.00  0.00    +0.145 HD
ATOM     14  H   UNL     1       0.468  -0.973   4.410  0.00  0.00    +0.145 HD
ENDBRANCH   9  10
ENDBRANCH   1   7
BRANCH   1  15
ATOM     15  N   UNL     1       1.437  -3.856  -2.224  0.00  0.00    -0.186 NA
ATOM     16  H   UNL     1       1.710  -3.772  -3.151  0.00  0.00    +0.148 HD
BRANCH  15  17
ATOM     17  C   UNL     1       2.399  -4.307  -1.215  0.00  0.00    +0.141 C 
BRANCH  17  18
ATOM     18  C   UNL     1       3.595  -4.918  -1.898  0.00  0.00    -0.027 A 
ATOM     19  C   UNL     1       3.625  -6.274  -2.198  0.00  0.00    +0.022 A 
ATOM     20  C   UNL     1       4.736  -6.803  -2.825  0.00  0.00    +0.084 A 
ATOM     21  N   UNL     1       5.763  -6.037  -3.141  0.00  0.00    -0.350 N 
ATOM     22  C   UNL     1       5.772  -4.741  -2.872  0.00  0.00    +0.098 A 
ATOM     23  C   UNL     1       4.684  -4.140  -2.246  0.00  0.00    +0.046 A 
ATOM     24  N   UNL     1       6.876  -3.972  -3.222  0.00  0.00    -0.323 N 
ATOM     25  C   UNL     1       8.023  -4.597  -3.886  0.00  0.00    +0.130 C 
ATOM     26  C   UNL     1       6.893  -2.537  -2.927  0.00  0.00    +0.130 C 
ATOM     27  H   UNL     1       6.531  -6.434  -3.581  0.00  0.00    +0.166 HD
ENDBRANCH  17  18
ENDBRANCH  15  17
ENDBRANCH   1  15
TORSDOF 5
