REMARK  Name = ZINC34760592
REMARK  10 active torsions:
REMARK  status: ('A' for Active; 'I' for Inactive)
REMARK    1  A    between atoms: C_1  and  C_2
REMARK    2  A    between atoms: C_2  and  C_3
REMARK    3  A    between atoms: C_2  and  N_4
REMARK    4  A    between atoms: N_4  and  C_5
REMARK    5  A    between atoms: C_5  and  C_6
REMARK    6  A    between atoms: N_9  and  C_20
REMARK    7  A    between atoms: C_11  and  C_13
REMARK    8  A    between atoms: C_20  and  C_21
REMARK    9  A    between atoms: C_26  and  O_27
REMARK   10  A    between atoms: C_28  and  C_30
REMARK                            x       y       z     vdW  Elec       q    Type
REMARK                         _______ _______ _______ _____ _____    ______ ____
ROOT
ATOM      1  C   UNL     1      -1.524  -2.220  -1.460  0.00  0.00    -0.005 C 
ATOM      2  C   UNL     1      -2.216  -3.085  -0.385  0.00  0.00    -0.073 C 
ATOM      3  N   UNL     1      -3.270  -3.828  -1.123  0.00  0.00    +0.383 N 
ATOM      4  C   UNL     1      -2.627  -4.189  -2.412  0.00  0.00    -0.070 C 
ATOM      5  C   UNL     1      -1.792  -2.945  -2.794  0.00  0.00    +0.005 C 
ATOM      6  H   UNL     1      -4.072  -3.236  -1.282  0.00  0.00    -0.081 HD
ENDROOT
BRANCH   5   7
ATOM      7  C   UNL     1      -0.492  -3.361  -3.434  0.00  0.00    -0.046 A 
ATOM      8  C   UNL     1       0.359  -4.224  -2.769  0.00  0.00    +0.006 A 
ATOM      9  C   UNL     1       1.551  -4.607  -3.355  0.00  0.00    +0.038 A 
ATOM     10  C   UNL     1       1.893  -4.125  -4.607  0.00  0.00    +0.123 A 
ATOM     11  C   UNL     1       1.039  -3.261  -5.272  0.00  0.00    +0.038 A 
ATOM     12  C   UNL     1      -0.155  -2.884  -4.687  0.00  0.00    +0.006 A 
ATOM     13  F   UNL     1       3.058  -4.498  -5.181  0.00  0.00    -0.205 F 
ENDBRANCH   5   7
BRANCH   1  14
ATOM     14  C   UNL     1      -2.134  -0.817  -1.486  0.00  0.00    +0.110 C 
BRANCH  14  15
ATOM     15  N   UNL     1      -1.748  -0.095  -0.271  0.00  0.00    -0.299 N 
ATOM     16  C   UNL     1      -2.697   0.412   0.541  0.00  0.00    +0.219 C 
ATOM     17  O   UNL     1      -2.380   1.085   1.499  0.00  0.00    -0.275 OA
BRANCH  16  18
ATOM     18  C   UNL     1      -4.153   0.143   0.259  0.00  0.00    +0.075 C 
ATOM     19  C   UNL     1      -4.621  -1.135   1.000  0.00  0.00    +0.013 C 
ATOM     20  C   UNL     1      -6.151  -0.922   1.114  0.00  0.00    +0.001 C 
ATOM     21  C   UNL     1      -6.304   0.588   1.390  0.00  0.00    +0.001 C 
ATOM     22  C   UNL     1      -5.034   1.265   0.846  0.00  0.00    +0.013 C 
ENDBRANCH  16  18
BRANCH  15  24
ATOM     23  C   UNL     1       0.015   1.567   0.061  0.00  0.00    +0.028 C 
ATOM     24  C   UNL     1      -0.332   0.077   0.062  0.00  0.00    +0.070 C 
ATOM     25  C   UNL     1      -0.059  -0.509   1.448  0.00  0.00    +0.028 C 
ENDBRANCH  15  24
ENDBRANCH  14  15
ENDBRANCH   1  14
BRANCH   3  26
ATOM     26  C   UNL     1      -3.659  -5.037  -0.386  0.00  0.00    -0.039 C 
BRANCH  26  27
ATOM     27  C   UNL     1      -4.836  -5.685  -1.069  0.00  0.00    -0.022 A 
ATOM     28  C   UNL     1      -6.113  -5.488  -0.581  0.00  0.00    +0.005 A 
ATOM     29  C   UNL     1      -7.193  -6.083  -1.207  0.00  0.00    +0.000 A 
ATOM     30  C   UNL     1      -6.998  -6.876  -2.323  0.00  0.00    +0.004 A 
ATOM     31  C   UNL     1      -5.723  -7.075  -2.815  0.00  0.00    +0.045 A 
ATOM     32  C   UNL     1      -4.638  -6.475  -2.192  0.00  0.00    +0.118 A 
BRANCH  32  33
ATOM     33  O   UNL     1      -3.383  -6.666  -2.677  0.00  0.00    -0.507 OA
ATOM     34  H   UNL     1      -2.928  -7.431  -2.301  0.00  0.00    +0.292 HD
ENDBRANCH  32  33
ENDBRANCH  26  27
ENDBRANCH   3  26
TORSDOF 8
