REMARK  Name = ZINC04692632
REMARK  0 active torsions:
REMARK  status: ('A' for Active; 'I' for Inactive)
REMARK                            x       y       z     vdW  Elec       q    Type
REMARK                         _______ _______ _______ _____ _____    ______ ____
ROOT
ATOM      1  C   UNL     1      -0.013   1.076   0.008  0.00  0.00    +0.002 A 
ATOM      2  C   UNL     1       1.189   1.780   0.000  0.00  0.00    +0.002 A 
ATOM      3  C   UNL     1       1.200   3.141   0.007  0.00  0.00    +0.031 A 
ATOM      4  C   UNL     1      -0.017   3.849   0.022  0.00  0.00    +0.112 A 
ATOM      5  C   UNL     1      -1.234   3.129   0.031  0.00  0.00    +0.112 A 
ATOM      6  C   UNL     1      -1.208   1.733   0.017  0.00  0.00    +0.031 A 
ATOM      7  N   UNL     1      -2.424   3.803   0.046  0.00  0.00    -0.128 N 
ATOM      8  C   UNL     1      -2.412   5.170   0.052  0.00  0.00    +0.112 A 
ATOM      9  C   UNL     1      -3.607   5.891   0.067  0.00  0.00    +0.032 A 
ATOM     10  C   UNL     1      -3.579   7.255   0.072  0.00  0.00    +0.017 A 
ATOM     11  C   UNL     1      -2.368   7.944   0.064  0.00  0.00    +0.020 A 
ATOM     12  C   UNL     1      -1.183   7.271   0.050  0.00  0.00    +0.046 A 
ATOM     13  C   UNL     1      -1.179   5.864   0.043  0.00  0.00    +0.113 A 
ATOM     14  N   UNL     1      -0.023   5.188   0.029  0.00  0.00    -0.128 N 
ATOM     15  O   UNL     1       1.032   5.797   0.022  0.00  0.00    -0.163 OA
ATOM     16 BR   UNL     1      -2.368   9.835   0.073  0.00  0.00    -0.050 Br
ATOM     17  O   UNL     1      -3.651   3.095   0.054  0.00  0.00    -0.163 OA
ENDROOT
TORSDOF 0
