REMARK  Name = ZINC09327609
REMARK  3 active torsions:
REMARK  status: ('A' for Active; 'I' for Inactive)
REMARK    1  A    between atoms: C_6  and  C_7
REMARK    2  A    between atoms: N_12  and  C_17
REMARK    3  A    between atoms: C_17  and  C_18
REMARK                            x       y       z     vdW  Elec       q    Type
REMARK                         _______ _______ _______ _____ _____    ______ ____
ROOT
ATOM      1  C   UNL     1      -5.681  -1.891   1.415  0.00  0.00    +0.094 A 
ATOM      2  C   UNL     1      -4.765  -1.094   2.120  0.00  0.00    +0.063 A 
ATOM      3  C   UNL     1      -4.033  -0.442   1.149  0.00  0.00    +0.132 A 
ATOM      4  C   UNL     1      -2.932   0.525   1.189  0.00  0.00    +0.277 A 
ATOM      5  O   UNL     1      -2.481   0.911   2.252  0.00  0.00    -0.265 OA
ATOM      6  N   UNL     1      -2.430   0.977   0.019  0.00  0.00    -0.303 N 
ATOM      7  C   UNL     1      -2.958   0.532  -1.177  0.00  0.00    +0.109 A 
ATOM      8  C   UNL     1      -3.951  -0.347  -1.224  0.00  0.00    +0.131 A 
ATOM      9  N   UNL     1      -4.519  -0.856  -0.065  0.00  0.00    -0.233 N 
ATOM     10  N   UNL     1      -5.474  -1.696   0.127  0.00  0.00    -0.166 NA
ENDROOT
BRANCH   1  16
ATOM     11  C   UNL     1      -6.806  -2.905   3.397  0.00  0.00    +0.011 A 
ATOM     12  C   UNL     1      -7.756  -3.740   3.947  0.00  0.00    +0.020 A 
ATOM     13  C   UNL     1      -8.598  -4.471   3.126  0.00  0.00    +0.041 A 
ATOM     14  C   UNL     1      -8.494  -4.364   1.749  0.00  0.00    +0.020 A 
ATOM     15  C   UNL     1      -7.549  -3.528   1.190  0.00  0.00    +0.011 A 
ATOM     16  C   UNL     1      -6.700  -2.791   2.012  0.00  0.00    +0.002 A 
ATOM     17 CL   UNL     1      -9.788  -5.524   3.824  0.00  0.00    -0.084 Cl
ENDBRANCH   1  16
BRANCH   6  18
ATOM     18  C   UNL     1      -1.330   1.944   0.019  0.00  0.00    +0.220 C 
BRANCH  18  19
ATOM     19  C   UNL     1      -0.014   1.209   0.009  0.00  0.00    +0.230 C 
ATOM     20  O   UNL     1       0.002  -0.004   0.002  0.00  0.00    -0.274 OA
ATOM     21  N   UNL     1       1.143   1.898   0.001  0.00  0.00    -0.328 N 
ATOM     22  H   UNL     1       1.990   1.425  -0.009  0.00  0.00    +0.145 HD
ATOM     23  H   UNL     1       1.130   2.868   0.007  0.00  0.00    +0.145 HD
ENDBRANCH  18  19
ENDBRANCH   6  18
TORSDOF 3
