REMARK  Name = ZINC66597661
REMARK  5 active torsions:
REMARK  status: ('A' for Active; 'I' for Inactive)
REMARK    1  A    between atoms: C_1  and  C_2
REMARK    2  A    between atoms: C_7  and  N_10
REMARK    3  A    between atoms: C_11  and  C_13
REMARK    4  A    between atoms: C_13  and  N_14
REMARK    5  A    between atoms: N_22  and  C_23
REMARK                            x       y       z     vdW  Elec       q    Type
REMARK                         _______ _______ _______ _____ _____    ______ ____
ROOT
ATOM      1  N   UNL     1       3.325  -5.578   3.359  0.00  0.00    -0.291 NA
ATOM      2  C   UNL     1       2.249  -6.558   3.159  0.00  0.00    +0.104 C 
ATOM      3  C   UNL     1       2.854  -7.891   2.707  0.00  0.00    +0.124 C 
ATOM      4  N   UNL     1       3.885  -8.289   3.678  0.00  0.00    -0.283 N 
ATOM      5  C   UNL     1       4.921  -7.308   4.034  0.00  0.00    +0.124 C 
ATOM      6  C   UNL     1       4.235  -5.998   4.433  0.00  0.00    +0.104 C 
ATOM      7  C   UNL     1       3.880  -9.520   4.227  0.00  0.00    +0.302 C 
ATOM      8  O   UNL     1       2.964 -10.285   3.995  0.00  0.00    -0.253 OA
ATOM      9  N   UNL     1       4.889  -9.903   5.033  0.00  0.00    -0.296 N 
ATOM     10  H   UNL     1       5.582  -9.269   5.277  0.00  0.00    +0.151 HD
ENDROOT
BRANCH   9  11
ATOM     11  C   UNL     1       4.941 -11.276   5.542  0.00  0.00    +0.079 C 
ATOM     12  C   UNL     1       4.094 -11.383   6.814  0.00  0.00    +0.050 C 
ATOM     13  C   UNL     1       4.217 -12.799   7.382  0.00  0.00    +0.161 C 
ATOM     14  O   UNL     1       5.592 -13.090   7.639  0.00  0.00    -0.380 OA
ATOM     15  C   UNL     1       6.424 -13.052   6.478  0.00  0.00    +0.161 C 
ATOM     16  C   UNL     1       6.390 -11.646   5.874  0.00  0.00    +0.050 C 
ENDBRANCH   9  11
BRANCH   1  17
ATOM     17  C   UNL     1       2.778  -4.241   3.625  0.00  0.00    +0.180 C 
BRANCH  17  19
ATOM     18  N   UNL     1       1.465  -2.530   2.414  0.00  0.00    -0.311 N 
ATOM     19  C   UNL     1       2.052  -3.743   2.401  0.00  0.00    +0.227 C 
ATOM     20  O   UNL     1       1.997  -4.433   1.406  0.00  0.00    -0.274 OA
ATOM     21  H   UNL     1       1.509  -1.978   3.210  0.00  0.00    +0.149 HD
BRANCH  18  27
ATOM     22  C   UNL     1      -0.024   1.520   0.000  0.00  0.00    +0.007 C 
ATOM     23  C   UNL     1      -0.000  -0.010  -0.009  0.00  0.00    -0.012 C 
ATOM     24  C   UNL     1      -1.435  -0.542  -0.004  0.00  0.00    +0.003 C 
ATOM     25  C   UNL     1      -1.411  -2.072  -0.012  0.00  0.00    +0.002 C 
ATOM     26  C   UNL     1      -0.675  -2.578   1.230  0.00  0.00    +0.022 C 
ATOM     27  C   UNL     1       0.760  -2.046   1.224  0.00  0.00    +0.073 C 
ATOM     28  C   UNL     1       0.736  -0.516   1.233  0.00  0.00    +0.025 C 
ENDBRANCH  18  27
ENDBRANCH  17  19
ENDBRANCH   1  17
TORSDOF 4
