REMARK  Name = ZINC19850035
REMARK  8 active torsions:
REMARK  status: ('A' for Active; 'I' for Inactive)
REMARK    1  A    between atoms: C_1  and  O_2
REMARK    2  A    between atoms: O_2  and  C_3
REMARK    3  A    between atoms: C_8  and  C_9
REMARK    4  A    between atoms: N_10  and  N_11
REMARK    5  A    between atoms: C_12  and  C_14
REMARK    6  A    between atoms: C_14  and  N_15
REMARK    7  A    between atoms: N_18  and  S_21
REMARK    8  A    between atoms: S_21  and  C_24
REMARK                            x       y       z     vdW  Elec       q    Type
REMARK                         _______ _______ _______ _____ _____    ______ ____
ROOT
ATOM      1  N   UNL     1       0.676   4.182  -3.492  0.00  0.00    +0.387 N 
ATOM      2  C   UNL     1       1.435   3.200  -4.277  0.00  0.00    -0.061 C 
ATOM      3  C   UNL     1       2.858   3.094  -3.719  0.00  0.00    +0.091 C 
ATOM      4  N   UNL     1       2.779   2.811  -2.278  0.00  0.00    -0.180 NA
ATOM      5  C   UNL     1       1.921   3.670  -1.447  0.00  0.00    +0.091 C 
ATOM      6  C   UNL     1       0.535   3.753  -2.094  0.00  0.00    -0.061 C 
ATOM      7  H   UNL     1       1.243   5.125  -3.497  0.00  0.00    -0.081 HD
ENDROOT
BRANCH   4   8
ATOM      8  S   UNL     1       3.628   1.555  -1.611  0.00  0.00    +0.061 S 
ATOM      9  O   UNL     1       2.949   1.196  -0.415  0.00  0.00    -0.153 OA
ATOM     10  O   UNL     1       3.869   0.626  -2.659  0.00  0.00    -0.153 OA
BRANCH   8  11
ATOM     11  C   UNL     1       5.200   2.188  -1.128  0.00  0.00    +0.106 A 
ATOM     12  C   UNL     1       6.260   2.156  -2.015  0.00  0.00    +0.029 A 
ATOM     13  C   UNL     1       7.492   2.657  -1.638  0.00  0.00    +0.017 A 
ATOM     14  C   UNL     1       7.667   3.180  -0.369  0.00  0.00    +0.018 A 
ATOM     15  C   UNL     1       6.607   3.206   0.520  0.00  0.00    +0.017 A 
ATOM     16  C   UNL     1       5.374   2.710   0.140  0.00  0.00    +0.029 A 
ATOM     17 BR   UNL     1       9.354   3.858   0.150  0.00  0.00    -0.050 Br
ENDBRANCH   8  11
ENDBRANCH   4   8
BRANCH   1  18
ATOM     18  C   UNL     1      -0.637   4.440  -4.099  0.00  0.00    +0.020 C 
BRANCH  18  20
ATOM     19  N   UNL     1      -2.599   5.879  -3.651  0.00  0.00    -0.209 N 
ATOM     20  C   UNL     1      -1.325   5.555  -3.353  0.00  0.00    +0.216 C 
ATOM     21  O   UNL     1      -0.731   6.161  -2.486  0.00  0.00    -0.276 OA
ATOM     22  H   UNL     1      -3.163   5.279  -4.380  0.00  0.00    +0.177 HD
BRANCH  19  24
ATOM     23  C   UNL     1      -4.438   7.279  -3.301  0.00  0.00    +0.142 C 
ATOM     24  N   UNL     1      -3.204   6.981  -3.032  0.00  0.00    -0.188 NA
BRANCH  23  30
ATOM     25  C   UNL     1      -6.259   6.883  -4.956  0.00  0.00    +0.129 A 
ATOM     26  C   UNL     1      -7.019   6.019  -5.728  0.00  0.00    +0.046 A 
ATOM     27  C   UNL     1      -6.786   4.657  -5.678  0.00  0.00    +0.004 A 
ATOM     28  C   UNL     1      -5.793   4.147  -4.859  0.00  0.00    +0.001 A 
ATOM     29  C   UNL     1      -5.024   4.993  -4.089  0.00  0.00    +0.013 A 
ATOM     30  C   UNL     1      -5.253   6.370  -4.126  0.00  0.00    +0.036 A 
BRANCH  25  32
ATOM     31  C   UNL     1      -7.600   8.661  -5.787  0.00  0.00    +0.277 C 
ATOM     32  O   UNL     1      -6.488   8.220  -5.004  0.00  0.00    -0.494 OA
ENDBRANCH  25  32
ENDBRANCH  23  30
ENDBRANCH  19  24
ENDBRANCH  18  20
ENDBRANCH   1  18
TORSDOF 7
