REMARK  Name = ZINC06193286
REMARK  16 active torsions:
REMARK  status: ('A' for Active; 'I' for Inactive)
REMARK    1  A    between atoms: C_1  and  C_2
REMARK    2  A    between atoms: C_2  and  N_69
REMARK    3  A    between atoms: C_3  and  C_4
REMARK    4  A    between atoms: C_3  and  N_69
REMARK    5  A    between atoms: C_5  and  C_6
REMARK    6  A    between atoms: C_5  and  N_69
REMARK    7  A    between atoms: C_6  and  N_7
REMARK    8  A    between atoms: N_7  and  C_8
REMARK    9  A    between atoms: N_7  and  C_23
REMARK   10  A    between atoms: C_8  and  C_9
REMARK   11  A    between atoms: C_12  and  C_22
REMARK   12  A    between atoms: C_15  and  C_21
REMARK   13  A    between atoms: C_23  and  N_25
REMARK   14  A    between atoms: N_25  and  C_26
REMARK   15  A    between atoms: C_26  and  C_28
REMARK   16  A    between atoms: C_26  and  C_29
REMARK                            x       y       z     vdW  Elec       q    Type
REMARK                         _______ _______ _______ _____ _____    ______ ____
ROOT
ATOM      1  N   UNL     1       0.726  -2.308   0.409  0.00  0.00    -0.310 N 
ENDROOT
BRANCH   1   2
ATOM      2  C   UNL     1       0.545  -0.973   0.382  0.00  0.00    +0.134 C 
ATOM      3  S   UNL     1       1.631   0.056   1.215  0.00  0.00    -0.019 S 
BRANCH   2   4
ATOM      4  N   UNL     1      -0.491  -0.447  -0.301  0.00  0.00    -0.320 N 
ATOM      5  H   UNL     1      -1.106  -1.029  -0.773  0.00  0.00    +0.148 HD
BRANCH   4   6
ATOM      6  C   UNL     1      -0.687   1.005  -0.331  0.00  0.00    +0.099 C 
ATOM      7  C   UNL     1      -1.474   1.438   0.907  0.00  0.00    +0.033 C 
BRANCH   6   8
ATOM      8  C   UNL     1      -1.455   1.382  -1.572  0.00  0.00    -0.028 A 
ATOM      9  C   UNL     1      -2.500   0.588  -2.006  0.00  0.00    +0.005 A 
ATOM     10  C   UNL     1      -3.207   0.937  -3.142  0.00  0.00    +0.000 A 
ATOM     11  C   UNL     1      -2.864   2.075  -3.848  0.00  0.00    +0.000 A 
ATOM     12  C   UNL     1      -1.816   2.866  -3.416  0.00  0.00    +0.000 A 
ATOM     13  C   UNL     1      -1.111   2.520  -2.278  0.00  0.00    +0.005 A 
ENDBRANCH   6   8
ENDBRANCH   4   6
ENDBRANCH   2   4
ENDBRANCH   1   2
BRANCH   1  14
ATOM     14  C   UNL     1      -0.261  -3.194  -0.213  0.00  0.00    +0.088 C 
BRANCH  14  15
ATOM     15  C   UNL     1       0.116  -3.430  -1.677  0.00  0.00    -0.060 C 
BRANCH  15  16
ATOM     16  N   UNL     1      -0.877  -4.341  -2.284  0.00  0.00    +0.380 N 
ATOM     17  H   UNL     1      -0.971  -5.174  -1.690  0.00  0.00    -0.082 HD
BRANCH  16  19
ATOM     18  C   UNL     1      -2.110  -2.471  -3.329  0.00  0.00    -0.017 C 
ATOM     19  C   UNL     1      -2.189  -3.668  -2.379  0.00  0.00    -0.082 C 
ENDBRANCH  16  19
BRANCH  16  20
ATOM     20  C   UNL     1      -0.424  -4.758  -3.628  0.00  0.00    -0.082 C 
ATOM     21  C   UNL     1      -1.269  -5.950  -4.083  0.00  0.00    -0.017 C 
ENDBRANCH  16  20
ENDBRANCH  15  16
ENDBRANCH  14  15
ENDBRANCH   1  14
BRANCH   1  22
ATOM     22  C   UNL     1       1.910  -2.873   1.061  0.00  0.00    +0.147 C 
BRANCH  22  23
ATOM     23  C   UNL     1       1.573  -3.244   2.482  0.00  0.00    +0.035 A 
ATOM     24  C   UNL     1       1.823  -2.368   3.486  0.00  0.00    +0.020 A 
ATOM     25  C   UNL     1       1.483  -2.758   4.856  0.00  0.00    +0.002 A 
ATOM     26  C   UNL     1       1.718  -1.897   5.933  0.00  0.00    -0.041 A 
ATOM     27  C   UNL     1       1.390  -2.291   7.199  0.00  0.00    +0.004 A 
ATOM     28  C   UNL     1       0.825  -3.539   7.426  0.00  0.00    +0.005 A 
ATOM     29  C   UNL     1       0.585  -4.403   6.380  0.00  0.00    -0.026 A 
ATOM     30  C   UNL     1       0.911  -4.024   5.082  0.00  0.00    +0.052 A 
ATOM     31  N   UNL     1       0.681  -4.869   4.017  0.00  0.00    -0.322 N 
ATOM     32  H   UNL     1       0.278  -5.769   4.180  0.00  0.00    +0.169 HD
ATOM     33  C   UNL     1       0.991  -4.499   2.762  0.00  0.00    +0.254 A 
ATOM     34  O   UNL     1       0.770  -5.270   1.844  0.00  0.00    -0.268 OA
ATOM     35  C   UNL     1      -0.028  -5.755   6.642  0.00  0.00    +0.046 C 
ATOM     36  C   UNL     1       2.331  -0.540   5.697  0.00  0.00    +0.044 C 
ENDBRANCH  22  23
ENDBRANCH   1  22
TORSDOF 11
