REMARK  Name = ZINC38615130
REMARK  13 active torsions:
REMARK  status: ('A' for Active; 'I' for Inactive)
REMARK    1  A    between atoms: C_1  and  C_2
REMARK    2  A    between atoms: C_2  and  C_3
REMARK    3  A    between atoms: C_3  and  C_4
REMARK    4  A    between atoms: C_4  and  C_5
REMARK    5  A    between atoms: C_5  and  O_6
REMARK    6  A    between atoms: O_6  and  C_7
REMARK    7  A    between atoms: C_10  and  C_14
REMARK    8  A    between atoms: N_16  and  C_17
REMARK    9  A    between atoms: C_17  and  C_18
REMARK   10  A    between atoms: C_18  and  C_20
REMARK   11  A    between atoms: C_18  and  N_28
REMARK   12  A    between atoms: C_23  and  O_26
REMARK   13  A    between atoms: O_26  and  C_27
REMARK                            x       y       z     vdW  Elec       q    Type
REMARK                         _______ _______ _______ _____ _____    ______ ____
ROOT
ATOM      1  C   UNL     1       6.279  -6.468   8.732  0.00  0.00    +0.244 C 
ATOM      2  O   UNL     1       6.400  -7.014   7.653  0.00  0.00    -0.270 OA
ATOM      3  N   UNL     1       5.199  -6.719   9.498  0.00  0.00    -0.313 N 
ATOM      4  H   UNL     1       5.103  -6.283  10.359  0.00  0.00    +0.149 HD
ENDROOT
BRANCH   1   8
ATOM      5  C   UNL     1       9.263  -3.767  10.092  0.00  0.00    +0.157 A 
ATOM      6  C   UNL     1       9.403  -4.391   8.857  0.00  0.00    +0.085 A 
ATOM      7  C   UNL     1       8.437  -5.268   8.413  0.00  0.00    +0.036 A 
ATOM      8  C   UNL     1       7.316  -5.530   9.205  0.00  0.00    +0.040 A 
ATOM      9  C   UNL     1       7.179  -4.901  10.445  0.00  0.00    +0.036 A 
ATOM     10  C   UNL     1       8.152  -4.029  10.885  0.00  0.00    +0.085 A 
ATOM     11 CL   UNL     1       7.985  -3.251  12.428  0.00  0.00    -0.080 Cl
ATOM     12 CL   UNL     1      10.796  -4.065   7.874  0.00  0.00    -0.080 Cl
BRANCH   5  13
ATOM     13  O   UNL     1      10.217  -2.904  10.526  0.00  0.00    -0.489 OA
BRANCH  13  14
ATOM     14  C   UNL     1      11.294  -3.456  11.286  0.00  0.00    +0.229 C 
BRANCH  14  15
ATOM     15  C   UNL     1      12.261  -2.340  11.684  0.00  0.00    +0.041 C 
BRANCH  15  16
ATOM     16  C   UNL     1      13.415  -2.931  12.498  0.00  0.00    +0.003 C 
BRANCH  16  18
ATOM     17  C   UNL     1      15.535  -2.406  13.710  0.00  0.00    +0.004 C 
ATOM     18  C   UNL     1      14.382  -1.815  12.896  0.00  0.00    -0.003 C 
ENDBRANCH  16  18
ENDBRANCH  15  16
ENDBRANCH  14  15
ENDBRANCH  13  14
ENDBRANCH   5  13
ENDBRANCH   1   8
BRANCH   3  19
ATOM     19  C   UNL     1       4.170  -7.651   9.029  0.00  0.00    +0.094 C 
BRANCH  19  20
ATOM     20  C   UNL     1       3.128  -7.857  10.131  0.00  0.00    -0.020 C 
BRANCH  20  21
ATOM     21  N   UNL     1       2.049  -8.718   9.629  0.00  0.00    +0.385 N 
ATOM     22  C   UNL     1       1.382  -8.057   8.501  0.00  0.00    -0.078 C 
ATOM     23  C   UNL     1       0.310  -8.984   7.923  0.00  0.00    -0.019 C 
ATOM     24  C   UNL     1      -0.719  -9.305   9.010  0.00  0.00    -0.004 C 
ATOM     25  C   UNL     1      -0.002  -9.925  10.212  0.00  0.00    -0.019 C 
ATOM     26  C   UNL     1       1.081  -8.964  10.705  0.00  0.00    -0.078 C 
ATOM     27  H   UNL     1       2.437  -9.597   9.320  0.00  0.00    -0.081 HD
ENDBRANCH  20  21
BRANCH  20  28
ATOM     28  C   UNL     1       3.780  -8.511  11.322  0.00  0.00    -0.059 A 
ATOM     29  C   UNL     1       4.008  -9.874  11.322  0.00  0.00    +0.005 A 
ATOM     30  C   UNL     1       4.606 -10.476  12.412  0.00  0.00    +0.046 A 
ATOM     31  C   UNL     1       4.977  -9.711  13.508  0.00  0.00    +0.120 A 
ATOM     32  C   UNL     1       4.747  -8.342  13.506  0.00  0.00    +0.046 A 
ATOM     33  C   UNL     1       4.154  -7.745  12.411  0.00  0.00    +0.005 A 
BRANCH  31  34
ATOM     34  O   UNL     1       5.564 -10.300  14.583  0.00  0.00    -0.495 OA
ATOM     35  C   UNL     1       5.919  -9.451  15.676  0.00  0.00    +0.277 C 
ENDBRANCH  31  34
ENDBRANCH  20  28
ENDBRANCH  19  20
ENDBRANCH   3  19
TORSDOF 11
