REMARK  Name = ZINC55086544
REMARK  4 active torsions:
REMARK  status: ('A' for Active; 'I' for Inactive)
REMARK    1  A    between atoms: C_3  and  C_10
REMARK    2  A    between atoms: C_6  and  N_9
REMARK    3  A    between atoms: C_15  and  C_18
REMARK    4  A    between atoms: C_18  and  O_19
REMARK                            x       y       z     vdW  Elec       q    Type
REMARK                         _______ _______ _______ _____ _____    ______ ____
ROOT
ATOM      1  C   UNL     1       3.547   2.084  -1.270  0.00  0.00    +0.219 C 
ATOM      2  O   UNL     1       4.479   1.311  -1.197  0.00  0.00    -0.275 OA
ATOM      3  N   UNL     1       3.776   3.408  -1.367  0.00  0.00    -0.301 N 
ATOM      4  C   UNL     1       2.660   4.364  -1.346  0.00  0.00    +0.108 C 
ATOM      5  C   UNL     1       2.761   5.266  -2.581  0.00  0.00    +0.025 C 
ATOM      6  C   UNL     1       4.145   5.917  -2.620  0.00  0.00    +0.017 C 
ATOM      7  C   UNL     1       5.218   4.831  -2.727  0.00  0.00    +0.025 C 
ATOM      8  C   UNL     1       5.146   3.924  -1.488  0.00  0.00    +0.108 C 
ENDROOT
BRANCH   1  11
ATOM      9  C   UNL     1       0.663  -0.324  -0.528  0.00  0.00    -0.001 C 
ATOM     10  C   UNL     1       2.098   0.205  -0.547  0.00  0.00    +0.012 C 
ATOM     11  C   UNL     1       2.133   1.562  -1.252  0.00  0.00    +0.074 C 
ATOM     12  C   UNL     1       1.629   1.404  -2.688  0.00  0.00    -0.004 C 
ATOM     13  C   UNL     1       0.194   0.875  -2.670  0.00  0.00    -0.074 C 
ATOM     14  C   UNL     1       0.160  -0.482  -1.964  0.00  0.00    -0.016 C 
BRANCH  13  15
ATOM     15  N   UNL     1      -0.289   0.722  -4.049  0.00  0.00    +0.380 N 
ATOM     16  H   UNL     1       0.303   0.071  -4.543  0.00  0.00    -0.090 HD
ATOM     17  H   UNL     1      -1.236   0.373  -4.037  0.00  0.00    -0.090 HD
ATOM     18  H   UNL     1      -0.267   1.617  -4.514  0.00  0.00    -0.090 HD
ENDBRANCH  13  15
ENDBRANCH   1  11
BRANCH   6  19
ATOM     19  C   UNL     1       4.238   6.845  -3.833  0.00  0.00    +0.159 C 
BRANCH  19  20
ATOM     20  O   UNL     1       5.486   7.540  -3.807  0.00  0.00    -0.395 OA
ATOM     21  H   UNL     1       5.613   8.148  -4.548  0.00  0.00    +0.209 HD
ENDBRANCH  19  20
ENDBRANCH   6  19
TORSDOF 4
