REMARK  Name = ZINC15045791
REMARK  9 active torsions:
REMARK  status: ('A' for Active; 'I' for Inactive)
REMARK    1  A    between atoms: C_1  and  C_2
REMARK    2  A    between atoms: C_5  and  N_9
REMARK    3  A    between atoms: C_10  and  C_12
REMARK    4  A    between atoms: C_12  and  N_44
REMARK    5  A    between atoms: C_13  and  N_44
REMARK    6  A    between atoms: C_14  and  C_15
REMARK    7  A    between atoms: C_14  and  N_44
REMARK    8  A    between atoms: C_15  and  O_16
REMARK    9  A    between atoms: O_16  and  C_17
REMARK                            x       y       z     vdW  Elec       q    Type
REMARK                         _______ _______ _______ _____ _____    ______ ____
ROOT
ATOM      1  C   UNL     1       6.036  -0.783  -0.566  0.00  0.00    +0.019 C 
ENDROOT
BRANCH   1   3
ATOM      2  N   UNL     1       3.623  -0.651  -0.036  0.00  0.00    -0.285 N 
ATOM      3  C   UNL     1       4.742  -0.019  -0.442  0.00  0.00    +0.201 C 
ATOM      4  O   UNL     1       4.708   1.163  -0.709  0.00  0.00    -0.278 OA
ATOM      5  H   UNL     1       3.665  -1.578   0.247  0.00  0.00    +0.155 HD
BRANCH   2  10
ATOM      6  C   UNL     1      -1.331   2.116   0.022  0.00  0.00    +0.044 C 
ATOM      7  C   UNL     1      -0.017   1.377   0.008  0.00  0.00    -0.048 A 
ATOM      8  C   UNL     1       0.786   1.377   1.134  0.00  0.00    +0.020 A 
ATOM      9  C   UNL     1       1.994   0.706   1.123  0.00  0.00    +0.040 A 
ATOM     10  C   UNL     1       2.401   0.030  -0.021  0.00  0.00    +0.062 A 
ATOM     11  C   UNL     1       1.591   0.033  -1.150  0.00  0.00    +0.040 A 
ATOM     12  C   UNL     1       0.385   0.707  -1.132  0.00  0.00    +0.020 A 
ATOM     13 BR   UNL     1       2.141  -0.884  -2.711  0.00  0.00    -0.048 Br
ATOM     14 BR   UNL     1       3.091   0.705   2.663  0.00  0.00    -0.048 Br
ENDBRANCH   2  10
ENDBRANCH   1   3
BRANCH   1  16
ATOM     15  C   UNL     1       6.837   0.594  -2.390  0.00  0.00    -0.095 C 
ATOM     16  N   UNL     1       7.098   0.147  -1.006  0.00  0.00    +0.386 N 
ATOM     17  H   UNL     1       7.101   0.966  -0.386  0.00  0.00    -0.081 HD
BRANCH  16  18
ATOM     18  C   UNL     1       8.415  -0.519  -0.929  0.00  0.00    -0.037 C 
BRANCH  18  19
ATOM     19  C   UNL     1       9.509   0.523  -1.172  0.00  0.00    +0.211 C 
BRANCH  19  20
ATOM     20  O   UNL     1       9.486   1.492  -0.121  0.00  0.00    -0.491 OA
BRANCH  20  21
ATOM     21  C   UNL     1      10.401   2.494  -0.186  0.00  0.00    +0.155 A 
ATOM     22  C   UNL     1      11.307   2.542  -1.235  0.00  0.00    +0.048 A 
ATOM     23  C   UNL     1      12.234   3.565  -1.301  0.00  0.00    +0.004 A 
ATOM     24  C   UNL     1      12.267   4.535  -0.317  0.00  0.00    +0.003 A 
ATOM     25  C   UNL     1      11.369   4.489   0.734  0.00  0.00    +0.042 A 
ATOM     26  C   UNL     1      10.435   3.470   0.802  0.00  0.00    +0.165 A 
ATOM     27  F   UNL     1       9.558   3.424   1.829  0.00  0.00    -0.202 F 
ENDBRANCH  20  21
ENDBRANCH  19  20
ENDBRANCH  18  19
ENDBRANCH  16  18
ENDBRANCH   1  16
TORSDOF 7
