REMARK  Name = ZINC43170671
REMARK  12 active torsions:
REMARK  status: ('A' for Active; 'I' for Inactive)
REMARK    1  A    between atoms: C_1  and  C_2
REMARK    2  A    between atoms: C_2  and  C_3
REMARK    3  A    between atoms: C_2  and  C_4
REMARK    4  A    between atoms: C_8  and  C_25
REMARK    5  A    between atoms: C_9  and  N_10
REMARK    6  A    between atoms: N_13  and  C_14
REMARK    7  A    between atoms: C_14  and  C_15
REMARK    8  A    between atoms: C_15  and  C_17
REMARK    9  A    between atoms: C_15  and  O_24
REMARK   10  A    between atoms: C_17  and  N_18
REMARK   11  A    between atoms: C_25  and  C_26
REMARK   12  A    between atoms: C_25  and  C_27
REMARK                            x       y       z     vdW  Elec       q    Type
REMARK                         _______ _______ _______ _____ _____    ______ ____
ROOT
ATOM      1  N   UNL     1      -0.641  -0.585  -2.194  0.00  0.00    -0.269 N 
ATOM      2  C   UNL     1      -0.607  -1.509  -3.175  0.00  0.00    +0.304 C 
ATOM      3  O   UNL     1      -1.297  -2.507  -3.093  0.00  0.00    -0.253 OA
ATOM      4  N   UNL     1       0.191  -1.326  -4.246  0.00  0.00    -0.297 N 
ATOM      5  H   UNL     1      -0.155   0.249  -2.296  0.00  0.00    +0.156 HD
ATOM      6  H   UNL     1       0.741  -0.530  -4.311  0.00  0.00    +0.150 HD
ENDROOT
BRANCH   1  12
ATOM      7  C   UNL     1      -0.747  -0.807   0.209  0.00  0.00    -0.023 A 
ATOM      8  C   UNL     1      -1.477  -1.042   1.357  0.00  0.00    +0.006 A 
ATOM      9  C   UNL     1      -2.833  -1.301   1.276  0.00  0.00    +0.001 A 
ATOM     10  C   UNL     1      -3.462  -1.328   0.044  0.00  0.00    +0.006 A 
ATOM     11  C   UNL     1      -2.737  -1.095  -1.108  0.00  0.00    -0.023 A 
ATOM     12  C   UNL     1      -1.377  -0.827  -1.029  0.00  0.00    +0.042 A 
BRANCH   7  14
ATOM     13  C   UNL     1       0.960   0.726   1.149  0.00  0.00    +0.012 C 
ATOM     14  C   UNL     1       0.731  -0.525   0.298  0.00  0.00    +0.015 C 
ATOM     15  C   UNL     1       1.440  -1.717   0.944  0.00  0.00    +0.012 C 
ENDBRANCH   7  14
BRANCH  11  16
ATOM     16  C   UNL     1      -3.423  -1.125  -2.450  0.00  0.00    +0.015 C 
ATOM     17  C   UNL     1      -4.561  -2.147  -2.417  0.00  0.00    +0.012 C 
ATOM     18  C   UNL     1      -3.991   0.261  -2.763  0.00  0.00    +0.012 C 
ENDBRANCH  11  16
ENDBRANCH   1  12
BRANCH   4  19
ATOM     19  C   UNL     1       0.227  -2.331  -5.311  0.00  0.00    +0.135 C 
BRANCH  19  20
ATOM     20  C   UNL     1       1.205  -1.884  -6.400  0.00  0.00    +0.115 C 
BRANCH  20  21
ATOM     21  O   UNL     1       0.777  -0.632  -6.940  0.00  0.00    -0.392 OA
ATOM     22  H   UNL     1      -0.103  -0.656  -7.340  0.00  0.00    +0.210 HD
ENDBRANCH  20  21
BRANCH  20  23
ATOM     23  C   UNL     1       1.243  -2.933  -7.513  0.00  0.00    -0.046 C 
BRANCH  23  24
ATOM     24  N   UNL     1       2.185  -2.506  -8.556  0.00  0.00    +0.381 N 
ATOM     25  C   UNL     1       2.107  -3.432  -9.693  0.00  0.00    -0.079 C 
ATOM     26  C   UNL     1       3.026  -2.947 -10.815  0.00  0.00    -0.019 C 
ATOM     27  C   UNL     1       4.467  -2.890 -10.299  0.00  0.00    -0.004 C 
ATOM     28  C   UNL     1       4.522  -1.980  -9.069  0.00  0.00    -0.019 C 
ATOM     29  C   UNL     1       3.547  -2.501  -8.011  0.00  0.00    -0.079 C 
ATOM     30  H   UNL     1       1.944  -1.577  -8.866  0.00  0.00    -0.082 HD
ENDBRANCH  23  24
ENDBRANCH  20  23
ENDBRANCH  19  20
ENDBRANCH   4  19
TORSDOF 8
