REMARK  Name = ZINC39685788
REMARK  12 active torsions:
REMARK  status: ('A' for Active; 'I' for Inactive)
REMARK    1  A    between atoms: C_1  and  C_2
REMARK    2  A    between atoms: C_2  and  C_3
REMARK    3  A    between atoms: C_2  and  C_4
REMARK    4  A    between atoms: C_4  and  C_6
REMARK    5  A    between atoms: C_4  and  N_13
REMARK    6  A    between atoms: N_8  and  C_9
REMARK    7  A    between atoms: C_9  and  C_10
REMARK    8  A    between atoms: C_9  and  C_11
REMARK    9  A    between atoms: C_9  and  C_12
REMARK   10  A    between atoms: C_14  and  C_16
REMARK   11  A    between atoms: C_27  and  C_29
REMARK   12  A    between atoms: C_29  and  C_35
REMARK                            x       y       z     vdW  Elec       q    Type
REMARK                         _______ _______ _______ _____ _____    ______ ____
ROOT
ATOM      1  C   UNL     1      -1.044  -4.609   1.299  0.00  0.00    +0.100 C 
ATOM      2  C   UNL     1      -2.298  -5.314   0.737  0.00  0.00    +0.121 C 
ATOM      3  N   UNL     1      -2.489  -6.493   1.615  0.00  0.00    -0.300 N 
ATOM      4  C   UNL     1      -2.168  -5.997   2.974  0.00  0.00    +0.115 C 
ATOM      5  C   UNL     1      -0.962  -5.058   2.768  0.00  0.00    -0.004 C 
ATOM      6  C   UNL     1      -1.068  -3.852   3.696  0.00  0.00    -0.010 C 
ATOM      7  C   UNL     1      -0.925  -4.318   5.148  0.00  0.00    -0.082 C 
ATOM      8  N   UNL     1       0.370  -4.985   5.325  0.00  0.00    +0.379 N 
ATOM      9  C   UNL     1       0.427  -6.196   4.498  0.00  0.00    -0.082 C 
ATOM     10  C   UNL     1       0.342  -5.810   3.018  0.00  0.00    -0.010 C 
ATOM     11  C   UNL     1      -2.869  -7.736   1.258  0.00  0.00    +0.222 C 
ATOM     12  O   UNL     1      -3.070  -8.577   2.108  0.00  0.00    -0.275 OA
ATOM     13  H   UNL     1       1.111  -4.357   5.051  0.00  0.00    -0.086 HD
ATOM     14  H   UNL     1       0.488  -5.236   6.295  0.00  0.00    -0.086 HD
ENDROOT
BRANCH  11  15
ATOM     15  C   UNL     1      -3.044  -8.081  -0.199  0.00  0.00    +0.044 C 
ATOM     16  C   UNL     1      -4.044  -7.114  -0.835  0.00  0.00    +0.016 C 
ATOM     17  C   UNL     1      -5.391  -7.228  -0.119  0.00  0.00    +0.001 C 
ATOM     18  C   UNL     1      -5.916  -8.659  -0.244  0.00  0.00    +0.000 C 
ATOM     19  C   UNL     1      -4.916  -9.627   0.392  0.00  0.00    +0.001 C 
ATOM     20  C   UNL     1      -3.569  -9.513  -0.324  0.00  0.00    +0.016 C 
ATOM     21  C   UNL     1      -1.697  -7.967  -0.915  0.00  0.00    +0.021 C 
ENDBRANCH  11  15
BRANCH   1  23
ATOM     22  N   UNL     1      -2.337  -2.530   1.652  0.00  0.00    -0.303 N 
ATOM     23  C   UNL     1      -1.203  -3.112   1.217  0.00  0.00    +0.219 C 
ATOM     24  O   UNL     1      -0.309  -2.432   0.759  0.00  0.00    -0.275 OA
ATOM     25  H   UNL     1      -3.023  -3.065   2.083  0.00  0.00    +0.149 HD
BRANCH  22  26
ATOM     26  C   UNL     1      -2.536  -1.089   1.475  0.00  0.00    +0.161 C 
BRANCH  26  27
ATOM     27  C   UNL     1      -3.499  -0.583   2.518  0.00  0.00    +0.234 C 
ATOM     28  O   UNL     1      -4.106  -1.368   3.215  0.00  0.00    -0.274 OA
ATOM     29  N   UNL     1      -3.685   0.742   2.677  0.00  0.00    -0.309 N 
ATOM     30  H   UNL     1      -3.148   1.371   2.171  0.00  0.00    +0.149 HD
BRANCH  29  31
ATOM     31  C   UNL     1      -4.700   1.233   3.613  0.00  0.00    +0.026 C 
ATOM     32  C   UNL     1      -4.376   0.734   5.023  0.00  0.00    +0.031 C 
ATOM     33  C   UNL     1      -4.706   2.763   3.603  0.00  0.00    +0.031 C 
ATOM     34  C   UNL     1      -6.076   0.714   3.192  0.00  0.00    +0.031 C 
ENDBRANCH  29  31
ENDBRANCH  26  27
BRANCH  26  36
ATOM     35  C   UNL     1      -2.064  -1.187  -0.976  0.00  0.00    +0.009 C 
ATOM     36  C   UNL     1      -3.107  -0.821   0.081  0.00  0.00    +0.012 C 
ATOM     37  C   UNL     1      -4.364  -1.668  -0.127  0.00  0.00    +0.009 C 
ENDBRANCH  26  36
ENDBRANCH  22  26
ENDBRANCH   1  23
TORSDOF 6
