REMARK  Name = ZINC52067047
REMARK  9 active torsions:
REMARK  status: ('A' for Active; 'I' for Inactive)
REMARK    1  A    between atoms: C_1  and  C_2
REMARK    2  A    between atoms: C_2  and  C_4
REMARK    3  A    between atoms: C_2  and  N_19
REMARK    4  A    between atoms: C_9  and  O_10
REMARK    5  A    between atoms: O_10  and  C_11
REMARK    6  A    between atoms: C_11  and  C_12
REMARK    7  A    between atoms: N_14  and  C_15
REMARK    8  A    between atoms: C_15  and  C_16
REMARK    9  A    between atoms: N_19  and  C_20
REMARK                            x       y       z     vdW  Elec       q    Type
REMARK                         _______ _______ _______ _____ _____    ______ ____
ROOT
ATOM      1  C   UNL     1      -1.412  -0.526   0.013  0.00  0.00    -0.019 A 
ATOM      2  C   UNL     1      -2.015  -0.864   1.209  0.00  0.00    +0.020 A 
ATOM      3  C   UNL     1      -3.312  -1.343   1.219  0.00  0.00    +0.018 A 
ATOM      4  C   UNL     1      -4.009  -1.484   0.032  0.00  0.00    +0.019 A 
ATOM      5  C   UNL     1      -3.410  -1.147  -1.166  0.00  0.00    +0.047 A 
ATOM      6  C   UNL     1      -2.111  -0.661  -1.178  0.00  0.00    +0.123 A 
ATOM      7 BR   UNL     1      -4.135  -1.805   2.858  0.00  0.00    -0.050 Br
ENDROOT
BRANCH   1   9
ATOM      8  C   UNL     1      -0.019   1.526   0.010  0.00  0.00    -0.009 C 
ATOM      9  C   UNL     1       0.002  -0.004   0.002  0.00  0.00    -0.041 C 
BRANCH   9  10
ATOM     10  N   UNL     1       0.713  -0.491   1.192  0.00  0.00    +0.382 N 
ATOM     11  C   UNL     1       2.122  -0.083   1.122  0.00  0.00    -0.100 C 
ATOM     12  H   UNL     1       0.290  -0.099   2.020  0.00  0.00    -0.085 HD
ATOM     13  H   UNL     1       0.655  -1.497   1.230  0.00  0.00    -0.085 HD
ENDBRANCH   9  10
ENDBRANCH   1   9
BRANCH   6  14
ATOM     14  O   UNL     1      -1.521  -0.324  -2.355  0.00  0.00    -0.483 OA
BRANCH  14  15
ATOM     15  C   UNL     1      -2.300  -0.490  -3.542  0.00  0.00    +0.324 C 
BRANCH  15  16
ATOM     16  C   UNL     1      -1.487  -0.069  -4.739  0.00  0.00    +0.251 C 
ATOM     17  O   UNL     1      -0.353   0.333  -4.591  0.00  0.00    -0.272 OA
ATOM     18  N   UNL     1      -2.021  -0.139  -5.974  0.00  0.00    -0.302 N 
ATOM     19  H   UNL     1      -2.929  -0.461  -6.093  0.00  0.00    +0.150 HD
BRANCH  18  20
ATOM     20  C   UNL     1      -1.231   0.270  -7.138  0.00  0.00    +0.193 C 
BRANCH  20  21
ATOM     21  C   UNL     1      -2.034   0.099  -8.360  0.00  0.00    -0.087 C 
ATOM     22  C   UNL     1      -2.674  -0.037  -9.335  0.00  0.00    +0.005 C 
ENDBRANCH  20  21
ENDBRANCH  18  20
ENDBRANCH  15  16
ENDBRANCH  14  15
ENDBRANCH   6  14
TORSDOF 7
