REMARK  Name = ZINC39632063
REMARK  13 active torsions:
REMARK  status: ('A' for Active; 'I' for Inactive)
REMARK    1  A    between atoms: C_1  and  C_2
REMARK    2  A    between atoms: C_3  and  C_13
REMARK    3  A    between atoms: C_4  and  C_7
REMARK    4  A    between atoms: C_17  and  C_26
REMARK    5  A    between atoms: N_28  and  C_29
REMARK    6  A    between atoms: C_29  and  C_31
REMARK    7  A    between atoms: C_29  and  C_32
REMARK    8  A    between atoms: C_32  and  C_33
REMARK    9  A    between atoms: C_33  and  C_34
REMARK   10  A    between atoms: C_34  and  C_35
REMARK   11  A    between atoms: C_35  and  C_36
REMARK   12  A    between atoms: C_35  and  C_37
REMARK   13  A    between atoms: C_35  and  O_38
REMARK                            x       y       z     vdW  Elec       q    Type
REMARK                         _______ _______ _______ _____ _____    ______ ____
ROOT
ATOM      1  C   UNL     1      -2.630  -0.333   0.184  0.00  0.00    +0.252 C 
ATOM      2  O   UNL     1      -3.357  -0.237  -0.786  0.00  0.00    -0.270 OA
ATOM      3  N   UNL     1      -3.107  -0.057   1.414  0.00  0.00    -0.296 N 
ATOM      4  C   UNL     1      -2.358  -0.023   2.692  0.00  0.00    +0.121 C 
ATOM      5  C   UNL     1      -2.945   1.184   3.457  0.00  0.00    +0.100 C 
ATOM      6  C   UNL     1      -4.351   1.378   2.865  0.00  0.00    -0.004 C 
ATOM      7  C   UNL     1      -4.498   0.288   1.793  0.00  0.00    +0.115 C 
ATOM      8  C   UNL     1      -4.469   2.758   2.224  0.00  0.00    -0.010 C 
ATOM      9  C   UNL     1      -5.892   2.949   1.693  0.00  0.00    -0.082 C 
ATOM     10  N   UNL     1      -6.851   2.816   2.797  0.00  0.00    +0.379 N 
ATOM     11  C   UNL     1      -6.796   1.456   3.347  0.00  0.00    -0.082 C 
ATOM     12  C   UNL     1      -5.411   1.201   3.948  0.00  0.00    -0.010 C 
ATOM     13  H   UNL     1      -6.621   3.479   3.521  0.00  0.00    -0.086 HD
ATOM     14  H   UNL     1      -7.782   3.002   2.456  0.00  0.00    -0.086 HD
ENDROOT
BRANCH   1  17
ATOM     15  C   UNL     1      -0.226   1.545  -0.494  0.00  0.00    +0.090 C 
ATOM     16  C   UNL     1      -0.169   0.054  -0.281  0.00  0.00    +0.147 A 
ATOM     17  C   UNL     1      -1.228  -0.752   0.015  0.00  0.00    +0.106 A 
ATOM     18  C   UNL     1      -0.701  -2.120   0.132  0.00  0.00    +0.126 A 
ATOM     19  N   UNL     1       0.587  -2.051  -0.092  0.00  0.00    -0.077 NA
ATOM     20  O   UNL     1       0.927  -0.705  -0.355  0.00  0.00    -0.359 OA
BRANCH  18  21
ATOM     21  C   UNL     1      -1.480  -3.343   0.443  0.00  0.00    +0.004 A 
ATOM     22  C   UNL     1      -2.564  -3.278   1.317  0.00  0.00    +0.010 A 
ATOM     23  C   UNL     1      -3.285  -4.420   1.602  0.00  0.00    +0.001 A 
ATOM     24  C   UNL     1      -2.934  -5.626   1.024  0.00  0.00    +0.000 A 
ATOM     25  C   UNL     1      -1.858  -5.696   0.157  0.00  0.00    +0.001 A 
ATOM     26  C   UNL     1      -1.134  -4.560  -0.141  0.00  0.00    +0.010 A 
ENDBRANCH  18  21
ENDBRANCH   1  17
BRANCH   5  27
ATOM     27  C   UNL     1      -2.102   2.412   3.227  0.00  0.00    +0.218 C 
ATOM     28  O   UNL     1      -1.449   2.517   2.211  0.00  0.00    -0.275 OA
ATOM     29  N   UNL     1      -2.075   3.393   4.150  0.00  0.00    -0.312 N 
ATOM     30  H   UNL     1      -2.538   3.278   4.994  0.00  0.00    +0.149 HD
BRANCH  29  31
ATOM     31  C   UNL     1      -1.344   4.634   3.879  0.00  0.00    +0.070 C 
ATOM     32  C   UNL     1       0.138   4.433   4.200  0.00  0.00    +0.028 C 
BRANCH  31  33
ATOM     33  C   UNL     1      -1.907   5.758   4.750  0.00  0.00    +0.022 C 
BRANCH  33  34
ATOM     34  C   UNL     1      -3.354   6.043   4.343  0.00  0.00    +0.005 C 
BRANCH  34  35
ATOM     35  C   UNL     1      -3.918   7.167   5.215  0.00  0.00    +0.034 C 
BRANCH  35  36
ATOM     36  C   UNL     1      -5.365   7.452   4.808  0.00  0.00    +0.061 C 
ATOM     37  C   UNL     1      -5.887   8.657   5.593  0.00  0.00    +0.041 C 
ATOM     38  C   UNL     1      -5.423   7.755   3.310  0.00  0.00    +0.041 C 
BRANCH  36  39
ATOM     39  O   UNL     1      -6.174   6.310   5.095  0.00  0.00    -0.389 OA
ATOM     40  H   UNL     1      -6.184   6.060   6.029  0.00  0.00    +0.210 HD
ENDBRANCH  36  39
ENDBRANCH  35  36
ENDBRANCH  34  35
ENDBRANCH  33  34
ENDBRANCH  31  33
ENDBRANCH  29  31
ENDBRANCH   5  27
TORSDOF 9
