REMARK  Name = ZINC08790240
REMARK  8 active torsions:
REMARK  status: ('A' for Active; 'I' for Inactive)
REMARK    1  A    between atoms: C_1  and  C_2
REMARK    2  A    between atoms: C_16  and  C_18
REMARK    3  A    between atoms: C_18  and  C_19
REMARK    4  A    between atoms: C_19  and  S_20
REMARK    5  A    between atoms: S_20  and  C_21
REMARK    6  A    between atoms: N_24  and  C_27
REMARK    7  A    between atoms: C_27  and  C_28
REMARK    8  A    between atoms: C_28  and  C_29
REMARK                            x       y       z     vdW  Elec       q    Type
REMARK                         _______ _______ _______ _____ _____    ______ ____
ROOT
ATOM      1  C   UNL     1       3.863   4.647   4.104  0.00  0.00    +0.047 C 
ATOM      2  C   UNL     1       2.878   3.588   3.679  0.00  0.00    -0.011 A 
ATOM      3  C   UNL     1       1.615   3.560   4.238  0.00  0.00    +0.046 A 
ATOM      4  C   UNL     1       0.704   2.592   3.853  0.00  0.00    +0.020 A 
ATOM      5  C   UNL     1       1.060   1.649   2.905  0.00  0.00    +0.006 A 
ATOM      6  C   UNL     1       2.317   1.675   2.346  0.00  0.00    -0.027 A 
ATOM      7  C   UNL     1       3.243   2.643   2.725  0.00  0.00    +0.040 A 
ATOM      8  N   UNL     1       4.439   2.468   2.025  0.00  0.00    -0.286 N 
ATOM      9  C   UNL     1       4.384   1.422   1.179  0.00  0.00    +0.211 C 
ATOM     10  O   UNL     1       5.270   1.036   0.446  0.00  0.00    -0.277 OA
ATOM     11  C   UNL     1       3.010   0.825   1.319  0.00  0.00    +0.050 C 
ATOM     12  C   UNL     1       2.257   0.832  -0.017  0.00  0.00    +0.088 C 
ATOM     13  C   UNL     1       1.435  -0.487  -0.011  0.00  0.00    +0.073 C 
ATOM     14  C   UNL     1       1.758  -1.148   1.346  0.00  0.00    -0.057 C 
ATOM     15  C   UNL     1       0.002  -0.004   0.002  0.00  0.00    +0.224 C 
ATOM     16  O   UNL     1      -0.978  -0.718   0.006  0.00  0.00    -0.275 OA
ATOM     17  N   UNL     1      -0.016   1.334   0.009  0.00  0.00    -0.241 N 
ATOM     18  C   UNL     1       1.193   1.906   0.001  0.00  0.00    +0.225 C 
ATOM     19  O   UNL     1       1.404   3.100   0.007  0.00  0.00    -0.275 OA
ATOM     20 CL   UNL     1       1.169   4.742   5.428  0.00  0.00    -0.083 Cl
ATOM     21  H   UNL     1       5.219   3.034   2.136  0.00  0.00    +0.155 HD
ATOM     22  N   UNL     1       3.050  -0.570   1.723  0.00  0.00    +0.394 N 
ATOM     23  H   UNL     1       3.188  -0.641   2.738  0.00  0.00    -0.083 HD
ATOM     24  H   UNL     1       3.812  -1.058   1.238  0.00  0.00    -0.083 HD
ENDROOT
BRANCH  14  25
ATOM     25  C   UNL     1       1.851  -2.667   1.190  0.00  0.00    -0.004 C 
BRANCH  25  26
ATOM     26  C   UNL     1       2.047  -3.310   2.565  0.00  0.00    +0.067 C 
BRANCH  26  27
ATOM     27  S   UNL     1       2.157  -5.111   2.379  0.00  0.00    -0.164 S 
ATOM     28  C   UNL     1       2.385  -5.714   4.075  0.00  0.00    +0.084 C 
ENDBRANCH  26  27
ENDBRANCH  25  26
ENDBRANCH  14  25
BRANCH  17  29
ATOM     29  C   UNL     1      -1.259   2.109   0.020  0.00  0.00    +0.121 C 
BRANCH  29  30
ATOM     30  C   UNL     1      -1.684   2.372   1.466  0.00  0.00    +0.054 C 
BRANCH  30  31
ATOM     31  C   UNL     1      -2.963   3.169   1.476  0.00  0.00    -0.046 A 
ATOM     32  C   UNL     1      -2.916   4.551   1.489  0.00  0.00    +0.004 A 
ATOM     33  C   UNL     1      -4.088   5.282   1.494  0.00  0.00    +0.000 A 
ATOM     34  C   UNL     1      -5.309   4.633   1.496  0.00  0.00    +0.000 A 
ATOM     35  C   UNL     1      -5.356   3.251   1.489  0.00  0.00    +0.000 A 
ATOM     36  C   UNL     1      -4.183   2.519   1.479  0.00  0.00    +0.004 A 
ENDBRANCH  30  31
ENDBRANCH  29  30
ENDBRANCH  17  29
TORSDOF 6
