REMARK  Name = ZINC15946533
REMARK  10 active torsions:
REMARK  status: ('A' for Active; 'I' for Inactive)
REMARK    1  A    between atoms: C_1  and  C_2
REMARK    2  A    between atoms: C_2  and  C_3
REMARK    3  A    between atoms: C_2  and  C_4
REMARK    4  A    between atoms: C_2  and  N_51
REMARK    5  A    between atoms: C_4  and  O_5
REMARK    6  A    between atoms: C_6  and  C_7
REMARK    7  A    between atoms: C_6  and  N_51
REMARK    8  A    between atoms: N_9  and  C_10
REMARK    9  A    between atoms: C_11  and  C_18
REMARK   10  A    between atoms: N_20  and  C_21
REMARK                            x       y       z     vdW  Elec       q    Type
REMARK                         _______ _______ _______ _____ _____    ______ ____
ROOT
ATOM      1  C   UNL     1      -0.014   1.395   0.003  0.00  0.00    +0.084 A 
ATOM      2  C   UNL     1      -1.115   2.234   0.018  0.00  0.00    +0.069 A 
ATOM      3  C   UNL     1      -0.868   3.675   0.035  0.00  0.00    -0.023 A 
ATOM      4  C   UNL     1       0.429   4.032   0.025  0.00  0.00    -0.004 A 
ATOM      5  S   UNL     1       1.321   2.497  -0.001  0.00  0.00    -0.077 S 
ATOM      6  C   UNL     1       0.603   5.527   0.041  0.00  0.00    +0.043 C 
ATOM      7  C   UNL     1      -0.767   6.073   0.500  0.00  0.00    +0.010 C 
ATOM      8  C   UNL     1      -1.720   4.945   0.056  0.00  0.00    +0.037 C 
ENDROOT
BRANCH   1  11
ATOM      9  C   UNL     1       1.193  -0.642  -0.030  0.00  0.00    +0.201 C 
ATOM     10  O   UNL     1       2.231  -0.016  -0.035  0.00  0.00    -0.278 OA
ATOM     11  N   UNL     1       0.013   0.009  -0.011  0.00  0.00    -0.281 N 
ATOM     12  H   UNL     1      -0.818  -0.492  -0.006  0.00  0.00    +0.155 HD
BRANCH   9  13
ATOM     13  C   UNL     1       1.222  -2.149  -0.046  0.00  0.00    +0.016 C 
BRANCH  13  14
ATOM     14  N   UNL     1       2.624  -2.605  -0.066  0.00  0.00    +0.390 N 
ATOM     15  H   UNL     1       3.088  -2.239  -0.906  0.00  0.00    -0.084 HD
ATOM     16  H   UNL     1       3.106  -2.256   0.771  0.00  0.00    -0.084 HD
BRANCH  14  18
ATOM     17  C   UNL     1       2.000  -4.634   1.170  0.00  0.00    -0.008 C 
ATOM     18  C   UNL     1       2.683  -4.079  -0.081  0.00  0.00    -0.050 C 
ATOM     19  C   UNL     1       1.973  -4.609  -1.328  0.00  0.00    -0.008 C 
BRANCH  18  20
ATOM     20  C   UNL     1       4.148  -4.522  -0.102  0.00  0.00    +0.143 C 
BRANCH  20  21
ATOM     21  O   UNL     1       4.213  -5.949  -0.117  0.00  0.00    -0.396 OA
ATOM     22  H   UNL     1       5.114  -6.301  -0.130  0.00  0.00    +0.209 HD
ENDBRANCH  20  21
ENDBRANCH  18  20
ENDBRANCH  14  18
ENDBRANCH  13  14
ENDBRANCH   9  13
ENDBRANCH   1  11
BRANCH   2  23
ATOM     23  C   UNL     1      -2.479   1.697   0.021  0.00  0.00    +0.251 C 
ATOM     24  O   UNL     1      -3.039   1.465   1.077  0.00  0.00    -0.270 OA
ATOM     25  N   UNL     1      -3.113   1.462  -1.144  0.00  0.00    -0.281 N 
ATOM     26  H   UNL     1      -2.694   1.709  -1.983  0.00  0.00    +0.155 HD
BRANCH  25  27
ATOM     27  C   UNL     1      -4.376   0.860  -1.144  0.00  0.00    +0.034 A 
ATOM     28  C   UNL     1      -4.731  -0.013  -2.165  0.00  0.00    +0.024 A 
ATOM     29  C   UNL     1      -5.977  -0.610  -2.159  0.00  0.00    +0.017 A 
ATOM     30  C   UNL     1      -6.875  -0.330  -1.144  0.00  0.00    +0.018 A 
ATOM     31  C   UNL     1      -6.526   0.543  -0.129  0.00  0.00    +0.017 A 
ATOM     32  C   UNL     1      -5.280   1.138  -0.127  0.00  0.00    +0.024 A 
ATOM     33 BR   UNL     1      -8.582  -1.144  -1.144  0.00  0.00    -0.050 Br
ENDBRANCH  25  27
ENDBRANCH   2  23
TORSDOF 8
