REMARK  Name = ZINC06638121
REMARK  9 active torsions:
REMARK  status: ('A' for Active; 'I' for Inactive)
REMARK    1  A    between atoms: C_3  and  O_9
REMARK    2  A    between atoms: O_9  and  C_10
REMARK    3  A    between atoms: C_10  and  C_11
REMARK    4  A    between atoms: C_11  and  C_13
REMARK    5  A    between atoms: C_11  and  O_26
REMARK    6  A    between atoms: C_13  and  N_54
REMARK    7  A    between atoms: C_14  and  C_15
REMARK    8  A    between atoms: C_14  and  N_54
REMARK    9  A    between atoms: C_15  and  C_16
REMARK                            x       y       z     vdW  Elec       q    Type
REMARK                         _______ _______ _______ _____ _____    ______ ____
ROOT
ATOM      1  N   UNL     1      -6.438   1.006   1.310  0.00  0.00    +0.381 N 
ATOM      2  H   UNL     1      -6.928   1.346   0.475  0.00  0.00    -0.086 HD
ATOM      3  H   UNL     1      -6.417  -0.021   1.301  0.00  0.00    -0.086 HD
ENDROOT
BRANCH   1   4
ATOM      4  C   UNL     1      -7.154   1.467   2.515  0.00  0.00    -0.048 C 
BRANCH   4   5
ATOM      5  C   UNL     1      -8.582   0.918   2.491  0.00  0.00    +0.135 C 
BRANCH   5   6
ATOM      6  O   UNL     1      -8.547  -0.507   2.589  0.00  0.00    -0.390 OA
ATOM      7  H   UNL     1      -8.129  -0.835   3.397  0.00  0.00    +0.210 HD
ENDBRANCH   5   6
BRANCH   5   8
ATOM      8  C   UNL     1      -9.369   1.492   3.671  0.00  0.00    +0.258 C 
BRANCH   8   9
ATOM      9  O   UNL     1     -10.732   1.073   3.583  0.00  0.00    -0.488 OA
BRANCH   9  12
ATOM     10  C   UNL     1     -11.953   2.736   6.580  0.00  0.00    +0.023 A 
ATOM     11  C   UNL     1     -11.096   2.304   5.586  0.00  0.00    +0.048 A 
ATOM     12  C   UNL     1     -11.573   1.499   4.562  0.00  0.00    +0.139 A 
ATOM     13  C   UNL     1     -12.913   1.135   4.535  0.00  0.00    +0.084 A 
ATOM     14  C   UNL     1     -13.765   1.565   5.535  0.00  0.00    +0.043 A 
ATOM     15  C   UNL     1     -13.286   2.368   6.555  0.00  0.00    +0.043 A 
ATOM     16 CL   UNL     1     -14.359   2.913   7.806  0.00  0.00    -0.083 Cl
ATOM     17 CL   UNL     1     -13.515   0.134   3.251  0.00  0.00    -0.080 Cl
ENDBRANCH   9  12
ENDBRANCH   8   9
ENDBRANCH   5   8
ENDBRANCH   4   5
ENDBRANCH   1   4
BRANCH   1  18
ATOM     18  C   UNL     1      -5.056   1.520   1.308  0.00  0.00    -0.082 C 
BRANCH  18  19
ATOM     19  C   UNL     1      -4.340   1.027   0.049  0.00  0.00    -0.012 C 
BRANCH  19  20
ATOM     20  C   UNL     1      -2.904   1.556   0.038  0.00  0.00    -0.030 C 
ATOM     21  C   UNL     1      -2.188   1.063  -1.221  0.00  0.00    +0.010 C 
ATOM     22  C   UNL     1      -0.753   1.593  -1.232  0.00  0.00    -0.010 C 
ATOM     23  C   UNL     1      -0.013   1.086   0.008  0.00  0.00    +0.007 C 
ATOM     24  C   UNL     1      -0.729   1.579   1.267  0.00  0.00    -0.010 C 
ATOM     25  C   UNL     1      -2.164   1.050   1.278  0.00  0.00    +0.010 C 
ATOM     26  C   UNL     1      -0.750   3.109   1.275  0.00  0.00    +0.007 C 
ATOM     27  C   UNL     1      -1.490   3.616   0.036  0.00  0.00    -0.010 C 
ATOM     28  C   UNL     1      -0.773   3.123  -1.223  0.00  0.00    +0.007 C 
ATOM     29  C   UNL     1      -2.925   3.086   0.047  0.00  0.00    +0.010 C 
ENDBRANCH  19  20
ENDBRANCH  18  19
ENDBRANCH   1  18
TORSDOF 9
