REMARK  Name = ZINC09730368
REMARK  8 active torsions:
REMARK  status: ('A' for Active; 'I' for Inactive)
REMARK    1  A    between atoms: C_3  and  C_6
REMARK    2  A    between atoms: C_13  and  C_14
REMARK    3  A    between atoms: C_13  and  N_53
REMARK    4  A    between atoms: N_16  and  C_17
REMARK    5  A    between atoms: C_17  and  C_18
REMARK    6  A    between atoms: C_18  and  C_19
REMARK    7  A    between atoms: C_22  and  S_25
REMARK    8  A    between atoms: S_25  and  N_28
REMARK                            x       y       z     vdW  Elec       q    Type
REMARK                         _______ _______ _______ _____ _____    ______ ____
ROOT
ATOM      1  C   UNL     1      -6.221  -0.477   2.154  0.00  0.00    +0.196 C 
ATOM      2  O   UNL     1      -5.795  -1.128   1.223  0.00  0.00    -0.278 OA
ATOM      3  N   UNL     1      -7.122  -1.017   2.999  0.00  0.00    -0.317 N 
ATOM      4  H   UNL     1      -7.462  -0.497   3.743  0.00  0.00    +0.149 HD
ENDROOT
BRANCH   1   5
ATOM      5  C   UNL     1      -5.741   0.936   2.367  0.00  0.00    +0.019 C 
BRANCH   5  13
ATOM      6  C   UNL     1      -1.173   2.688   0.022  0.00  0.00    +0.253 C 
ATOM      7  O   UNL     1      -0.219   1.935  -0.045  0.00  0.00    -0.269 OA
ATOM      8  N   UNL     1      -2.420   2.189   0.128  0.00  0.00    -0.301 N 
ATOM      9  C   UNL     1      -2.646   0.739   0.228  0.00  0.00    +0.089 C 
ATOM     10  C   UNL     1      -3.552   0.475   1.441  0.00  0.00    -0.059 C 
ATOM     11  C   UNL     1      -4.460   2.722   1.352  0.00  0.00    -0.059 C 
ATOM     12  C   UNL     1      -3.591   3.078   0.141  0.00  0.00    +0.089 C 
ATOM     13  N   UNL     1      -4.784   1.280   1.295  0.00  0.00    +0.387 N 
ATOM     14  H   UNL     1      -5.213   1.071   0.386  0.00  0.00    -0.081 HD
BRANCH   6  17
ATOM     15  C   UNL     1       0.026   6.245   0.340  0.00  0.00    +0.008 A 
ATOM     16  C   UNL     1       0.083   4.883   0.508  0.00  0.00    +0.021 A 
ATOM     17  C   UNL     1      -0.964   4.139  -0.011  0.00  0.00    +0.074 A 
ATOM     18  S   UNL     1      -1.997   5.407  -0.725  0.00  0.00    -0.092 S 
ATOM     19  C   UNL     1      -1.032   6.788  -0.316  0.00  0.00    +0.046 A 
ENDBRANCH   6  17
ENDBRANCH   5  13
ENDBRANCH   1   5
BRANCH   3  20
ATOM     20  C   UNL     1      -7.588  -2.391   2.792  0.00  0.00    +0.109 C 
BRANCH  20  21
ATOM     21  C   UNL     1      -8.598  -2.756   3.881  0.00  0.00    +0.054 C 
BRANCH  21  22
ATOM     22  C   UNL     1      -9.078  -4.169   3.668  0.00  0.00    -0.046 A 
ATOM     23  C   UNL     1     -10.191  -4.410   2.885  0.00  0.00    +0.005 A 
ATOM     24  C   UNL     1     -10.628  -5.707   2.686  0.00  0.00    +0.029 A 
ATOM     25  C   UNL     1      -9.957  -6.761   3.277  0.00  0.00    +0.105 A 
ATOM     26  C   UNL     1      -8.847  -6.519   4.065  0.00  0.00    +0.029 A 
ATOM     27  C   UNL     1      -8.408  -5.223   4.260  0.00  0.00    +0.005 A 
BRANCH  25  28
ATOM     28  S   UNL     1     -10.517  -8.412   3.028  0.00  0.00    +0.056 S 
ATOM     29  O   UNL     1     -11.248  -8.414   1.809  0.00  0.00    -0.153 OA
ATOM     30  O   UNL     1      -9.396  -9.258   3.244  0.00  0.00    -0.153 OA
BRANCH  28  31
ATOM     31  N   UNL     1     -11.603  -8.749   4.232  0.00  0.00    -0.204 NA
ATOM     32  H   UNL     1     -11.812  -8.076   4.898  0.00  0.00    +0.144 HD
ATOM     33  H   UNL     1     -12.029  -9.619   4.271  0.00  0.00    +0.144 HD
ENDBRANCH  28  31
ENDBRANCH  25  28
ENDBRANCH  21  22
ENDBRANCH  20  21
ENDBRANCH   3  20
TORSDOF 8
