REMARK  Name = ZINC64041619
REMARK  11 active torsions:
REMARK  status: ('A' for Active; 'I' for Inactive)
REMARK    1  A    between atoms: C_1  and  C_2
REMARK    2  A    between atoms: C_2  and  C_4
REMARK    3  A    between atoms: C_2  and  N_7
REMARK    4  A    between atoms: C_4  and  O_5
REMARK    5  A    between atoms: O_5  and  C_6
REMARK    6  A    between atoms: N_7  and  C_8
REMARK    7  A    between atoms: C_8  and  N_10
REMARK    8  A    between atoms: N_10  and  C_11
REMARK    9  A    between atoms: C_11  and  C_12
REMARK   10  A    between atoms: C_12  and  C_14
REMARK   11  A    between atoms: C_12  and  C_21
REMARK                            x       y       z     vdW  Elec       q    Type
REMARK                         _______ _______ _______ _____ _____    ______ ____
ROOT
ATOM      1  C   UNL     1      -5.453  -1.797  -2.104  0.00  0.00    +0.066 C 
ENDROOT
BRANCH   1   2
ATOM      2  C   UNL     1      -6.168  -2.060  -3.404  0.00  0.00    -0.033 C 
ATOM      3  C   UNL     1      -6.654  -3.245  -3.840  0.00  0.00    -0.000 A 
ATOM      4  C   UNL     1      -6.662  -4.591  -3.256  0.00  0.00    +0.010 A 
ATOM      5  C   UNL     1      -7.238  -5.602  -3.946  0.00  0.00    +0.001 A 
ATOM      6  C   UNL     1      -7.825  -5.396  -5.202  0.00  0.00    +0.002 A 
ATOM      7  C   UNL     1      -7.857  -4.188  -5.803  0.00  0.00    +0.026 A 
ATOM      8  C   UNL     1      -7.281  -3.054  -5.167  0.00  0.00    +0.043 A 
ATOM      9  N   UNL     1      -7.186  -1.800  -5.538  0.00  0.00    -0.380 N 
ATOM     10  C   UNL     1      -6.492  -1.052  -4.483  0.00  0.00    +0.145 C 
ATOM     11  H   UNL     1      -7.522  -1.428  -6.369  0.00  0.00    +0.160 HD
ENDBRANCH   1   2
BRANCH   1  12
ATOM     12  C   UNL     1      -6.229  -0.787  -1.299  0.00  0.00    -0.020 A 
ATOM     13  C   UNL     1      -6.466   0.473  -1.816  0.00  0.00    +0.006 A 
ATOM     14  C   UNL     1      -7.178   1.400  -1.078  0.00  0.00    +0.000 A 
ATOM     15  C   UNL     1      -7.654   1.068   0.177  0.00  0.00    +0.001 A 
ATOM     16  C   UNL     1      -7.417  -0.192   0.695  0.00  0.00    +0.020 A 
ATOM     17  C   UNL     1      -6.709  -1.122  -0.046  0.00  0.00    +0.045 A 
ATOM     18 CL   UNL     1      -6.417  -2.706   0.601  0.00  0.00    -0.083 Cl
ENDBRANCH   1  12
BRANCH   1  19
ATOM     19  C   UNL     1      -4.053  -1.252  -2.393  0.00  0.00    +0.115 C 
BRANCH  19  20
ATOM     20  N   UNL     1      -3.315  -1.109  -1.135  0.00  0.00    -0.326 N 
ATOM     21  H   UNL     1      -3.737  -1.350  -0.295  0.00  0.00    +0.148 HD
BRANCH  20  22
ATOM     22  C   UNL     1      -2.051  -0.643  -1.145  0.00  0.00    +0.131 C 
ATOM     23  S   UNL     1      -1.307  -0.217  -2.627  0.00  0.00    -0.019 S 
BRANCH  22  24
ATOM     24  N   UNL     1      -1.372  -0.511   0.012  0.00  0.00    -0.322 N 
ATOM     25  H   UNL     1      -1.794  -0.752   0.852  0.00  0.00    +0.148 HD
BRANCH  24  27
ATOM     26  C   UNL     1      -0.019   1.526   0.010  0.00  0.00    +0.030 C 
ATOM     27  C   UNL     1       0.002  -0.004   0.002  0.00  0.00    +0.094 C 
BRANCH  27  28
ATOM     28  C   UNL     1       0.742  -0.511   1.242  0.00  0.00    +0.181 C 
BRANCH  28  29
ATOM     29  O   UNL     1       0.143   0.044   2.414  0.00  0.00    -0.381 OA
ATOM     30  C   UNL     1       0.763  -0.368   3.634  0.00  0.00    +0.194 C 
ENDBRANCH  28  29
ENDBRANCH  27  28
ENDBRANCH  24  27
ENDBRANCH  22  24
ENDBRANCH  20  22
ENDBRANCH  19  20
ENDBRANCH   1  19
TORSDOF 9
