REMARK  Name = ZINC43252782
REMARK  9 active torsions:
REMARK  status: ('A' for Active; 'I' for Inactive)
REMARK    1  A    between atoms: C_1  and  C_2
REMARK    2  A    between atoms: C_2  and  C_3
REMARK    3  A    between atoms: C_3  and  C_5
REMARK    4  A    between atoms: C_3  and  N_24
REMARK    5  A    between atoms: C_5  and  C_7
REMARK    6  A    between atoms: C_5  and  N_13
REMARK    7  A    between atoms: C_17  and  C_19
REMARK    8  A    between atoms: N_21  and  C_22
REMARK    9  A    between atoms: N_21  and  C_23
REMARK                            x       y       z     vdW  Elec       q    Type
REMARK                         _______ _______ _______ _____ _____    ______ ____
ROOT
ATOM      1  C   UNL     1      -1.103  -2.682  -0.780  0.00  0.00    -0.013 C 
ENDROOT
BRANCH   1   2
ATOM      2  C   UNL     1      -2.529  -3.158  -0.673  0.00  0.00    -0.021 A 
ATOM      3  C   UNL     1      -3.250  -3.897  -1.550  0.00  0.00    +0.011 A 
ATOM      4  C   UNL     1      -4.558  -4.220  -1.240  0.00  0.00    +0.028 A 
ATOM      5  C   UNL     1      -5.081  -3.786  -0.065  0.00  0.00    +0.078 A 
ATOM      6  S   UNL     1      -3.704  -2.900   0.646  0.00  0.00    -0.083 S 
ATOM      7 CL   UNL     1      -6.673  -4.034   0.581  0.00  0.00    -0.076 Cl
ENDBRANCH   1   2
BRANCH   1   8
ATOM      8  N   UNL     1      -0.463  -2.751   0.541  0.00  0.00    +0.393 N 
ATOM      9  C   UNL     1       0.948  -2.323   0.433  0.00  0.00    -0.077 C 
ATOM     10  C   UNL     1       1.713  -3.228   1.431  0.00  0.00    -0.020 C 
ATOM     11  C   UNL     1       0.965  -4.577   1.267  0.00  0.00    -0.008 C 
ATOM     12  C   UNL     1      -0.496  -4.139   1.036  0.00  0.00    +0.020 C 
ATOM     13  H   UNL     1      -0.951  -2.148   1.187  0.00  0.00    -0.080 HD
BRANCH  12  14
ATOM     14  C   UNL     1      -1.144  -5.034   0.011  0.00  0.00    +0.202 C 
ATOM     15  O   UNL     1      -0.745  -5.032  -1.134  0.00  0.00    -0.277 OA
ATOM     16  N   UNL     1      -2.167  -5.837   0.367  0.00  0.00    -0.309 N 
ATOM     17  C   UNL     1      -2.741  -6.767  -0.608  0.00  0.00    +0.131 C 
ATOM     18  C   UNL     1      -2.703  -5.779   1.729  0.00  0.00    +0.131 C 
ENDBRANCH  12  14
ENDBRANCH   1   8
BRANCH   1  19
ATOM     19  C   UNL     1      -1.084  -1.237  -1.281  0.00  0.00    +0.042 C 
BRANCH  19  20
ATOM     20  N   UNL     1      -1.915  -1.125  -2.487  0.00  0.00    -0.328 NA
ATOM     21  H   UNL     1      -1.570  -1.727  -3.221  0.00  0.00    +0.118 HD
ATOM     22  H   UNL     1      -2.882  -1.326  -2.280  0.00  0.00    +0.118 HD
ENDBRANCH  19  20
BRANCH  19  24
ATOM     23  C   UNL     1       0.358   0.566  -2.236  0.00  0.00    +0.005 C 
ATOM     24  C   UNL     1       0.354  -0.831  -1.613  0.00  0.00    +0.014 C 
ENDBRANCH  19  24
ENDBRANCH   1  19
TORSDOF 6
