REMARK  Name = ZINC45416019
REMARK  10 active torsions:
REMARK  status: ('A' for Active; 'I' for Inactive)
REMARK    1  A    between atoms: C_1  and  C_2
REMARK    2  A    between atoms: C_2  and  C_4
REMARK    3  A    between atoms: C_2  and  N_14
REMARK    4  A    between atoms: C_7  and  S_10
REMARK    5  A    between atoms: S_10  and  N_13
REMARK    6  A    between atoms: N_14  and  C_15
REMARK    7  A    between atoms: N_14  and  C_16
REMARK    8  A    between atoms: C_16  and  C_17
REMARK    9  A    between atoms: C_17  and  C_19
REMARK   10  A    between atoms: C_28  and  C_29
REMARK                            x       y       z     vdW  Elec       q    Type
REMARK                         _______ _______ _______ _____ _____    ______ ____
ROOT
ATOM      1  C   UNL     1       2.068   0.031  -1.217  0.00  0.00    +0.003 C 
ENDROOT
BRANCH   1   2
ATOM      2  N   UNL     1       0.690  -0.478  -1.207  0.00  0.00    +0.387 N 
ATOM      3  C   UNL     1       0.710  -1.947  -1.215  0.00  0.00    -0.095 C 
ATOM      4  H   UNL     1       0.202  -0.144  -2.024  0.00  0.00    -0.081 HD
BRANCH   2   6
ATOM      5  C   UNL     1      -0.019   1.526   0.010  0.00  0.00    -0.008 C 
ATOM      6  C   UNL     1       0.002  -0.004   0.002  0.00  0.00    -0.041 C 
BRANCH   6   7
ATOM      7  C   UNL     1      -1.412  -0.526   0.013  0.00  0.00    -0.061 A 
ATOM      8  C   UNL     1      -2.141  -0.569  -1.161  0.00  0.00    +0.004 A 
ATOM      9  C   UNL     1      -3.438  -1.047  -1.151  0.00  0.00    +0.029 A 
ATOM     10  C   UNL     1      -4.005  -1.483   0.032  0.00  0.00    +0.105 A 
ATOM     11  C   UNL     1      -3.275  -1.441   1.205  0.00  0.00    +0.029 A 
ATOM     12  C   UNL     1      -1.977  -0.966   1.195  0.00  0.00    +0.004 A 
BRANCH  10  13
ATOM     13  S   UNL     1      -5.659  -2.092   0.045  0.00  0.00    +0.056 S 
ATOM     14  O   UNL     1      -6.142  -1.928   1.371  0.00  0.00    -0.153 OA
ATOM     15  O   UNL     1      -6.311  -1.518  -1.080  0.00  0.00    -0.153 OA
BRANCH  13  16
ATOM     16  N   UNL     1      -5.582  -3.723  -0.233  0.00  0.00    -0.204 NA
ATOM     17  H   UNL     1      -6.256  -4.311   0.142  0.00  0.00    +0.144 HD
ATOM     18  H   UNL     1      -4.863  -4.090  -0.771  0.00  0.00    +0.144 HD
ENDBRANCH  13  16
ENDBRANCH  10  13
ENDBRANCH   6   7
ENDBRANCH   2   6
ENDBRANCH   1   2
BRANCH   1  19
ATOM     19  C   UNL     1       2.735  -0.352  -2.513  0.00  0.00    +0.150 C 
ATOM     20  O   UNL     1       2.121  -0.987  -3.348  0.00  0.00    -0.294 OA
BRANCH  19  21
ATOM     21  C   UNL     1       4.073   0.028  -2.758  0.00  0.00    +0.048 A 
ATOM     22  C   UNL     1       4.958   0.789  -1.856  0.00  0.00    +0.011 A 
ATOM     23  C   UNL     1       4.794   1.338  -0.586  0.00  0.00    +0.011 A 
ATOM     24  C   UNL     1       5.840   2.011   0.007  0.00  0.00    +0.001 A 
ATOM     25  C   UNL     1       7.052   2.143  -0.656  0.00  0.00    +0.002 A 
ATOM     26  C   UNL     1       7.227   1.605  -1.912  0.00  0.00    +0.026 A 
ATOM     27  C   UNL     1       6.183   0.921  -2.528  0.00  0.00    +0.048 A 
ATOM     28  N   UNL     1       6.069   0.291  -3.751  0.00  0.00    -0.354 N 
ATOM     29  H   UNL     1       6.776   0.235  -4.413  0.00  0.00    +0.166 HD
ATOM     30  C   UNL     1       4.826  -0.246  -3.898  0.00  0.00    +0.058 A 
BRANCH  30  31
ATOM     31  C   UNL     1       4.352  -0.997  -5.076  0.00  0.00    -0.001 A 
ATOM     32  C   UNL     1       3.630  -2.182  -4.910  0.00  0.00    +0.010 A 
ATOM     33  C   UNL     1       3.190  -2.878  -6.017  0.00  0.00    +0.001 A 
ATOM     34  C   UNL     1       3.462  -2.405  -7.289  0.00  0.00    +0.000 A 
ATOM     35  C   UNL     1       4.176  -1.232  -7.461  0.00  0.00    +0.001 A 
ATOM     36  C   UNL     1       4.617  -0.522  -6.364  0.00  0.00    +0.010 A 
ENDBRANCH  30  31
ENDBRANCH  19  21
ENDBRANCH   1  19
TORSDOF 8
