REMARK  Name = ZINC05267926
REMARK  8 active torsions:
REMARK  status: ('A' for Active; 'I' for Inactive)
REMARK    1  A    between atoms: C_1  and  C_2
REMARK    2  A    between atoms: C_2  and  N_51
REMARK    3  A    between atoms: C_8  and  N_13
REMARK    4  A    between atoms: C_9  and  C_10
REMARK    5  A    between atoms: C_14  and  C_16
REMARK    6  A    between atoms: C_16  and  C_17
REMARK    7  A    between atoms: C_20  and  C_24
REMARK    8  A    between atoms: C_22  and  C_23
REMARK                            x       y       z     vdW  Elec       q    Type
REMARK                         _______ _______ _______ _____ _____    ______ ____
ROOT
ATOM      1  C   UNL     1      -3.906   6.423   5.903  0.00  0.00    -0.074 C 
ATOM      2  C   UNL     1      -2.810   6.626   4.852  0.00  0.00    +0.018 C 
ATOM      3  C   UNL     1      -2.460   5.265   4.262  0.00  0.00    -0.027 A 
ATOM      4  C   UNL     1      -2.814   4.133   4.912  0.00  0.00    -0.021 A 
ATOM      5  S   UNL     1      -2.220   2.820   3.886  0.00  0.00    -0.079 S 
ATOM      6  C   UNL     1      -1.512   3.758   2.613  0.00  0.00    +0.084 A 
ATOM      7  C   UNL     1      -1.746   5.066   3.015  0.00  0.00    +0.068 A 
ATOM      8  C   UNL     1      -3.546   4.047   6.214  0.00  0.00    -0.035 C 
ATOM      9  N   UNL     1      -3.480   5.381   6.860  0.00  0.00    +0.383 N 
ATOM     10  H   UNL     1      -2.512   5.566   7.146  0.00  0.00    -0.081 HD
ENDROOT
BRANCH   7  11
ATOM     11  C   UNL     1      -1.294   6.204   2.208  0.00  0.00    +0.244 C 
ATOM     12  O   UNL     1      -2.023   6.672   1.353  0.00  0.00    -0.270 OA
ATOM     13  N   UNL     1      -0.070   6.731   2.413  0.00  0.00    -0.325 N 
ATOM     14  H   UNL     1       0.511   6.358   3.094  0.00  0.00    +0.145 HD
ATOM     15  H   UNL     1       0.229   7.483   1.879  0.00  0.00    +0.145 HD
ENDBRANCH   7  11
BRANCH   6  16
ATOM     16  N   UNL     1      -0.863   3.311   1.472  0.00  0.00    -0.279 N 
ATOM     17  C   UNL     1      -0.724   1.989   1.250  0.00  0.00    +0.222 C 
ATOM     18  O   UNL     1      -1.166   1.190   2.049  0.00  0.00    -0.275 OA
ATOM     19  H   UNL     1      -0.509   3.950   0.833  0.00  0.00    +0.155 HD
BRANCH  17  20
ATOM     20  C   UNL     1      -0.018   1.503   0.010  0.00  0.00    +0.131 C 
BRANCH  20  21
ATOM     21  C   UNL     1       0.002  -0.004   0.002  0.00  0.00    -0.036 A 
ATOM     22  C   UNL     1       1.101  -0.683   0.494  0.00  0.00    +0.004 A 
ATOM     23  C   UNL     1       1.120  -2.065   0.487  0.00  0.00    +0.003 A 
ATOM     24  C   UNL     1       0.039  -2.768  -0.012  0.00  0.00    -0.050 A 
ATOM     25  C   UNL     1      -1.060  -2.090  -0.504  0.00  0.00    +0.007 A 
ATOM     26  C   UNL     1      -1.080  -0.707  -0.492  0.00  0.00    -0.047 A 
ATOM     27  C   UNL     1      -2.281   0.033  -1.023  0.00  0.00    +0.044 C 
ATOM     28  C   UNL     1       0.059  -4.275  -0.020  0.00  0.00    +0.044 C 
ENDBRANCH  20  21
ENDBRANCH  17  20
ENDBRANCH   6  16
BRANCH   9  30
ATOM     29  C   UNL     1      -5.816   5.241   7.655  0.00  0.00    -0.017 C 
ATOM     30  C   UNL     1      -4.349   5.408   8.056  0.00  0.00    -0.082 C 
ENDBRANCH   9  30
TORSDOF 5
