REMARK  Name = ZINC40118781
REMARK  11 active torsions:
REMARK  status: ('A' for Active; 'I' for Inactive)
REMARK    1  A    between atoms: C_1  and  C_2
REMARK    2  A    between atoms: C_2  and  C_3
REMARK    3  A    between atoms: C_2  and  C_4
REMARK    4  A    between atoms: C_2  and  C_5
REMARK    5  A    between atoms: C_5  and  C_7
REMARK    6  A    between atoms: C_5  and  N_18
REMARK    7  A    between atoms: C_7  and  N_8
REMARK    8  A    between atoms: N_18  and  S_19
REMARK    9  A    between atoms: S_19  and  C_22
REMARK   10  A    between atoms: C_24  and  C_28
REMARK   11  A    between atoms: N_25  and  C_27
REMARK                            x       y       z     vdW  Elec       q    Type
REMARK                         _______ _______ _______ _____ _____    ______ ____
ROOT
ATOM      1  C   UNL     1       1.957  -0.346  -2.168  0.00  0.00    +0.065 C 
ENDROOT
BRANCH   1   3
ATOM      2  C   UNL     1       2.400   1.488  -0.530  0.00  0.00    +0.012 C 
ATOM      3  C   UNL     1       2.240  -0.024  -0.699  0.00  0.00    -0.022 C 
ATOM      4  C   UNL     1       3.528  -0.725  -0.263  0.00  0.00    +0.012 C 
ATOM      5  C   UNL     1       1.075  -0.514   0.164  0.00  0.00    +0.012 C 
ENDBRANCH   1   3
BRANCH   1   6
ATOM      6  N   UNL     1       1.718  -1.784  -2.316  0.00  0.00    -0.188 NA
ATOM      7  H   UNL     1       2.467  -2.393  -2.410  0.00  0.00    +0.148 HD
BRANCH   6   8
ATOM      8  S   UNL     1       0.169  -2.369  -2.323  0.00  0.00    +0.060 S 
ATOM      9  O   UNL     1       0.267  -3.775  -2.507  0.00  0.00    -0.153 OA
ATOM     10  O   UNL     1      -0.489  -1.791  -1.204  0.00  0.00    -0.153 OA
BRANCH   8  11
ATOM     11  C   UNL     1      -0.624  -1.728  -3.760  0.00  0.00    +0.123 A 
ATOM     12  C   UNL     1      -1.444  -0.596  -3.811  0.00  0.00    +0.061 A 
ATOM     13  C   UNL     1      -1.853  -0.451  -5.120  0.00  0.00    +0.106 A 
ATOM     14  N   UNL     1      -1.290  -1.476  -5.846  0.00  0.00    -0.344 N 
ATOM     15  C   UNL     1      -0.543  -2.239  -5.011  0.00  0.00    +0.114 A 
ATOM     16  C   UNL     1      -1.464  -1.702  -7.283  0.00  0.00    +0.149 C 
BRANCH  13  17
ATOM     17  C   UNL     1      -2.728   0.603  -5.644  0.00  0.00    +0.258 C 
ATOM     18  O   UNL     1      -3.258   1.389  -4.880  0.00  0.00    -0.269 OA
ATOM     19  N   UNL     1      -2.946   0.701  -6.970  0.00  0.00    -0.324 N 
ATOM     20  H   UNL     1      -2.567   0.043  -7.574  0.00  0.00    +0.145 HD
ATOM     21  H   UNL     1      -3.482   1.429  -7.321  0.00  0.00    +0.145 HD
ENDBRANCH  13  17
ENDBRANCH   8  11
ENDBRANCH   6   8
ENDBRANCH   1   6
BRANCH   1  22
ATOM     22  C   UNL     1       3.160   0.061  -3.021  0.00  0.00    -0.057 C 
BRANCH  22  23
ATOM     23  N   UNL     1       2.843  -0.137  -4.441  0.00  0.00    +0.384 N 
ATOM     24  C   UNL     1       4.039   0.132  -5.254  0.00  0.00    -0.074 C 
ATOM     25  C   UNL     1       3.785  -0.369  -6.676  0.00  0.00    +0.017 C 
ATOM     26  C   UNL     1       2.475   0.178  -7.184  0.00  0.00    -0.048 A 
ATOM     27  C   UNL     1       2.220   0.135  -8.545  0.00  0.00    +0.004 A 
ATOM     28  C   UNL     1       1.030   0.624  -9.046  0.00  0.00    +0.000 A 
ATOM     29  C   UNL     1       0.089   1.158  -8.185  0.00  0.00    +0.000 A 
ATOM     30  C   UNL     1       0.343   1.202  -6.829  0.00  0.00    +0.002 A 
ATOM     31  C   UNL     1       1.539   0.713  -6.324  0.00  0.00    -0.061 A 
ATOM     32  C   UNL     1       1.778   0.788  -4.840  0.00  0.00    -0.043 C 
ATOM     33  H   UNL     1       2.539  -1.087  -4.590  0.00  0.00    -0.081 HD
ENDBRANCH  22  23
ENDBRANCH   1  22
TORSDOF 7
