REMARK  Name = ZINC41443525
REMARK  10 active torsions:
REMARK  status: ('A' for Active; 'I' for Inactive)
REMARK    1  A    between atoms: C_1  and  C_2
REMARK    2  A    between atoms: C_2  and  C_4
REMARK    3  A    between atoms: C_2  and  N_10
REMARK    4  A    between atoms: C_4  and  N_5
REMARK    5  A    between atoms: N_13  and  C_14
REMARK    6  A    between atoms: C_14  and  C_15
REMARK    7  A    between atoms: C_15  and  C_17
REMARK    8  A    between atoms: C_15  and  O_25
REMARK    9  A    between atoms: C_22  and  O_23
REMARK   10  A    between atoms: O_23  and  C_24
REMARK                            x       y       z     vdW  Elec       q    Type
REMARK                         _______ _______ _______ _____ _____    ______ ____
ROOT
ATOM      1  N   UNL     1       0.688  -0.476  -1.203  0.00  0.00    -0.295 N 
ATOM      2  C   UNL     1       0.006  -0.608  -2.358  0.00  0.00    +0.300 C 
ATOM      3  O   UNL     1      -1.178  -0.335  -2.400  0.00  0.00    -0.253 OA
ATOM      4  N   UNL     1       0.637  -1.043  -3.467  0.00  0.00    -0.297 N 
ATOM      5  H   UNL     1       1.632  -0.695  -1.170  0.00  0.00    +0.151 HD
ATOM      6  H   UNL     1       1.582  -1.261  -3.434  0.00  0.00    +0.150 HD
ENDROOT
BRANCH   1   8
ATOM      7  C   UNL     1      -0.019   1.526   0.010  0.00  0.00    +0.029 C 
ATOM      8  C   UNL     1       0.002  -0.004   0.002  0.00  0.00    +0.091 C 
BRANCH   8   9
ATOM      9  C   UNL     1       0.742  -0.511   1.242  0.00  0.00    +0.144 C 
BRANCH   9  10
ATOM     10  N   UNL     1       0.659  -1.972   1.296  0.00  0.00    -0.337 N 
ATOM     11  C   UNL     1      -0.320  -2.708   1.907  0.00  0.00    +0.104 A 
ATOM     12  C   UNL     1      -0.010  -4.005   1.716  0.00  0.00    +0.101 A 
ATOM     13  N   UNL     1       1.127  -4.059   1.008  0.00  0.00    -0.352 N 
ATOM     14  C   UNL     1       1.531  -2.846   0.748  0.00  0.00    +0.173 A 
ATOM     15  H   UNL     1       1.577  -4.872   0.729  0.00  0.00    +0.166 HD
ENDBRANCH   9  10
ENDBRANCH   8   9
ENDBRANCH   1   8
BRANCH   4  16
ATOM     16  C   UNL     1      -0.104  -1.186  -4.723  0.00  0.00    +0.142 C 
BRANCH  16  17
ATOM     17  C   UNL     1       0.839  -1.692  -5.817  0.00  0.00    +0.165 C 
BRANCH  17  18
ATOM     18  C   UNL     1       0.109  -1.722  -7.135  0.00  0.00    +0.024 A 
ATOM     19  C   UNL     1      -0.492  -2.889  -7.566  0.00  0.00    +0.010 A 
ATOM     20  C   UNL     1      -1.161  -2.918  -8.775  0.00  0.00    +0.001 A 
ATOM     21  C   UNL     1      -1.232  -1.779  -9.556  0.00  0.00    +0.004 A 
ATOM     22  C   UNL     1      -0.633  -0.609  -9.130  0.00  0.00    +0.046 A 
ATOM     23  C   UNL     1       0.035  -0.577  -7.914  0.00  0.00    +0.126 A 
BRANCH  23  24
ATOM     24  O   UNL     1       0.620   0.574  -7.489  0.00  0.00    -0.495 OA
ATOM     25  C   UNL     1       0.503   1.714  -8.343  0.00  0.00    +0.277 C 
ENDBRANCH  23  24
ENDBRANCH  17  18
BRANCH  17  26
ATOM     26  O   UNL     1       1.286  -3.009  -5.489  0.00  0.00    -0.386 OA
ATOM     27  H   UNL     1       0.572  -3.656  -5.405  0.00  0.00    +0.210 HD
ENDBRANCH  17  26
ENDBRANCH  16  17
ENDBRANCH   4  16
TORSDOF 8
