REMARK  Name = ZINC39702774
REMARK  5 active torsions:
REMARK  status: ('A' for Active; 'I' for Inactive)
REMARK    1  A    between atoms: C_4  and  C_7
REMARK    2  A    between atoms: N_9  and  C_10
REMARK    3  A    between atoms: C_10  and  C_21
REMARK    4  A    between atoms: C_11  and  C_12
REMARK    5  A    between atoms: N_23  and  C_24
REMARK                            x       y       z     vdW  Elec       q    Type
REMARK                         _______ _______ _______ _____ _____    ______ ____
ROOT
ATOM      1  C   UNL     1       4.729  -2.693   0.396  0.00  0.00    +0.097 C 
ATOM      2  C   UNL     1       4.325  -3.894   0.935  0.00  0.00    +0.034 C 
ENDROOT
BRANCH   2   3
ATOM      3  C   UNL     1       3.040  -4.380   0.676  0.00  0.00    -0.017 C 
ATOM      4  C   UNL     1       2.443  -5.516   1.219  0.00  0.00    +0.003 A 
ATOM      5  C   UNL     1       2.896  -6.485   2.141  0.00  0.00    +0.010 A 
ATOM      6  C   UNL     1       2.080  -7.508   2.498  0.00  0.00    +0.001 A 
ATOM      7  C   UNL     1       0.789  -7.634   1.974  0.00  0.00    +0.002 A 
ATOM      8  C   UNL     1       0.288  -6.744   1.085  0.00  0.00    +0.026 A 
ATOM      9  C   UNL     1       1.083  -5.643   0.663  0.00  0.00    +0.043 A 
ATOM     10  N   UNL     1       0.834  -4.660  -0.173  0.00  0.00    -0.380 N 
ATOM     11  C   UNL     1       2.004  -3.780  -0.249  0.00  0.00    +0.149 C 
ATOM     12  H   UNL     1       0.005  -4.535  -0.660  0.00  0.00    +0.160 HD
ENDBRANCH   2   3
BRANCH   1  15
ATOM     13  C   UNL     1       4.050  -1.645  -1.611  0.00  0.00    +0.248 C 
ATOM     14  O   UNL     1       5.074  -2.023  -2.146  0.00  0.00    -0.270 OA
ATOM     15  N   UNL     1       3.830  -1.915  -0.309  0.00  0.00    -0.277 N 
ATOM     16  H   UNL     1       3.041  -1.564   0.133  0.00  0.00    +0.155 HD
BRANCH  13  20
ATOM     17  C   UNL     1       1.164   0.527  -3.846  0.00  0.00    +0.000 A 
ATOM     18  C   UNL     1       2.328   0.098  -4.457  0.00  0.00    +0.001 A 
ATOM     19  C   UNL     1       3.270  -0.608  -3.738  0.00  0.00    +0.013 A 
ATOM     20  C   UNL     1       3.046  -0.889  -2.389  0.00  0.00    +0.037 A 
ATOM     21  C   UNL     1       1.868  -0.454  -1.778  0.00  0.00    +0.013 A 
ATOM     22  C   UNL     1       0.935   0.251  -2.509  0.00  0.00    +0.001 A 
ENDBRANCH  13  20
ENDBRANCH   1  15
BRANCH   1  23
ATOM     23  C   UNL     1       6.122  -2.235   0.572  0.00  0.00    +0.262 C 
ATOM     24  O   UNL     1       6.916  -2.926   1.180  0.00  0.00    -0.268 OA
ATOM     25  N   UNL     1       6.512  -1.052   0.059  0.00  0.00    -0.280 N 
ATOM     26  H   UNL     1       5.858  -0.455  -0.336  0.00  0.00    +0.155 HD
BRANCH  25  27
ATOM     27  C   UNL     1       7.860  -0.685   0.096  0.00  0.00    +0.035 A 
ATOM     28  C   UNL     1       8.849  -1.655  -0.014  0.00  0.00    +0.023 A 
ATOM     29  C   UNL     1      10.180  -1.290   0.022  0.00  0.00    +0.003 A 
ATOM     30  C   UNL     1      10.530   0.040   0.170  0.00  0.00    +0.015 A 
ATOM     31  C   UNL     1       9.548   1.009   0.280  0.00  0.00    +0.020 A 
ATOM     32  C   UNL     1       8.214   0.650   0.238  0.00  0.00    +0.038 A 
ATOM     33 BR   UNL     1      10.033   2.826   0.482  0.00  0.00    -0.050 Br
ENDBRANCH  25  27
ENDBRANCH   1  23
TORSDOF 5
