REMARK  Name = ZINC20896285
REMARK  10 active torsions:
REMARK  status: ('A' for Active; 'I' for Inactive)
REMARK    1  A    between atoms: C_1  and  C_2
REMARK    2  A    between atoms: C_9  and  N_15
REMARK    3  A    between atoms: C_10  and  C_11
REMARK    4  A    between atoms: C_11  and  O_13
REMARK    5  A    between atoms: O_13  and  C_14
REMARK    6  A    between atoms: C_16  and  C_18
REMARK    7  A    between atoms: C_18  and  N_19
REMARK    8  A    between atoms: N_19  and  C_20
REMARK    9  A    between atoms: N_19  and  S_21
REMARK   10  A    between atoms: S_21  and  C_24
REMARK                            x       y       z     vdW  Elec       q    Type
REMARK                         _______ _______ _______ _____ _____    ______ ____
ROOT
ATOM      1  N   UNL     1       2.021  -2.957  -3.806  0.00  0.00    -0.278 N 
ATOM      2  C   UNL     1       2.617  -1.988  -3.084  0.00  0.00    +0.233 C 
ATOM      3  O   UNL     1       2.126  -0.880  -3.033  0.00  0.00    -0.274 OA
ATOM      4  H   UNL     1       2.466  -3.962  -3.853  0.00  0.00    +0.155 HD
ENDROOT
BRANCH   1  12
ATOM      5  C   UNL     1      -4.641  -1.058  -7.438  0.00  0.00    +0.008 C 
ATOM      6  C   UNL     1      -3.592  -1.854  -6.660  0.00  0.00    -0.009 C 
ATOM      7  C   UNL     1      -2.913  -2.859  -7.595  0.00  0.00    +0.008 C 
ATOM      8  C   UNL     1      -2.046  -3.822  -6.782  0.00  0.00    +0.037 C 
ATOM      9  C   UNL     1      -1.114  -3.009  -5.891  0.00  0.00    -0.021 A 
ATOM     10  C   UNL     1      -1.368  -1.711  -5.619  0.00  0.00    -0.004 A 
ATOM     11  S   UNL     1      -0.038  -1.200  -4.569  0.00  0.00    -0.077 S 
ATOM     12  C   UNL     1       0.846  -2.688  -4.490  0.00  0.00    +0.086 A 
ATOM     13  C   UNL     1       0.093  -3.544  -5.284  0.00  0.00    +0.091 A 
ATOM     14  C   UNL     1      -2.527  -0.897  -6.106  0.00  0.00    +0.046 C 
BRANCH  13  15
ATOM     15  C   UNL     1       0.499  -4.935  -5.497  0.00  0.00    +0.342 C 
ATOM     16  O   UNL     1       0.109  -5.805  -4.742  0.00  0.00    -0.245 OA
BRANCH  15  17
ATOM     17  O   UNL     1       1.305  -5.251  -6.531  0.00  0.00    -0.464 OA
ATOM     18  C   UNL     1       1.667  -6.650  -6.682  0.00  0.00    +0.280 C 
ENDBRANCH  15  17
ENDBRANCH  13  15
ENDBRANCH   1  12
BRANCH   2  19
ATOM     19  C   UNL     1       3.895  -2.281  -2.340  0.00  0.00    +0.205 C 
BRANCH  19  20
ATOM     20  N   UNL     1       4.338  -1.074  -1.639  0.00  0.00    -0.171 NA
ATOM     21  C   UNL     1       5.143  -0.071  -2.342  0.00  0.00    +0.132 C 
BRANCH  20  22
ATOM     22  S   UNL     1       3.931  -0.843  -0.050  0.00  0.00    +0.061 S 
ATOM     23  O   UNL     1       4.904   0.039   0.494  0.00  0.00    -0.153 OA
ATOM     24  O   UNL     1       3.679  -2.130   0.496  0.00  0.00    -0.153 OA
BRANCH  22  25
ATOM     25  C   UNL     1       2.397   0.024  -0.026  0.00  0.00    +0.109 A 
ATOM     26  C   UNL     1       1.207  -0.680  -0.016  0.00  0.00    +0.032 A 
ATOM     27  C   UNL     1       0.002  -0.004   0.002  0.00  0.00    +0.051 A 
ATOM     28  C   UNL     1      -0.017   1.383   0.010  0.00  0.00    +0.162 A 
ATOM     29  C   UNL     1       1.179   2.090   0.002  0.00  0.00    +0.164 A 
ATOM     30  C   UNL     1       2.386   1.406  -0.017  0.00  0.00    +0.078 A 
ATOM     31  O   UNL     1       1.184   3.451   0.018  0.00  0.00    -0.485 OA
ATOM     32  C   UNL     1      -0.040   4.103  -0.340  0.00  0.00    +0.270 C 
ATOM     33  C   UNL     1      -1.189   3.413   0.408  0.00  0.00    +0.270 C 
ATOM     34  O   UNL     1      -1.212   2.035   0.019  0.00  0.00    -0.485 OA
ENDBRANCH  22  25
ENDBRANCH  20  22
ENDBRANCH  19  20
ENDBRANCH   2  19
TORSDOF 7
