REMARK  Name = ZINC66390688
REMARK  14 active torsions:
REMARK  status: ('A' for Active; 'I' for Inactive)
REMARK    1  A    between atoms: C_1  and  C_2
REMARK    2  A    between atoms: C_2  and  C_4
REMARK    3  A    between atoms: C_2  and  N_18
REMARK    4  A    between atoms: C_7  and  N_11
REMARK    5  A    between atoms: N_14  and  C_17
REMARK    6  A    between atoms: N_18  and  C_19
REMARK    7  A    between atoms: C_19  and  C_21
REMARK    8  A    between atoms: C_19  and  C_24
REMARK    9  A    between atoms: C_21  and  C_22
REMARK   10  A    between atoms: C_21  and  C_23
REMARK   11  A    between atoms: N_26  and  C_27
REMARK   12  A    between atoms: C_27  and  C_28
REMARK   13  A    between atoms: C_27  and  C_29
REMARK   14  A    between atoms: C_27  and  C_30
REMARK                            x       y       z     vdW  Elec       q    Type
REMARK                         _______ _______ _______ _____ _____    ______ ____
ROOT
ATOM      1  C   UNL     1       0.279   2.325   1.307  0.00  0.00    +0.029 C 
ATOM      2  C   UNL     1       0.044   0.967   0.643  0.00  0.00    +0.082 C 
ENDROOT
BRANCH   2   3
ATOM      3  C   UNL     1       0.618   0.983  -0.750  0.00  0.00    -0.028 A 
ATOM      4  C   UNL     1       1.975   0.798  -0.940  0.00  0.00    +0.007 A 
ATOM      5  C   UNL     1       2.505   0.812  -2.216  0.00  0.00    +0.026 A 
ATOM      6  C   UNL     1       1.673   1.013  -3.309  0.00  0.00    +0.065 A 
ATOM      7  C   UNL     1       0.308   1.199  -3.116  0.00  0.00    +0.145 A 
ATOM      8  C   UNL     1      -0.215   1.178  -1.837  0.00  0.00    +0.045 A 
ATOM      9  F   UNL     1      -0.504   1.395  -4.177  0.00  0.00    -0.204 F 
BRANCH   6  10
ATOM     10  N   UNL     1       2.207   1.029  -4.602  0.00  0.00    -0.331 N 
ATOM     11  C   UNL     1       2.683   2.282  -5.208  0.00  0.00    +0.086 C 
ATOM     12  C   UNL     1       2.051   2.420  -6.597  0.00  0.00    -0.060 C 
ATOM     13  N   UNL     1       2.340   1.216  -7.387  0.00  0.00    +0.380 N 
ATOM     14  C   UNL     1       1.694   0.048  -6.774  0.00  0.00    -0.060 C 
ATOM     15  C   UNL     1       2.314  -0.208  -5.391  0.00  0.00    +0.086 C 
ATOM     16  C   UNL     1       1.829   1.394  -8.753  0.00  0.00    -0.096 C 
ATOM     17  H   UNL     1       3.337   1.068  -7.420  0.00  0.00    -0.082 HD
ENDBRANCH   6  10
ENDBRANCH   2   3
BRANCH   2  18
ATOM     18  N   UNL     1       0.703  -0.083   1.432  0.00  0.00    -0.299 NA
ATOM     19  H   UNL     1       0.962  -0.865   0.848  0.00  0.00    +0.123 HD
BRANCH  18  20
ATOM     20  C   UNL     1      -0.149  -0.518   2.546  0.00  0.00    +0.143 C 
BRANCH  20  21
ATOM     21  C   UNL     1       0.667  -0.570   3.812  0.00  0.00    +0.231 C 
ATOM     22  O   UNL     1       1.875  -0.647   3.752  0.00  0.00    -0.274 OA
ATOM     23  N   UNL     1       0.053  -0.531   5.011  0.00  0.00    -0.309 N 
ATOM     24  H   UNL     1      -0.915  -0.541   5.061  0.00  0.00    +0.149 HD
BRANCH  23  25
ATOM     25  C   UNL     1       0.849  -0.475   6.240  0.00  0.00    +0.026 C 
ATOM     26  C   UNL     1       1.717   0.785   6.228  0.00  0.00    +0.031 C 
ATOM     27  C   UNL     1      -0.084  -0.439   7.452  0.00  0.00    +0.031 C 
ATOM     28  C   UNL     1       1.746  -1.712   6.324  0.00  0.00    +0.031 C 
ENDBRANCH  23  25
ENDBRANCH  20  21
BRANCH  20  29
ATOM     29  C   UNL     1      -0.714  -1.908   2.245  0.00  0.00    +0.009 C 
ATOM     30  C   UNL     1      -1.514  -1.862   0.942  0.00  0.00    +0.009 C 
ATOM     31  C   UNL     1       0.438  -2.905   2.102  0.00  0.00    +0.009 C 
ENDBRANCH  20  29
ENDBRANCH  18  20
ENDBRANCH   2  18
TORSDOF 7
