REMARK  Name = ZINC12281012
REMARK  5 active torsions:
REMARK  status: ('A' for Active; 'I' for Inactive)
REMARK    1  A    between atoms: C_11  and  C_13
REMARK    2  A    between atoms: C_17  and  C_22
REMARK    3  A    between atoms: C_22  and  O_35
REMARK    4  A    between atoms: C_27  and  C_28
REMARK    5  A    between atoms: C_27  and  N_65
REMARK                            x       y       z     vdW  Elec       q    Type
REMARK                         _______ _______ _______ _____ _____    ______ ____
ROOT
ATOM      1  C   UNL     1      -1.664   5.777   0.003  0.00  0.00    +0.191 A 
ATOM      2  C   UNL     1      -2.284   4.569   0.037  0.00  0.00    +0.063 A 
ATOM      3  C   UNL     1      -1.222   3.566  -0.048  0.00  0.00    +0.021 A 
ATOM      4  C   UNL     1      -1.201   2.170  -0.067  0.00  0.00    +0.018 A 
ATOM      5  C   UNL     1      -0.006   1.512  -0.154  0.00  0.00    -0.015 A 
ATOM      6  C   UNL     1       1.184   2.222  -0.234  0.00  0.00    +0.010 A 
ATOM      7  C   UNL     1       1.184   3.600  -0.223  0.00  0.00    +0.047 A 
ATOM      8  C   UNL     1      -0.019   4.291  -0.129  0.00  0.00    +0.136 A 
ATOM      9  O   UNL     1      -0.330   5.602  -0.096  0.00  0.00    -0.450 OA
ENDROOT
BRANCH   1  20
ATOM     10  C   UNL     1       1.470  10.738   3.176  0.00  0.00    +0.000 A 
ATOM     11  C   UNL     1       2.277   9.845   2.497  0.00  0.00    +0.000 A 
ATOM     12  C   UNL     1       1.730   9.029   1.528  0.00  0.00    +0.005 A 
ATOM     13  C   UNL     1       0.375   9.098   1.230  0.00  0.00    -0.027 A 
ATOM     14  C   UNL     1      -0.431   9.983   1.911  0.00  0.00    -0.041 A 
ATOM     15  C   UNL     1       0.124  10.806   2.884  0.00  0.00    +0.004 A 
ATOM     16  C   UNL     1      -1.910  10.103   1.656  0.00  0.00    +0.054 C 
ATOM     17  C   UNL     1      -2.275   9.527   0.283  0.00  0.00    +0.113 C 
ATOM     18  N   UNL     1      -1.623   8.212   0.164  0.00  0.00    -0.290 N 
ATOM     19  C   UNL     1      -0.156   8.186   0.154  0.00  0.00    +0.143 C 
ATOM     20  C   UNL     1      -2.345   7.078   0.063  0.00  0.00    +0.282 C 
ATOM     21  O   UNL     1      -3.559   7.132   0.021  0.00  0.00    -0.267 OA
ENDBRANCH   1  20
BRANCH   5  22
ATOM     22  C   UNL     1       0.019   0.005  -0.168  0.00  0.00    +0.088 C 
ATOM     23  C   UNL     1       0.135  -0.518   1.266  0.00  0.00    +0.021 C 
ATOM     24  C   UNL     1       0.224  -2.046   1.241  0.00  0.00    -0.075 C 
ATOM     25  C   UNL     1       1.278  -2.008  -0.940  0.00  0.00    -0.075 C 
ATOM     26  C   UNL     1       1.223  -0.479  -0.980  0.00  0.00    +0.021 C 
ATOM     27  N   UNL     1       1.416  -2.446   0.465  0.00  0.00    +0.383 N 
ATOM     28  H   UNL     1       2.245  -1.999   0.873  0.00  0.00    -0.081 HD
BRANCH  22  29
ATOM     29  O   UNL     1      -1.185  -0.487  -0.759  0.00  0.00    -0.384 OA
ATOM     30  H   UNL     1      -1.990  -0.220  -0.294  0.00  0.00    +0.211 HD
ENDBRANCH  22  29
BRANCH  27  31
ATOM     31  C   UNL     1       1.586  -3.913   0.521  0.00  0.00    -0.040 C 
BRANCH  31  32
ATOM     32  C   UNL     1       1.453  -4.371   1.951  0.00  0.00    -0.029 A 
ATOM     33  C   UNL     1       2.584  -4.620   2.705  0.00  0.00    +0.004 A 
ATOM     34  C   UNL     1       2.462  -5.035   4.018  0.00  0.00    +0.000 A 
ATOM     35  C   UNL     1       1.209  -5.211   4.575  0.00  0.00    +0.003 A 
ATOM     36  C   UNL     1       0.077  -4.968   3.821  0.00  0.00    +0.038 A 
ATOM     37  C   UNL     1       0.198  -4.547   2.507  0.00  0.00    +0.125 A 
ATOM     38  F   UNL     1      -0.909  -4.310   1.769  0.00  0.00    -0.205 F 
ENDBRANCH  31  32
ENDBRANCH  27  31
ENDBRANCH   5  22
TORSDOF 5
