REMARK  Name = ZINC08969990
REMARK  1 active torsions:
REMARK  status: ('A' for Active; 'I' for Inactive)
REMARK    1  A    between atoms: C_6  and  N_7
REMARK                            x       y       z     vdW  Elec       q    Type
REMARK                         _______ _______ _______ _____ _____    ______ ____
ROOT
ATOM      1  N   UNL     1      -1.346  -1.442   3.292  0.00  0.00    -0.210 N 
ATOM      2  C   UNL     1      -0.388  -0.489   3.026  0.00  0.00    +0.228 C 
ATOM      3  O   UNL     1       0.763  -0.465   3.406  0.00  0.00    -0.275 OA
ATOM      4  C   UNL     1      -1.047   0.475   2.176  0.00  0.00    +0.074 C 
ATOM      5  C   UNL     1      -0.769   1.601   1.255  0.00  0.00    -0.054 C 
ATOM      6  C   UNL     1      -0.013   1.086   0.008  0.00  0.00    -0.016 C 
ATOM      7  C   UNL     1      -0.787   1.610  -1.209  0.00  0.00    -0.020 C 
ATOM      8  C   UNL     1      -1.988   2.374  -0.632  0.00  0.00    -0.076 C 
ATOM      9  C   UNL     1      -2.920   0.600   0.752  0.00  0.00    +0.053 C 
ATOM     10  C   UNL     1      -2.008  -0.447   1.341  0.00  0.00    +0.089 C 
ATOM     11  C   UNL     1      -2.423  -1.353   2.455  0.00  0.00    +0.229 C 
ATOM     12  O   UNL     1      -3.497  -1.900   2.589  0.00  0.00    -0.275 OA
ATOM     13  C   UNL     1      -4.179   0.760   1.575  0.00  0.00    -0.026 A 
ATOM     14  C   UNL     1      -4.405   1.102   2.889  0.00  0.00    +0.024 A 
ATOM     15  C   UNL     1      -5.702   1.168   3.374  0.00  0.00    +0.041 A 
ATOM     16  C   UNL     1      -6.764   0.894   2.531  0.00  0.00    +0.022 A 
ATOM     17  C   UNL     1      -6.540   0.559   1.212  0.00  0.00    +0.025 A 
ATOM     18  C   UNL     1      -5.238   0.491   0.719  0.00  0.00    +0.036 A 
ATOM     19  N   UNL     1      -4.762   0.187  -0.558  0.00  0.00    -0.286 N 
ATOM     20  C   UNL     1      -3.419   0.239  -0.617  0.00  0.00    +0.212 C 
ATOM     21  O   UNL     1      -2.735   0.033  -1.598  0.00  0.00    -0.277 OA
ATOM     22 CL   UNL     1      -5.991   1.593   5.032  0.00  0.00    -0.084 Cl
ATOM     23  H   UNL     1      -5.331  -0.035  -1.312  0.00  0.00    +0.155 HD
ATOM     24  N   UNL     1      -2.129   1.881   0.744  0.00  0.00    +0.395 N 
ATOM     25  H   UNL     1      -2.595   2.585   1.328  0.00  0.00    -0.079 HD
ENDROOT
BRANCH   1  31
ATOM     26  C   UNL     1      -0.100  -2.421   5.118  0.00  0.00    +0.027 A 
ATOM     27  C   UNL     1       0.014  -3.364   6.121  0.00  0.00    +0.041 A 
ATOM     28  C   UNL     1      -0.997  -4.288   6.322  0.00  0.00    +0.142 A 
ATOM     29  C   UNL     1      -2.125  -4.269   5.517  0.00  0.00    +0.078 A 
ATOM     30  C   UNL     1      -2.244  -3.323   4.516  0.00  0.00    +0.046 A 
ATOM     31  C   UNL     1      -1.229  -2.400   4.311  0.00  0.00    +0.045 A 
ATOM     32 CL   UNL     1      -3.391  -5.429   5.770  0.00  0.00    -0.081 Cl
ATOM     33  F   UNL     1      -0.883  -5.209   7.303  0.00  0.00    -0.204 F 
ENDBRANCH   1  31
TORSDOF 1
