REMARK  Name = ZINC39696216
REMARK  12 active torsions:
REMARK  status: ('A' for Active; 'I' for Inactive)
REMARK    1  A    between atoms: C_1  and  C_2
REMARK    2  A    between atoms: C_2  and  C_3
REMARK    3  A    between atoms: C_3  and  C_4
REMARK    4  A    between atoms: C_4  and  C_5
REMARK    5  A    between atoms: C_5  and  C_7
REMARK    6  A    between atoms: C_5  and  C_8
REMARK    7  A    between atoms: C_12  and  C_21
REMARK    8  A    between atoms: N_23  and  C_24
REMARK    9  A    between atoms: C_24  and  C_26
REMARK   10  A    between atoms: C_24  and  C_27
REMARK   11  A    between atoms: C_30  and  C_33
REMARK   12  A    between atoms: C_33  and  C_34
REMARK                            x       y       z     vdW  Elec       q    Type
REMARK                         _______ _______ _______ _____ _____    ______ ____
ROOT
ATOM      1  C   UNL     1      -2.783  -3.978   0.459  0.00  0.00    +0.218 C 
ATOM      2  O   UNL     1      -1.779  -4.612   0.709  0.00  0.00    -0.275 OA
ATOM      3  N   UNL     1      -3.955  -4.617   0.277  0.00  0.00    -0.300 N 
ATOM      4  C   UNL     1      -5.251  -4.035  -0.144  0.00  0.00    +0.121 C 
ATOM      5  C   UNL     1      -5.856  -5.083  -1.105  0.00  0.00    +0.100 C 
ATOM      6  C   UNL     1      -5.190  -6.410  -0.708  0.00  0.00    -0.004 C 
ATOM      7  C   UNL     1      -4.238  -6.062   0.446  0.00  0.00    +0.115 C 
ATOM      8  C   UNL     1      -4.399  -6.978  -1.883  0.00  0.00    -0.010 C 
ATOM      9  C   UNL     1      -3.794  -8.326  -1.481  0.00  0.00    -0.082 C 
ATOM     10  N   UNL     1      -4.866  -9.251  -1.094  0.00  0.00    +0.379 N 
ATOM     11  C   UNL     1      -5.562  -8.742   0.093  0.00  0.00    -0.082 C 
ATOM     12  C   UNL     1      -6.243  -7.412  -0.242  0.00  0.00    -0.010 C 
ATOM     13  H   UNL     1      -5.523  -9.339  -1.855  0.00  0.00    -0.086 HD
ATOM     14  H   UNL     1      -4.470 -10.155  -0.889  0.00  0.00    -0.086 HD
ENDROOT
BRANCH   5  15
ATOM     15  C   UNL     1      -5.528  -4.736  -2.534  0.00  0.00    +0.219 C 
ATOM     16  O   UNL     1      -4.541  -4.077  -2.787  0.00  0.00    -0.275 OA
ATOM     17  N   UNL     1      -6.330  -5.157  -3.532  0.00  0.00    -0.308 N 
ATOM     18  H   UNL     1      -7.120  -5.683  -3.330  0.00  0.00    +0.149 HD
BRANCH  17  19
ATOM     19  C   UNL     1      -6.011  -4.819  -4.921  0.00  0.00    +0.100 C 
ATOM     20  C   UNL     1      -5.023  -5.845  -5.481  0.00  0.00    +0.033 C 
BRANCH  19  21
ATOM     21  C   UNL     1      -7.273  -4.835  -5.745  0.00  0.00    -0.027 A 
ATOM     22  C   UNL     1      -8.227  -5.812  -5.529  0.00  0.00    +0.006 A 
ATOM     23  C   UNL     1      -9.384  -5.827  -6.285  0.00  0.00    +0.004 A 
ATOM     24  C   UNL     1      -9.588  -4.865  -7.256  0.00  0.00    -0.048 A 
ATOM     25  C   UNL     1      -8.635  -3.887  -7.471  0.00  0.00    +0.004 A 
ATOM     26  C   UNL     1      -7.479  -3.870  -6.713  0.00  0.00    +0.006 A 
BRANCH  24  27
ATOM     27  C   UNL     1     -10.849  -4.882  -8.080  0.00  0.00    +0.032 C 
ATOM     28  C   UNL     1     -11.924  -4.043  -7.386  0.00  0.00    +0.009 C 
ENDBRANCH  24  27
ENDBRANCH  19  21
ENDBRANCH  17  19
ENDBRANCH   5  15
BRANCH   1  29
ATOM     29  C   UNL     1      -2.719  -2.476   0.353  0.00  0.00    +0.072 C 
ATOM     30  C   UNL     1      -1.373  -2.064  -0.247  0.00  0.00    +0.017 C 
BRANCH  29  31
ATOM     31  C   UNL     1      -2.866  -1.860   1.746  0.00  0.00    +0.012 C 
BRANCH  31  32
ATOM     32  C   UNL     1      -2.926  -0.336   1.625  0.00  0.00    +0.000 C 
BRANCH  32  34
ATOM     33  C   UNL     1      -3.134   1.805   2.896  0.00  0.00    +0.004 C 
ATOM     34  C   UNL     1      -3.074   0.281   3.017  0.00  0.00    -0.003 C 
ENDBRANCH  32  34
ENDBRANCH  31  32
ENDBRANCH  29  31
ENDBRANCH   1  29
TORSDOF 8
