REMARK  Name = ZINC15946371
REMARK  11 active torsions:
REMARK  status: ('A' for Active; 'I' for Inactive)
REMARK    1  A    between atoms: C_1  and  C_2
REMARK    2  A    between atoms: C_2  and  O_3
REMARK    3  A    between atoms: O_3  and  C_4
REMARK    4  A    between atoms: C_6  and  C_19
REMARK    5  A    between atoms: C_9  and  O_10
REMARK    6  A    between atoms: O_10  and  C_11
REMARK    7  A    between atoms: C_11  and  C_13
REMARK    8  A    between atoms: N_28  and  C_31
REMARK    9  A    between atoms: C_31  and  C_32
REMARK   10  A    between atoms: C_31  and  C_33
REMARK   11  A    between atoms: C_34  and  O_36
REMARK                            x       y       z     vdW  Elec       q    Type
REMARK                         _______ _______ _______ _____ _____    ______ ____
ROOT
ATOM      1  C   UNL     1       0.795  -3.561  -1.136  0.00  0.00    +0.224 C 
ATOM      2  N   UNL     1       1.545  -4.828  -1.194  0.00  0.00    -0.313 N 
ATOM      3  C   UNL     1       2.557  -4.981  -0.273  0.00  0.00    +0.080 A 
ATOM      4  C   UNL     1       2.559  -4.292   0.946  0.00  0.00    +0.067 A 
ATOM      5  C   UNL     1       3.697  -4.546   1.806  0.00  0.00    -0.027 A 
ATOM      6  C   UNL     1       4.599  -5.424   1.305  0.00  0.00    -0.021 A 
ATOM      7  S   UNL     1       3.940  -5.897  -0.269  0.00  0.00    -0.080 S 
ATOM      8  C   UNL     1       5.864  -5.868   1.968  0.00  0.00    -0.035 C 
ATOM      9  N   UNL     1       6.167  -4.929   3.064  0.00  0.00    +0.384 N 
ATOM     10  C   UNL     1       4.977  -4.756   3.908  0.00  0.00    -0.073 C 
ATOM     11  C   UNL     1       3.926  -3.917   3.174  0.00  0.00    +0.018 C 
ATOM     12  C   UNL     1       1.408  -3.395   1.227  0.00  0.00    +0.220 C 
ATOM     13  N   UNL     1       0.607  -3.112   0.238  0.00  0.00    -0.223 NA
ATOM     14  H   UNL     1       1.337  -5.517  -1.844  0.00  0.00    +0.149 HD
ATOM     15  H   UNL     1       6.437  -4.037   2.678  0.00  0.00    -0.081 HD
ENDROOT
BRANCH   1  18
ATOM     16  C   UNL     1       2.135  -0.204  -2.237  0.00  0.00    +0.163 A 
ATOM     17  C   UNL     1       1.438  -1.176  -1.536  0.00  0.00    +0.056 A 
ATOM     18  C   UNL     1       1.553  -2.505  -1.899  0.00  0.00    -0.002 A 
ATOM     19  C   UNL     1       2.363  -2.869  -2.959  0.00  0.00    +0.011 A 
ATOM     20  C   UNL     1       3.061  -1.904  -3.662  0.00  0.00    +0.050 A 
ATOM     21  C   UNL     1       2.945  -0.569  -3.308  0.00  0.00    +0.173 A 
BRANCH  16  22
ATOM     22  O   UNL     1       2.022   1.103  -1.882  0.00  0.00    -0.489 OA
BRANCH  22  24
ATOM     23  C   UNL     1       1.173   2.914  -0.526  0.00  0.00    +0.048 C 
ATOM     24  C   UNL     1       1.173   1.404  -0.773  0.00  0.00    +0.226 C 
ENDBRANCH  22  24
ENDBRANCH  16  22
BRANCH  21  25
ATOM     25  O   UNL     1       3.627   0.381  -4.002  0.00  0.00    -0.419 OA
BRANCH  25  26
ATOM     26  C   UNL     1       4.797   0.817  -3.496  0.00  0.00    +0.345 C 
ATOM     27  O   UNL     1       5.226   0.342  -2.464  0.00  0.00    -0.245 OA
BRANCH  26  28
ATOM     28  C   UNL     1       5.557   1.872  -4.196  0.00  0.00    +0.059 A 
ATOM     29  C   UNL     1       5.063   2.425  -5.380  0.00  0.00    +0.015 A 
ATOM     30  C   UNL     1       5.777   3.410  -6.028  0.00  0.00    +0.001 A 
ATOM     31  C   UNL     1       6.981   3.852  -5.508  0.00  0.00    +0.000 A 
ATOM     32  C   UNL     1       7.477   3.308  -4.336  0.00  0.00    +0.001 A 
ATOM     33  C   UNL     1       6.770   2.326  -3.674  0.00  0.00    +0.015 A 
ENDBRANCH  26  28
ENDBRANCH  25  26
ENDBRANCH  21  25
ENDBRANCH   1  18
BRANCH   9  34
ATOM     34  C   UNL     1       7.268  -5.464   3.876  0.00  0.00    -0.074 C 
ATOM     35  C   UNL     1       8.466  -5.768   2.973  0.00  0.00    -0.014 C 
ATOM     36  C   UNL     1       7.673  -4.432   4.930  0.00  0.00    -0.014 C 
ENDBRANCH   9  34
BRANCH  12  37
ATOM     37  O   UNL     1       1.200  -2.890   2.465  0.00  0.00    -0.492 OA
ATOM     38  H   UNL     1       0.422  -2.319   2.531  0.00  0.00    +0.294 HD
ENDBRANCH  12  37
TORSDOF 8
