REMARK  Name = ZINC09310377
REMARK  7 active torsions:
REMARK  status: ('A' for Active; 'I' for Inactive)
REMARK    1  A    between atoms: C_1  and  C_2
REMARK    2  A    between atoms: C_5  and  N_36
REMARK    3  A    between atoms: C_7  and  C_8
REMARK    4  A    between atoms: C_11  and  C_13
REMARK    5  A    between atoms: N_14  and  N_15
REMARK    6  A    between atoms: N_22  and  C_23
REMARK    7  A    between atoms: N_29  and  C_30
REMARK                            x       y       z     vdW  Elec       q    Type
REMARK                         _______ _______ _______ _____ _____    ______ ____
ROOT
ATOM      1  N   UNL     1      -4.749   5.213   0.265  0.00  0.00    -0.205 N 
ATOM      2  C   UNL     1      -3.563   5.905   0.081  0.00  0.00    +0.241 A 
ATOM      3  N   UNL     1      -3.577   7.228  -0.036  0.00  0.00    -0.179 NA
ATOM      4  C   UNL     1      -2.439   7.893  -0.213  0.00  0.00    +0.225 A 
ATOM      5  N   UNL     1      -1.287   7.232  -0.272  0.00  0.00    -0.181 NA
ATOM      6  C   UNL     1      -1.273   5.909  -0.156  0.00  0.00    +0.225 A 
ATOM      7  N   UNL     1      -2.412   5.244   0.016  0.00  0.00    -0.179 NA
ATOM      8  N   UNL     1      -0.076   5.222  -0.218  0.00  0.00    -0.283 N 
ATOM      9  N   UNL     1      -2.454   9.269  -0.334  0.00  0.00    -0.283 N 
ATOM     10  H   UNL     1      -5.590   5.695   0.309  0.00  0.00    +0.177 HD
ATOM     11  H   UNL     1       0.744   5.694  -0.433  0.00  0.00    +0.155 HD
ATOM     12  H   UNL     1      -1.621   9.756  -0.429  0.00  0.00    +0.155 HD
ENDROOT
BRANCH   8  13
ATOM     13  C   UNL     1      -0.045   3.846   0.031  0.00  0.00    +0.034 A 
ATOM     14  C   UNL     1      -0.860   3.298   1.012  0.00  0.00    +0.023 A 
ATOM     15  C   UNL     1      -0.828   1.938   1.255  0.00  0.00    +0.002 A 
ATOM     16  C   UNL     1       0.016   1.124   0.522  0.00  0.00    +0.000 A 
ATOM     17  C   UNL     1       0.833   1.668  -0.453  0.00  0.00    +0.002 A 
ATOM     18  C   UNL     1       0.801   3.025  -0.704  0.00  0.00    +0.023 A 
ENDBRANCH   8  13
BRANCH   9  19
ATOM     19  C   UNL     1      -3.670   9.959  -0.318  0.00  0.00    +0.034 A 
ATOM     20  C   UNL     1      -4.793   9.403  -0.917  0.00  0.00    +0.023 A 
ATOM     21  C   UNL     1      -5.994  10.085  -0.896  0.00  0.00    +0.002 A 
ATOM     22  C   UNL     1      -6.076  11.324  -0.289  0.00  0.00    +0.000 A 
ATOM     23  C   UNL     1      -4.959  11.883   0.304  0.00  0.00    +0.002 A 
ATOM     24  C   UNL     1      -3.756  11.204   0.291  0.00  0.00    +0.023 A 
ENDBRANCH   9  19
BRANCH   1  26
ATOM     25  C   UNL     1      -5.875   3.264   0.555  0.00  0.00    +0.176 C 
ATOM     26  N   UNL     1      -4.735   3.928   0.378  0.00  0.00    -0.184 NA
BRANCH  25  30
ATOM     27  C   UNL     1      -5.146  -0.193   0.789  0.00  0.00    +0.136 A 
ATOM     28  C   UNL     1      -6.551  -0.257   0.939  0.00  0.00    +0.050 A 
ATOM     29  C   UNL     1      -7.028   1.014   0.881  0.00  0.00    +0.051 A 
ATOM     30  C   UNL     1      -5.860   1.883   0.677  0.00  0.00    +0.148 A 
ATOM     31  O   UNL     1      -4.769   1.087   0.636  0.00  0.00    -0.454 OA
BRANCH  27  38
ATOM     32  C   UNL     1      -3.204  -0.502  -1.343  0.00  0.00    +0.044 C 
ATOM     33  C   UNL     1      -3.296  -1.509  -0.226  0.00  0.00    -0.040 A 
ATOM     34  C   UNL     1      -2.449  -2.594  -0.200  0.00  0.00    +0.006 A 
ATOM     35  C   UNL     1      -2.538  -3.523   0.826  0.00  0.00    +0.033 A 
ATOM     36  C   UNL     1      -3.475  -3.367   1.836  0.00  0.00    +0.127 A 
ATOM     37  C   UNL     1      -4.322  -2.295   1.833  0.00  0.00    +0.044 A 
ATOM     38  C   UNL     1      -4.244  -1.343   0.800  0.00  0.00    +0.022 A 
BRANCH  36  39
ATOM     39  N   UNL     1      -3.558  -4.368   2.924  0.00  0.00    +0.056 N 
ATOM     40  O   UNL     1      -4.447  -4.223   3.885  0.00  0.00    -0.126 OA
ATOM     41  O   UNL     1      -2.744  -5.402   2.930  0.00  0.00    -0.126 OA
ENDBRANCH  36  39
ENDBRANCH  27  38
ENDBRANCH  25  30
ENDBRANCH   1  26
TORSDOF 6
