REMARK  Name = ZINC20503840
REMARK  10 active torsions:
REMARK  status: ('A' for Active; 'I' for Inactive)
REMARK    1  A    between atoms: C_1  and  C_2
REMARK    2  A    between atoms: N_5  and  C_8
REMARK    3  A    between atoms: C_8  and  C_9
REMARK    4  A    between atoms: C_18  and  C_20
REMARK    5  A    between atoms: C_20  and  N_21
REMARK    6  A    between atoms: N_21  and  C_22
REMARK    7  A    between atoms: C_22  and  N_24
REMARK    8  A    between atoms: N_24  and  C_25
REMARK    9  A    between atoms: C_25  and  C_26
REMARK   10  A    between atoms: C_26  and  N_27
REMARK                            x       y       z     vdW  Elec       q    Type
REMARK                         _______ _______ _______ _____ _____    ______ ____
ROOT
ATOM      1  C   UNL     1      -5.901   1.205  -2.548  0.00  0.00    -0.041 C 
ATOM      2  C   UNL     1      -4.567   0.494  -2.301  0.00  0.00    -0.076 C 
ATOM      3  N   UNL     1      -4.628  -0.225  -1.022  0.00  0.00    +0.383 N 
ATOM      4  C   UNL     1      -5.670  -1.261  -1.050  0.00  0.00    -0.078 C 
ATOM      5  C   UNL     1      -7.035  -0.601  -1.260  0.00  0.00    -0.015 C 
ATOM      6  C   UNL     1      -6.841   0.917  -1.371  0.00  0.00    -0.015 C 
ATOM      7  C   UNL     1      -6.179   1.420  -0.082  0.00  0.00    -0.010 C 
ATOM      8  C   UNL     1      -4.837   0.704   0.097  0.00  0.00    -0.051 C 
ATOM      9  H   UNL     1      -3.659  -0.724  -0.868  0.00  0.00    -0.081 HD
ENDROOT
BRANCH   1  10
ATOM     10  C   UNL     1      -5.668   2.713  -2.661  0.00  0.00    -0.077 C 
BRANCH  10  15
ATOM     11  C   UNL     1      -3.078   4.226  -7.526  0.00  0.00    +0.007 C 
ATOM     12  C   UNL     1      -4.118   4.033  -6.421  0.00  0.00    -0.018 C 
ATOM     13  C   UNL     1      -3.617   4.684  -5.128  0.00  0.00    -0.016 C 
ATOM     14  C   UNL     1      -4.633   4.435  -4.011  0.00  0.00    -0.079 C 
ATOM     15  N   UNL     1      -4.805   2.990  -3.817  0.00  0.00    +0.380 N 
ATOM     16  C   UNL     1      -5.330   2.350  -5.031  0.00  0.00    -0.079 C 
ATOM     17  C   UNL     1      -4.335   2.537  -6.178  0.00  0.00    -0.016 C 
ATOM     18  H   UNL     1      -3.814   2.558  -3.613  0.00  0.00    -0.082 HD
ENDBRANCH  10  15
ENDBRANCH   1  10
BRANCH   8  19
ATOM     19  C   UNL     1      -3.707   1.736   0.121  0.00  0.00    +0.088 C 
BRANCH  19  20
ATOM     20  N   UNL     1      -2.416   1.045   0.172  0.00  0.00    -0.328 N 
ATOM     21  H   UNL     1      -2.381  -0.054   0.187  0.00  0.00    +0.148 HD
BRANCH  20  22
ATOM     22  C   UNL     1      -1.272   1.757   0.201  0.00  0.00    +0.130 C 
ATOM     23  S   UNL     1      -1.327   3.468   0.179  0.00  0.00    -0.019 S 
BRANCH  22  24
ATOM     24  N   UNL     1      -0.084   1.121   0.248  0.00  0.00    -0.325 N 
ATOM     25  H   UNL     1      -0.049   0.022   0.267  0.00  0.00    +0.148 HD
BRANCH  24  26
ATOM     26  C   UNL     1       1.160   1.895   0.274  0.00  0.00    +0.118 C 
BRANCH  26  27
ATOM     27  C   UNL     1       2.353   0.939   0.319  0.00  0.00    +0.103 C 
BRANCH  27  28
ATOM     28  N   UNL     1       3.601   1.714   0.344  0.00  0.00    -0.297 NA
ATOM     29  C   UNL     1       3.793   2.445  -0.917  0.00  0.00    +0.112 C 
ATOM     30  C   UNL     1       5.070   3.284  -0.825  0.00  0.00    +0.175 C 
ATOM     31  O   UNL     1       6.176   2.429  -0.520  0.00  0.00    -0.377 OA
ATOM     32  C   UNL     1       6.022   1.703   0.702  0.00  0.00    +0.175 C 
ATOM     33  C   UNL     1       4.755   0.848   0.626  0.00  0.00    +0.112 C 
ENDBRANCH  27  28
ENDBRANCH  26  27
ENDBRANCH  24  26
ENDBRANCH  22  24
ENDBRANCH  20  22
ENDBRANCH  19  20
ENDBRANCH   8  19
TORSDOF 9
