REMARK  Name = ZINC43021308
REMARK  10 active torsions:
REMARK  status: ('A' for Active; 'I' for Inactive)
REMARK    1  A    between atoms: C_1  and  C_2
REMARK    2  A    between atoms: C_2  and  C_3
REMARK    3  A    between atoms: C_3  and  C_5
REMARK    4  A    between atoms: C_3  and  N_24
REMARK    5  A    between atoms: C_5  and  C_7
REMARK    6  A    between atoms: C_5  and  N_14
REMARK    7  A    between atoms: N_14  and  C_15
REMARK    8  A    between atoms: N_14  and  C_17
REMARK    9  A    between atoms: C_15  and  C_16
REMARK   10  A    between atoms: C_17  and  C_18
REMARK                            x       y       z     vdW  Elec       q    Type
REMARK                         _______ _______ _______ _____ _____    ______ ____
ROOT
ATOM      1  C   UNL     1      -0.953  -1.663   0.274  0.00  0.00    -0.052 C 
ENDROOT
BRANCH   1   2
ATOM      2  C   UNL     1      -2.387  -1.924  -0.108  0.00  0.00    -0.061 A 
ATOM      3  C   UNL     1      -3.362  -1.985   0.870  0.00  0.00    +0.002 A 
ATOM      4  C   UNL     1      -4.678  -2.225   0.521  0.00  0.00    +0.001 A 
ATOM      5  C   UNL     1      -5.019  -2.403  -0.807  0.00  0.00    +0.015 A 
ATOM      6  C   UNL     1      -4.044  -2.341  -1.786  0.00  0.00    +0.018 A 
ATOM      7  C   UNL     1      -2.728  -2.096  -1.436  0.00  0.00    +0.017 A 
ATOM      8 BR   UNL     1      -4.510  -2.585  -3.602  0.00  0.00    -0.050 Br
ENDBRANCH   1   2
BRANCH   1   9
ATOM      9  N   UNL     1      -0.418  -2.826   0.994  0.00  0.00    +0.385 N 
ATOM     10  H   UNL     1       0.546  -2.656   1.239  0.00  0.00    -0.081 HD
BRANCH   9  11
ATOM     11  C   UNL     1      -1.202  -3.048   2.217  0.00  0.00    -0.081 C 
ATOM     12  C   UNL     1      -0.547  -4.153   3.048  0.00  0.00    -0.017 C 
ENDBRANCH   9  11
BRANCH   9  13
ATOM     13  C   UNL     1      -0.503  -4.015   0.136  0.00  0.00    -0.046 C 
BRANCH  13  14
ATOM     14  C   UNL     1       0.403  -3.829  -1.084  0.00  0.00    +0.102 C 
ATOM     15  C   UNL     1       0.404  -5.117  -1.936  0.00  0.00    +0.032 C 
ATOM     16  C   UNL     1       1.889  -5.218  -2.378  0.00  0.00    +0.030 C 
ATOM     17  C   UNL     1       2.607  -4.641  -1.132  0.00  0.00    +0.160 C 
ATOM     18  O   UNL     1       1.749  -3.589  -0.657  0.00  0.00    -0.378 OA
ENDBRANCH  13  14
ENDBRANCH   9  13
ENDBRANCH   1   9
BRANCH   1  19
ATOM     19  C   UNL     1      -0.881  -0.428   1.175  0.00  0.00    -0.085 C 
BRANCH  19  20
ATOM     20  N   UNL     1      -1.460   0.725   0.473  0.00  0.00    +0.379 N 
ATOM     21  H   UNL     1      -0.941   0.897  -0.375  0.00  0.00    -0.090 HD
ATOM     22  H   UNL     1      -2.424   0.530   0.244  0.00  0.00    -0.090 HD
ATOM     23  H   UNL     1      -1.413   1.539   1.067  0.00  0.00    -0.090 HD
ENDBRANCH  19  20
BRANCH  19  25
ATOM     24  C   UNL     1       0.643   1.025   2.520  0.00  0.00    +0.002 C 
ATOM     25  C   UNL     1       0.579  -0.134   1.522  0.00  0.00    -0.021 C 
ENDBRANCH  19  25
ENDBRANCH   1  19
TORSDOF 8
