REMARK  Name = ZINC53741131
REMARK  10 active torsions:
REMARK  status: ('A' for Active; 'I' for Inactive)
REMARK    1  A    between atoms: C_1  and  N_2
REMARK    2  A    between atoms: N_2  and  C_3
REMARK    3  A    between atoms: N_2  and  C_14
REMARK    4  A    between atoms: C_3  and  C_4
REMARK    5  A    between atoms: C_4  and  C_5
REMARK    6  A    between atoms: C_5  and  O_6
REMARK    7  A    between atoms: O_6  and  C_7
REMARK    8  A    between atoms: C_14  and  C_15
REMARK    9  A    between atoms: N_17  and  C_18
REMARK   10  A    between atoms: C_19  and  C_23
REMARK                            x       y       z     vdW  Elec       q    Type
REMARK                         _______ _______ _______ _____ _____    ______ ____
ROOT
ATOM      1  C   UNL     1       0.690  -0.478  -1.207  0.00  0.00    +0.018 C 
ENDROOT
BRANCH   1   2
ATOM      2  C   UNL     1       2.137  -0.060  -1.158  0.00  0.00    +0.201 C 
ATOM      3  O   UNL     1       2.554   0.571  -0.210  0.00  0.00    -0.278 OA
ATOM      4  N   UNL     1       2.967  -0.387  -2.168  0.00  0.00    -0.281 N 
ATOM      5  H   UNL     1       2.633  -0.891  -2.926  0.00  0.00    +0.155 HD
BRANCH   4   6
ATOM      6  C   UNL     1       4.298  -0.002  -2.123  0.00  0.00    +0.084 A 
ATOM      7  C   UNL     1       5.288  -0.242  -3.065  0.00  0.00    +0.065 A 
ATOM      8  C   UNL     1       6.604   0.275  -2.767  0.00  0.00    +0.022 A 
ATOM      9  C   UNL     1       6.723   0.936  -1.601  0.00  0.00    +0.048 A 
ATOM     10  S   UNL     1       5.081   0.867  -0.920  0.00  0.00    -0.081 S 
BRANCH   7  11
ATOM     11  C   UNL     1       5.013  -0.983  -4.300  0.00  0.00    +0.244 C 
ATOM     12  O   UNL     1       3.892  -1.405  -4.520  0.00  0.00    -0.270 OA
ATOM     13  N   UNL     1       6.000  -1.196  -5.192  0.00  0.00    -0.325 N 
ATOM     14  H   UNL     1       6.893  -0.860  -5.017  0.00  0.00    +0.145 HD
ATOM     15  H   UNL     1       5.818  -1.687  -6.009  0.00  0.00    +0.145 HD
ENDBRANCH   7  11
ENDBRANCH   4   6
ENDBRANCH   1   2
BRANCH   1  17
ATOM     16  C   UNL     1      -0.018   1.465   0.010  0.00  0.00    -0.096 C 
ATOM     17  N   UNL     1       0.002  -0.004   0.002  0.00  0.00    +0.384 N 
ATOM     18  H   UNL     1       0.490  -0.338   0.820  0.00  0.00    -0.082 HD
BRANCH  17  19
ATOM     19  C   UNL     1      -1.376  -0.512   0.012  0.00  0.00    -0.075 C 
BRANCH  19  20
ATOM     20  C   UNL     1      -2.053  -0.124   1.328  0.00  0.00    +0.022 C 
BRANCH  20  21
ATOM     21  C   UNL     1      -3.488  -0.654   1.339  0.00  0.00    +0.227 C 
BRANCH  21  22
ATOM     22  O   UNL     1      -4.121  -0.291   2.568  0.00  0.00    -0.492 OA
BRANCH  22  23
ATOM     23  C   UNL     1      -5.409  -0.688   2.740  0.00  0.00    +0.122 A 
ATOM     24  C   UNL     1      -6.050  -1.416   1.748  0.00  0.00    +0.046 A 
ATOM     25  C   UNL     1      -7.359  -1.819   1.924  0.00  0.00    +0.005 A 
ATOM     26  C   UNL     1      -8.032  -1.497   3.088  0.00  0.00    +0.020 A 
ATOM     27  C   UNL     1      -7.396  -0.770   4.079  0.00  0.00    +0.044 A 
ATOM     28  C   UNL     1      -6.084  -0.370   3.909  0.00  0.00    +0.065 A 
ATOM     29 CL   UNL     1      -8.245  -0.367   5.539  0.00  0.00    -0.083 Cl
ENDBRANCH  22  23
ENDBRANCH  21  22
ENDBRANCH  20  21
ENDBRANCH  19  20
ENDBRANCH  17  19
ENDBRANCH   1  17
TORSDOF 9
