REMARK  Name = ZINC65740697
REMARK  8 active torsions:
REMARK  status: ('A' for Active; 'I' for Inactive)
REMARK    1  A    between atoms: N_7  and  C_8
REMARK    2  A    between atoms: C_12  and  C_15
REMARK    3  A    between atoms: C_15  and  O_16
REMARK    4  A    between atoms: O_16  and  P_17
REMARK    5  A    between atoms: P_17  and  O_20
REMARK    6  A    between atoms: O_20  and  P_21
REMARK    7  A    between atoms: P_21  and  O_24
REMARK    8  A    between atoms: O_24  and  P_25
REMARK                            x       y       z     vdW  Elec       q    Type
REMARK                         _______ _______ _______ _____ _____    ______ ____
ROOT
ATOM      1  C   UNL     1      -1.259  -0.750   0.011  0.00  0.00    +0.235 C 
ATOM      2  C   UNL     1      -1.284  -1.686  -1.226  0.00  0.00    +0.126 C 
ATOM      3  S   UNL     1      -3.069  -1.525  -1.683  0.00  0.00    -0.123 S 
ATOM      4  C   UNL     1      -3.287   0.181  -1.006  0.00  0.00    +0.204 C 
ATOM      5  O   UNL     1      -2.327   0.177   0.067  0.00  0.00    -0.340 OA
ENDROOT
BRANCH   1  12
ATOM      6  C   UNL     1      -0.016   1.360   0.009  0.00  0.00    +0.135 A 
ATOM      7  C   UNL     1       1.157   2.038   0.002  0.00  0.00    +0.179 A 
ATOM      8  C   UNL     1       2.366   1.311  -0.013  0.00  0.00    +0.159 A 
ATOM      9  N   UNL     1       2.333  -0.015  -0.020  0.00  0.00    -0.175 NA
ATOM     10  C   UNL     1       1.173  -0.668  -0.013  0.00  0.00    +0.352 A 
ATOM     11  O   UNL     1       1.170  -1.888  -0.019  0.00  0.00    -0.244 OA
ATOM     12  N   UNL     1       0.002  -0.004   0.002  0.00  0.00    -0.269 N 
ATOM     13  N   UNL     1       3.572   1.973  -0.022  0.00  0.00    -0.341 N 
ATOM     14  F   UNL     1       1.169   3.389   0.009  0.00  0.00    -0.200 F 
ATOM     15  H   UNL     1       3.593   2.943  -0.017  0.00  0.00    +0.144 HD
ATOM     16  H   UNL     1       4.402   1.470  -0.033  0.00  0.00    +0.144 HD
ENDBRANCH   1  12
BRANCH   4  17
ATOM     17  C   UNL     1      -4.708   0.387  -0.479  0.00  0.00    +0.215 C 
BRANCH  17  18
ATOM     18  O   UNL     1      -4.982  -0.577   0.540  0.00  0.00    -0.281 OA
BRANCH  18  19
ATOM     19  P   UNL     1      -6.390  -0.654   1.318  0.00  0.00    +0.513 P 
ATOM     20  O   UNL     1      -6.707   0.722   1.945  0.00  0.00    -0.224 OA
ATOM     21  O   UNL     1      -7.508  -1.037   0.324  0.00  0.00    -0.116 OA
BRANCH  19  22
ATOM     22  O   UNL     1      -6.301  -1.766   2.479  0.00  0.00    -0.183 OA
BRANCH  22  23
ATOM     23  P   UNL     1      -7.203  -2.112   3.767  0.00  0.00    +0.522 P 
ATOM     24  O   UNL     1      -7.664  -0.801   4.441  0.00  0.00    -0.224 OA
ATOM     25  O   UNL     1      -8.439  -2.927   3.326  0.00  0.00    -0.116 OA
BRANCH  23  26
ATOM     26  O   UNL     1      -6.336  -2.977   4.813  0.00  0.00    -0.181 OA
BRANCH  26  27
ATOM     27  P   UNL     1      -6.519  -3.368   6.364  0.00  0.00    +0.540 P 
ATOM     28  O   UNL     1      -7.075  -2.133   7.151  0.00  0.00    -0.222 OA
ATOM     29  O   UNL     1      -7.526  -4.562   6.486  0.00  0.00    -0.114 OA
ATOM     30  O   UNL     1      -5.134  -3.789   6.963  0.00  0.00    -0.114 OA
ENDBRANCH  26  27
ENDBRANCH  23  26
ENDBRANCH  22  23
ENDBRANCH  19  22
ENDBRANCH  18  19
ENDBRANCH  17  18
ENDBRANCH   4  17
TORSDOF 8
