REMARK  Name = ZINC31174313
REMARK  14 active torsions:
REMARK  status: ('A' for Active; 'I' for Inactive)
REMARK    1  A    between atoms: C_1  and  C_2
REMARK    2  A    between atoms: C_2  and  C_3
REMARK    3  A    between atoms: C_3  and  C_4
REMARK    4  A    between atoms: C_4  and  N_5
REMARK    5  A    between atoms: C_6  and  N_35
REMARK    6  A    between atoms: C_7  and  N_14
REMARK    7  A    between atoms: N_14  and  C_15
REMARK    8  A    between atoms: C_15  and  C_16
REMARK    9  A    between atoms: C_17  and  C_19
REMARK   10  A    between atoms: C_19  and  N_20
REMARK   11  A    between atoms: N_20  and  C_21
REMARK   12  A    between atoms: N_20  and  C_23
REMARK   13  A    between atoms: C_21  and  C_22
REMARK   14  A    between atoms: C_23  and  C_24
REMARK                            x       y       z     vdW  Elec       q    Type
REMARK                         _______ _______ _______ _____ _____    ______ ____
ROOT
ATOM      1  N   UNL     1       1.282  11.173  -0.502  0.00  0.00    -0.266 N 
ATOM      2  C   UNL     1       0.848  10.033  -1.079  0.00  0.00    +0.203 C 
ATOM      3  O   UNL     1       1.312   9.676  -2.142  0.00  0.00    -0.277 OA
ENDROOT
BRANCH   1   6
ATOM      4  N   UNL     1       4.331  12.390  -2.151  0.00  0.00    -0.280 N 
ATOM      5  C   UNL     1       3.466  11.557  -1.481  0.00  0.00    +0.127 A 
ATOM      6  C   UNL     1       2.195  12.005  -1.183  0.00  0.00    +0.140 A 
ATOM      7  C   UNL     1       1.827  13.309  -1.566  0.00  0.00    +0.277 A 
ATOM      8  O   UNL     1       0.712  13.732  -1.311  0.00  0.00    -0.266 OA
ATOM      9  N   UNL     1       2.715  14.087  -2.216  0.00  0.00    -0.273 N 
ATOM     10  H   UNL     1       2.436  15.107  -2.518  0.00  0.00    +0.173 HD
ATOM     11  C   UNL     1       3.948  13.631  -2.502  0.00  0.00    +0.331 A 
ATOM     12  O   UNL     1       4.730  14.354  -3.089  0.00  0.00    -0.246 OA
BRANCH   5  13
ATOM     13  N   UNL     1       3.860  10.292  -1.117  0.00  0.00    -0.343 N 
ATOM     14  H   UNL     1       3.162   9.632  -0.582  0.00  0.00    +0.144 HD
ATOM     15  H   UNL     1       4.873   9.940  -1.361  0.00  0.00    +0.144 HD
ENDBRANCH   5  13
BRANCH   4  16
ATOM     16  C   UNL     1       5.681  11.925  -2.479  0.00  0.00    +0.128 C 
BRANCH  16  17
ATOM     17  C   UNL     1       6.632  12.269  -1.330  0.00  0.00    +0.021 C 
BRANCH  17  19
ATOM     18  C   UNL     1       8.992  12.127  -0.523  0.00  0.00    +0.004 C 
ATOM     19  C   UNL     1       8.042  11.784  -1.672  0.00  0.00    -0.002 C 
ENDBRANCH  17  19
ENDBRANCH  16  17
ENDBRANCH   4  16
ENDBRANCH   1   6
BRANCH   1  20
ATOM     20  C   UNL     1       0.804  11.546   0.831  0.00  0.00    +0.110 C 
ATOM     21  C   UNL     1       1.787  11.035   1.887  0.00  0.00    +0.025 C 
ENDBRANCH   1  20
BRANCH   2  22
ATOM     22  C   UNL     1      -0.213   9.203  -0.404  0.00  0.00    +0.019 C 
BRANCH  22  23
ATOM     23  N   UNL     1      -0.545   8.049  -1.251  0.00  0.00    +0.388 N 
ATOM     24  H   UNL     1      -0.591   8.397  -2.293  0.00  0.00    -0.081 HD
BRANCH  23  25
ATOM     25  C   UNL     1      -1.861   7.500  -0.900  0.00  0.00    -0.081 C 
ATOM     26  C   UNL     1      -2.957   8.453  -1.384  0.00  0.00    -0.017 C 
ENDBRANCH  23  25
BRANCH  23  27
ATOM     27  C   UNL     1       0.496   7.016  -1.165  0.00  0.00    -0.030 C 
BRANCH  27  28
ATOM     28  C   UNL     1       0.248   5.952  -2.236  0.00  0.00    +0.195 C 
ATOM     29  C   UNL     1       1.258   4.808  -2.072  0.00  0.00    +0.271 C 
ATOM     30  O   UNL     1       1.007   3.839  -3.096  0.00  0.00    -0.485 OA
ATOM     31  C   UNL     1       0.830   4.316  -4.359  0.00  0.00    +0.162 A 
ATOM     32  C   UNL     1       0.940   3.448  -5.435  0.00  0.00    +0.049 A 
ATOM     33  C   UNL     1       0.766   3.918  -6.723  0.00  0.00    +0.004 A 
ATOM     34  C   UNL     1       0.471   5.251  -6.941  0.00  0.00    +0.004 A 
ATOM     35  C   UNL     1       0.355   6.119  -5.873  0.00  0.00    +0.049 A 
ATOM     36  C   UNL     1       0.536   5.656  -4.578  0.00  0.00    +0.162 A 
ATOM     37  O   UNL     1       0.427   6.525  -3.536  0.00  0.00    -0.484 OA
ENDBRANCH  27  28
ENDBRANCH  23  27
ENDBRANCH  22  23
ENDBRANCH   2  22
TORSDOF 11
