REMARK  Name = ZINC05844792
REMARK  8 active torsions:
REMARK  status: ('A' for Active; 'I' for Inactive)
REMARK    1  A    between atoms: C_10  and  C_13
REMARK    2  A    between atoms: C_13  and  C_15
REMARK    3  A    between atoms: C_13  and  O_32
REMARK    4  A    between atoms: C_15  and  N_53
REMARK    5  A    between atoms: C_16  and  C_17
REMARK    6  A    between atoms: C_16  and  N_53
REMARK    7  A    between atoms: C_17  and  C_19
REMARK    8  A    between atoms: C_17  and  O_31
REMARK                            x       y       z     vdW  Elec       q    Type
REMARK                         _______ _______ _______ _____ _____    ______ ____
ROOT
ATOM      1  N   UNL     1       1.331   1.536   2.446  0.00  0.00    +0.383 N 
ATOM      2  H   UNL     1       1.236   2.559   2.445  0.00  0.00    -0.086 HD
ATOM      3  H   UNL     1       0.399   1.106   2.445  0.00  0.00    -0.086 HD
ENDROOT
BRANCH   1   4
ATOM      4  C   UNL     1       2.059   1.117   3.659  0.00  0.00    -0.047 C 
BRANCH   4   5
ATOM      5  C   UNL     1       1.276   1.568   4.894  0.00  0.00    +0.138 C 
BRANCH   5  15
ATOM      6  C   UNL     1       6.264   1.638   8.298  0.00  0.00    +0.042 A 
ATOM      7  C   UNL     1       5.478   1.712   7.167  0.00  0.00    +0.049 A 
ATOM      8  C   UNL     1       4.098   1.563   7.261  0.00  0.00    +0.124 A 
ATOM      9  C   UNL     1       3.515   1.336   8.496  0.00  0.00    -0.003 A 
ATOM     10  C   UNL     1       4.308   1.263   9.629  0.00  0.00    +0.045 A 
ATOM     11  C   UNL     1       5.679   1.414   9.533  0.00  0.00    +0.124 A 
ATOM     12  F   UNL     1       6.447   1.342  10.642  0.00  0.00    -0.205 F 
ATOM     13  C   UNL     1       2.025   1.164   8.641  0.00  0.00    +0.042 C 
ATOM     14  C   UNL     1       1.319   1.705   7.395  0.00  0.00    +0.052 C 
ATOM     15  C   UNL     1       2.025   1.137   6.157  0.00  0.00    +0.200 C 
ATOM     16  O   UNL     1       3.358   1.648   6.125  0.00  0.00    -0.486 OA
ENDBRANCH   5  15
BRANCH   5  17
ATOM     17  O   UNL     1       1.144   2.991   4.881  0.00  0.00    -0.390 OA
ATOM     18  H   UNL     1       1.988   3.464   4.889  0.00  0.00    +0.210 HD
ENDBRANCH   5  17
ENDBRANCH   4   5
ENDBRANCH   1   4
BRANCH   1  19
ATOM     19  C   UNL     1       2.064   1.114   1.238  0.00  0.00    -0.047 C 
BRANCH  19  20
ATOM     20  C   UNL     1       1.286   1.562  -0.002  0.00  0.00    +0.138 C 
BRANCH  20  21
ATOM     21  C   UNL     1       2.040   1.127  -1.261  0.00  0.00    +0.200 C 
ATOM     22  C   UNL     1       1.200   1.451  -2.503  0.00  0.00    +0.052 C 
ATOM     23  C   UNL     1       2.027   1.108  -3.745  0.00  0.00    +0.042 C 
ATOM     24  C   UNL     1       2.624  -0.268  -3.594  0.00  0.00    -0.003 A 
ATOM     25  C   UNL     1       3.090  -0.919  -4.724  0.00  0.00    +0.045 A 
ATOM     26  C   UNL     1       3.646  -2.182  -4.622  0.00  0.00    +0.124 A 
ATOM     27  C   UNL     1       3.740  -2.797  -3.385  0.00  0.00    +0.042 A 
ATOM     28  C   UNL     1       3.277  -2.151  -2.257  0.00  0.00    +0.049 A 
ATOM     29  C   UNL     1       2.715  -0.883  -2.357  0.00  0.00    +0.124 A 
ATOM     30  O   UNL     1       2.266  -0.282  -1.224  0.00  0.00    -0.486 OA
ATOM     31  F   UNL     1       4.098  -2.813  -5.728  0.00  0.00    -0.205 F 
ENDBRANCH  20  21
BRANCH  20  32
ATOM     32  O   UNL     1      -0.011   0.963   0.007  0.00  0.00    -0.390 OA
ATOM     33  H   UNL     1       0.002  -0.004   0.002  0.00  0.00    +0.210 HD
ENDBRANCH  20  32
ENDBRANCH  19  20
ENDBRANCH   1  19
TORSDOF 8
