REMARK  Name = ZINC63686728
REMARK  7 active torsions:
REMARK  status: ('A' for Active; 'I' for Inactive)
REMARK    1  A    between atoms: C_7  and  C_10
REMARK    2  A    between atoms: C_10  and  C_11
REMARK    3  A    between atoms: C_11  and  N_12
REMARK    4  A    between atoms: C_13  and  C_15
REMARK    5  A    between atoms: C_15  and  C_16
REMARK    6  A    between atoms: C_20  and  N_23
REMARK    7  A    between atoms: C_24  and  C_26
REMARK                            x       y       z     vdW  Elec       q    Type
REMARK                         _______ _______ _______ _____ _____    ______ ____
ROOT
ATOM      1  N   UNL     1      -0.458  -4.798  -1.460  0.00  0.00    -0.315 N 
ATOM      2  C   UNL     1      -0.811  -5.380  -2.623  0.00  0.00    +0.215 C 
ATOM      3  O   UNL     1      -0.371  -4.957  -3.671  0.00  0.00    -0.276 OA
ATOM      4  H   UNL     1      -0.810  -5.136  -0.622  0.00  0.00    +0.149 HD
ENDROOT
BRANCH   1   5
ATOM      5  C   UNL     1       0.457  -3.653  -1.462  0.00  0.00    +0.108 C 
BRANCH   5   6
ATOM      6  C   UNL     1       0.691  -3.186  -0.024  0.00  0.00    +0.052 C 
BRANCH   6  13
ATOM      7  C   UNL     1      -0.016   1.348   0.009  0.00  0.00    +0.001 A 
ATOM      8  C   UNL     1       1.166   2.101   0.002  0.00  0.00    +0.002 A 
ATOM      9  C   UNL     1       2.391   1.535  -0.013  0.00  0.00    +0.026 A 
ATOM     10  C   UNL     1       2.529   0.120  -0.022  0.00  0.00    +0.043 A 
ATOM     11  N   UNL     1       3.587  -0.654  -0.037  0.00  0.00    -0.380 N 
ATOM     12  C   UNL     1       3.143  -2.053  -0.041  0.00  0.00    +0.144 C 
ATOM     13  C   UNL     1       1.631  -2.008  -0.025  0.00  0.00    -0.040 C 
ATOM     14  C   UNL     1       1.295  -0.698  -0.014  0.00  0.00    -0.001 A 
ATOM     15  C   UNL     1       0.002  -0.004   0.002  0.00  0.00    +0.010 A 
ATOM     16  H   UNL     1       4.509  -0.353  -0.045  0.00  0.00    +0.160 HD
ENDBRANCH   6  13
ENDBRANCH   5   6
ENDBRANCH   1   5
BRANCH   2  17
ATOM     17  C   UNL     1      -1.752  -6.557  -2.622  0.00  0.00    +0.115 C 
BRANCH  17  18
ATOM     18  C   UNL     1      -1.986  -7.025  -4.059  0.00  0.00    +0.075 C 
ATOM     19  C   UNL     1      -3.105  -8.095  -4.052  0.00  0.00    +0.091 C 
ATOM     20  S   UNL     1      -2.458  -9.246  -5.346  0.00  0.00    -0.121 S 
ATOM     21  C   UNL     1      -0.667  -8.898  -5.059  0.00  0.00    +0.202 C 
ATOM     22  N   UNL     1      -0.718  -7.489  -4.607  0.00  0.00    -0.286 NA
ATOM     23  H   UNL     1      -0.387  -6.869  -5.331  0.00  0.00    +0.125 HD
BRANCH  21  24
ATOM     24  N   UNL     1       0.101  -9.030  -6.299  0.00  0.00    -0.285 N 
ATOM     25  C   UNL     1       0.402 -10.253  -6.779  0.00  0.00    +0.281 C 
ATOM     26  O   UNL     1       0.036 -11.248  -6.181  0.00  0.00    -0.267 OA
ATOM     27  H   UNL     1       0.392  -8.237  -6.776  0.00  0.00    +0.151 HD
BRANCH  25  28
ATOM     28  C   UNL     1       1.171 -10.385  -8.021  0.00  0.00    +0.189 A 
ATOM     29  C   UNL     1       1.538 -11.557  -8.616  0.00  0.00    +0.054 A 
ATOM     30  C   UNL     1       2.254 -11.215  -9.774  0.00  0.00    +0.042 A 
ATOM     31  C   UNL     1       2.292  -9.865  -9.833  0.00  0.00    +0.196 A 
ATOM     32  O   UNL     1       1.634  -9.369  -8.778  0.00  0.00    -0.458 OA
ENDBRANCH  25  28
ENDBRANCH  21  24
ENDBRANCH  17  18
ENDBRANCH   2  17
TORSDOF 7
