REMARK  Name = ZINC09057599
REMARK  11 active torsions:
REMARK  status: ('A' for Active; 'I' for Inactive)
REMARK    1  A    between atoms: C_1  and  C_2
REMARK    2  A    between atoms: C_2  and  C_3
REMARK    3  A    between atoms: C_2  and  C_4
REMARK    4  A    between atoms: C_4  and  C_6
REMARK    5  A    between atoms: C_4  and  N_14
REMARK    6  A    between atoms: C_13  and  N_65
REMARK    7  A    between atoms: C_15  and  C_17
REMARK    8  A    between atoms: C_22  and  N_23
REMARK    9  A    between atoms: C_24  and  C_26
REMARK   10  A    between atoms: C_29  and  O_32
REMARK   11  A    between atoms: O_32  and  C_33
REMARK                            x       y       z     vdW  Elec       q    Type
REMARK                         _______ _______ _______ _____ _____    ______ ____
ROOT
ATOM      1  N   UNL     1      -2.288   0.003  -4.240  0.00  0.00    -0.300 N 
ATOM      2  C   UNL     1      -2.578   0.081  -5.554  0.00  0.00    +0.246 C 
ATOM      3  O   UNL     1      -2.572   1.160  -6.114  0.00  0.00    -0.270 OA
ATOM      4  H   UNL     1      -2.293  -0.858  -3.792  0.00  0.00    +0.150 HD
ENDROOT
BRANCH   2   5
ATOM      5  C   UNL     1      -2.902  -1.142  -6.311  0.00  0.00    +0.058 A 
ATOM      6  C   UNL     1      -2.811  -2.394  -5.698  0.00  0.00    +0.015 A 
ATOM      7  C   UNL     1      -3.116  -3.533  -6.411  0.00  0.00    +0.001 A 
ATOM      8  C   UNL     1      -3.512  -3.444  -7.736  0.00  0.00    +0.002 A 
ATOM      9  C   UNL     1      -3.607  -2.214  -8.355  0.00  0.00    +0.024 A 
ATOM     10  C   UNL     1      -3.310  -1.055  -7.651  0.00  0.00    +0.046 A 
BRANCH  10  11
ATOM     11  N   UNL     1      -3.410   0.186  -8.272  0.00  0.00    -0.281 N 
ATOM     12  C   UNL     1      -4.370   0.403  -9.193  0.00  0.00    +0.248 C 
ATOM     13  O   UNL     1      -5.205  -0.452  -9.414  0.00  0.00    -0.270 OA
ATOM     14  H   UNL     1      -2.789   0.895  -8.043  0.00  0.00    +0.155 HD
BRANCH  12  15
ATOM     15  C   UNL     1      -4.406   1.679  -9.934  0.00  0.00    +0.037 A 
ATOM     16  C   UNL     1      -3.450   2.666  -9.678  0.00  0.00    +0.016 A 
ATOM     17  C   UNL     1      -3.485   3.853 -10.375  0.00  0.00    +0.046 A 
ATOM     18  C   UNL     1      -4.476   4.075 -11.325  0.00  0.00    +0.120 A 
ATOM     19  C   UNL     1      -5.432   3.098 -11.579  0.00  0.00    +0.046 A 
ATOM     20  C   UNL     1      -5.401   1.906 -10.890  0.00  0.00    +0.016 A 
BRANCH  18  21
ATOM     21  O   UNL     1      -4.510   5.248 -12.005  0.00  0.00    -0.495 OA
ATOM     22  C   UNL     1      -3.498   6.208 -11.695  0.00  0.00    +0.277 C 
ENDBRANCH  18  21
ENDBRANCH  12  15
ENDBRANCH  10  11
ENDBRANCH   2   5
BRANCH   1  23
ATOM     23  C   UNL     1      -1.966   1.218  -3.487  0.00  0.00    +0.162 C 
BRANCH  23  24
ATOM     24  C   UNL     1      -1.118   0.859  -2.294  0.00  0.00    +0.236 C 
ATOM     25  O   UNL     1      -0.959  -0.304  -1.991  0.00  0.00    -0.274 OA
ATOM     26  N   UNL     1      -0.538   1.832  -1.563  0.00  0.00    -0.303 N 
ATOM     27  C   UNL     1      -0.663   3.245  -1.952  0.00  0.00    +0.089 C 
ATOM     28  C   UNL     1       0.736   3.870  -1.986  0.00  0.00    -0.060 C 
ATOM     29  C   UNL     1       1.603   2.197  -0.455  0.00  0.00    -0.060 C 
ATOM     30  C   UNL     1       0.238   1.508  -0.356  0.00  0.00    +0.089 C 
ATOM     31  C   UNL     1       2.682   4.358  -0.631  0.00  0.00    -0.096 C 
ATOM     32  N   UNL     1       1.389   3.645  -0.677  0.00  0.00    +0.380 N 
ATOM     33  H   UNL     1       0.781   4.009   0.065  0.00  0.00    -0.082 HD
ENDBRANCH  23  24
BRANCH  23  35
ATOM     34  C   UNL     1      -4.116   2.256  -4.224  0.00  0.00    +0.009 C 
ATOM     35  C   UNL     1      -3.260   1.882  -3.012  0.00  0.00    +0.012 C 
ATOM     36  C   UNL     1      -4.035   0.910  -2.121  0.00  0.00    +0.009 C 
ENDBRANCH  23  35
ENDBRANCH   1  23
TORSDOF 7
