REMARK  Name = ZINC15499993
REMARK  12 active torsions:
REMARK  status: ('A' for Active; 'I' for Inactive)
REMARK    1  A    between atoms: C_1  and  C_2
REMARK    2  A    between atoms: C_5  and  O_27
REMARK    3  A    between atoms: C_6  and  C_8
REMARK    4  A    between atoms: C_8  and  C_10
REMARK    5  A    between atoms: C_8  and  N_51
REMARK    6  A    between atoms: C_11  and  C_13
REMARK    7  A    between atoms: C_11  and  C_14
REMARK    8  A    between atoms: C_11  and  N_51
REMARK    9  A    between atoms: N_16  and  C_17
REMARK   10  A    between atoms: C_20  and  S_23
REMARK   11  A    between atoms: S_23  and  N_26
REMARK   12  A    between atoms: O_27  and  C_28
REMARK                            x       y       z     vdW  Elec       q    Type
REMARK                         _______ _______ _______ _____ _____    ______ ____
ROOT
ATOM      1  C   UNL     1       0.109  -0.524  -1.368  0.00  0.00    +0.014 C 
ATOM      2  C   UNL     1      -1.284  -0.614  -1.993  0.00  0.00    -0.004 C 
ENDROOT
BRANCH   1   3
ATOM      3  C   UNL     1       0.735  -1.895  -1.337  0.00  0.00    +0.203 C 
ATOM      4  O   UNL     1       1.058  -2.390  -0.278  0.00  0.00    -0.277 OA
ATOM      5  N   UNL     1       0.936  -2.570  -2.486  0.00  0.00    -0.287 N 
ATOM      6  H   UNL     1       0.618  -2.204  -3.326  0.00  0.00    +0.155 HD
BRANCH   5   7
ATOM      7  C   UNL     1       1.605  -3.799  -2.467  0.00  0.00    +0.033 A 
ATOM      8  C   UNL     1       2.434  -4.157  -3.522  0.00  0.00    +0.025 A 
ATOM      9  C   UNL     1       3.096  -5.369  -3.498  0.00  0.00    +0.030 A 
ATOM     10  C   UNL     1       2.925  -6.230  -2.430  0.00  0.00    +0.105 A 
ATOM     11  C   UNL     1       2.096  -5.880  -1.381  0.00  0.00    +0.030 A 
ATOM     12  C   UNL     1       1.435  -4.667  -1.396  0.00  0.00    +0.025 A 
BRANCH  10  13
ATOM     13  S   UNL     1       3.767  -7.778  -2.407  0.00  0.00    +0.056 S 
ATOM     14  O   UNL     1       4.906  -7.634  -3.244  0.00  0.00    -0.153 OA
ATOM     15  O   UNL     1       3.867  -8.165  -1.043  0.00  0.00    -0.153 OA
BRANCH  13  16
ATOM     16  N   UNL     1       2.777  -8.885  -3.141  0.00  0.00    -0.204 NA
ATOM     17  H   UNL     1       1.912  -8.610  -3.483  0.00  0.00    +0.144 HD
ATOM     18  H   UNL     1       3.063  -9.808  -3.228  0.00  0.00    +0.144 HD
ENDBRANCH  13  16
ENDBRANCH  10  13
ENDBRANCH   5   7
ENDBRANCH   1   3
BRANCH   1  19
ATOM     19  N   UNL     1      -0.001  -0.011   0.011  0.00  0.00    +0.391 N 
ATOM     20  H   UNL     1      -0.867  -0.365   0.436  0.00  0.00    -0.084 HD
ATOM     21  H   UNL     1       0.805  -0.334   0.558  0.00  0.00    -0.084 HD
BRANCH  19  22
ATOM     22  C   UNL     1      -0.029   1.464   0.008  0.00  0.00    -0.039 C 
ATOM     23  C   UNL     1       1.403   2.001  -0.011  0.00  0.00    -0.009 C 
BRANCH  22  29
ATOM     24  C   UNL     1      -1.454   0.723   4.747  0.00  0.00    +0.044 C 
ATOM     25  C   UNL     1      -1.414   1.594   3.518  0.00  0.00    -0.050 A 
ATOM     26  C   UNL     1      -2.022   2.836   3.532  0.00  0.00    +0.007 A 
ATOM     27  C   UNL     1      -1.987   3.636   2.407  0.00  0.00    +0.046 A 
ATOM     28  C   UNL     1      -1.341   3.194   1.262  0.00  0.00    +0.122 A 
ATOM     29  C   UNL     1      -0.732   1.948   1.250  0.00  0.00    -0.020 A 
ATOM     30  C   UNL     1      -0.774   1.149   2.376  0.00  0.00    +0.009 A 
BRANCH  28  31
ATOM     31  O   UNL     1      -1.306   3.979   0.154  0.00  0.00    -0.495 OA
ATOM     32  C   UNL     1      -1.954   5.250   0.238  0.00  0.00    +0.277 C 
ENDBRANCH  28  31
ENDBRANCH  22  29
ENDBRANCH  19  22
ENDBRANCH   1  19
TORSDOF 8
