REMARK  Name = ZINC13940373
REMARK  6 active torsions:
REMARK  status: ('A' for Active; 'I' for Inactive)
REMARK    1  A    between atoms: C_5  and  C_7
REMARK    2  A    between atoms: C_7  and  C_22
REMARK    3  A    between atoms: N_8  and  N_9
REMARK    4  A    between atoms: N_9  and  C_10
REMARK    5  A    between atoms: C_13  and  N_19
REMARK    6  A    between atoms: C_15  and  N_16
REMARK                            x       y       z     vdW  Elec       q    Type
REMARK                         _______ _______ _______ _____ _____    ______ ____
ROOT
ATOM      1  C   UNL     1       3.538  -0.650   0.039  0.00  0.00    +0.098 C 
ATOM      2  N   UNL     1       4.716   0.031   0.029  0.00  0.00    -0.181 NA
ENDROOT
BRANCH   1   3
ATOM      3  C   UNL     1       2.313   0.053  -0.035  0.00  0.00    +0.006 A 
ATOM      4  C   UNL     1       1.094  -0.653  -0.153  0.00  0.00    +0.014 A 
ATOM      5  C   UNL     1      -0.081   0.029  -0.228  0.00  0.00    +0.050 A 
ATOM      6  C   UNL     1      -0.089   1.427  -0.185  0.00  0.00    +0.162 A 
ATOM      7  C   UNL     1       1.116   2.136  -0.063  0.00  0.00    +0.163 A 
ATOM      8  C   UNL     1       2.302   1.462   0.010  0.00  0.00    +0.059 A 
ATOM      9  O   UNL     1       1.119   3.496  -0.011  0.00  0.00    -0.485 OA
ATOM     10  C   UNL     1      -0.068   4.158  -0.461  0.00  0.00    +0.270 C 
ATOM     11  C   UNL     1      -1.279   3.451   0.161  0.00  0.00    +0.270 C 
ATOM     12  O   UNL     1      -1.271   2.085  -0.270  0.00  0.00    -0.485 OA
ENDBRANCH   1   3
BRANCH   1  17
ATOM     13  C   UNL     1       4.055  -4.247  -0.840  0.00  0.00    +0.001 A 
ATOM     14  C   UNL     1       3.542  -4.877   0.286  0.00  0.00    +0.001 A 
ATOM     15  C   UNL     1       3.026  -4.133   1.334  0.00  0.00    +0.020 A 
ATOM     16  C   UNL     1       3.024  -2.755   1.268  0.00  0.00    +0.050 A 
ATOM     17  C   UNL     1       3.538  -2.113   0.126  0.00  0.00    +0.021 A 
ATOM     18  C   UNL     1       4.058  -2.885  -0.928  0.00  0.00    +0.011 A 
ATOM     19 CL   UNL     1       2.385  -1.819   2.583  0.00  0.00    -0.083 Cl
ENDBRANCH   1  17
BRANCH   2  20
ATOM     20  N   UNL     1       5.833  -0.613   0.014  0.00  0.00    -0.235 N 
ATOM     21  H   UNL     1       5.837  -1.580   0.086  0.00  0.00    +0.174 HD
BRANCH  20  22
ATOM     22  C   UNL     1       7.020   0.072  -0.105  0.00  0.00    +0.079 A 
ATOM     23  C   UNL     1       7.028   1.471  -0.095  0.00  0.00    +0.029 A 
ATOM     24  C   UNL     1       8.220   2.151  -0.214  0.00  0.00    +0.035 A 
ATOM     25  C   UNL     1       9.410   1.451  -0.344  0.00  0.00    +0.128 A 
ATOM     26  C   UNL     1       9.410   0.066  -0.354  0.00  0.00    +0.067 A 
ATOM     27  C   UNL     1       8.225  -0.627  -0.231  0.00  0.00    +0.151 A 
BRANCH  27  28
ATOM     28  N   UNL     1       8.227  -2.107  -0.235  0.00  0.00    +0.058 N 
ATOM     29  O   UNL     1       9.369  -2.764  -0.228  0.00  0.00    -0.126 OA
ATOM     30  O   UNL     1       7.088  -2.767  -0.247  0.00  0.00    -0.126 OA
ENDBRANCH  27  28
BRANCH  25  31
ATOM     31  N   UNL     1      10.688   2.188  -0.472  0.00  0.00    +0.056 N 
ATOM     32  O   UNL     1      10.692   3.506  -0.462  0.00  0.00    -0.126 OA
ATOM     33  O   UNL     1      11.820   1.527  -0.595  0.00  0.00    -0.126 OA
ENDBRANCH  25  31
ENDBRANCH  20  22
ENDBRANCH   2  20
TORSDOF 6
