REMARK  Name = ZINC47835569
REMARK  12 active torsions:
REMARK  status: ('A' for Active; 'I' for Inactive)
REMARK    1  A    between atoms: C_1  and  C_2
REMARK    2  A    between atoms: C_2  and  C_3
REMARK    3  A    between atoms: C_2  and  N_4
REMARK    4  A    between atoms: N_4  and  S_5
REMARK    5  A    between atoms: S_5  and  C_8
REMARK    6  A    between atoms: C_12  and  C_14
REMARK    7  A    between atoms: C_14  and  N_15
REMARK    8  A    between atoms: N_18  and  C_19
REMARK    9  A    between atoms: C_19  and  C_20
REMARK   10  A    between atoms: C_20  and  N_25
REMARK   11  A    between atoms: N_25  and  C_26
REMARK   12  A    between atoms: N_25  and  C_27
REMARK                            x       y       z     vdW  Elec       q    Type
REMARK                         _______ _______ _______ _____ _____    ______ ____
ROOT
ATOM      1  N   UNL     1      -1.091  -6.494  -0.570  0.00  0.00    -0.295 N 
ATOM      2  C   UNL     1      -1.132  -7.772  -0.144  0.00  0.00    +0.300 C 
ATOM      3  O   UNL     1      -1.845  -8.579  -0.710  0.00  0.00    -0.253 OA
ATOM      4  N   UNL     1      -0.382  -8.157   0.907  0.00  0.00    -0.301 N 
ATOM      5  H   UNL     1      -0.522  -5.851  -0.119  0.00  0.00    +0.151 HD
ATOM      6  H   UNL     1       0.187  -7.514   1.358  0.00  0.00    +0.150 HD
ENDROOT
BRANCH   1   7
ATOM      7  C   UNL     1      -1.906  -6.076  -1.713  0.00  0.00    +0.141 C 
BRANCH   7  12
ATOM      8  C   UNL     1      -2.268  -2.320  -1.613  0.00  0.00    +0.106 A 
ATOM      9  C   UNL     1      -1.265  -1.923  -2.478  0.00  0.00    +0.028 A 
ATOM     10  C   UNL     1      -0.470  -2.870  -3.095  0.00  0.00    +0.002 A 
ATOM     11  C   UNL     1      -0.677  -4.214  -2.847  0.00  0.00    +0.005 A 
ATOM     12  C   UNL     1      -1.680  -4.611  -1.982  0.00  0.00    -0.028 A 
ATOM     13  C   UNL     1      -2.473  -3.663  -1.362  0.00  0.00    +0.033 A 
BRANCH   8  14
ATOM     14  S   UNL     1      -3.282  -1.112  -0.826  0.00  0.00    +0.059 S 
ATOM     15  O   UNL     1      -4.497  -1.764  -0.482  0.00  0.00    -0.153 OA
ATOM     16  O   UNL     1      -3.245   0.047  -1.648  0.00  0.00    -0.153 OA
BRANCH  14  17
ATOM     17  N   UNL     1      -2.543  -0.706   0.599  0.00  0.00    -0.187 NA
ATOM     18  H   UNL     1      -2.973  -0.913   1.444  0.00  0.00    +0.148 HD
BRANCH  17  20
ATOM     19  C   UNL     1      -1.447   1.479   0.681  0.00  0.00    +0.025 C 
ATOM     20  C   UNL     1      -1.242  -0.034   0.584  0.00  0.00    +0.070 C 
ATOM     21  C   UNL     1      -0.406  -0.513   1.772  0.00  0.00    +0.025 C 
ENDBRANCH  17  20
ENDBRANCH  14  17
ENDBRANCH   8  14
ENDBRANCH   7  12
ENDBRANCH   1   7
BRANCH   4  22
ATOM     22  C   UNL     1      -0.426  -9.547   1.369  0.00  0.00    +0.094 C 
BRANCH  22  23
ATOM     23  C   UNL     1       0.593  -9.743   2.494  0.00  0.00    -0.050 C 
ATOM     24  C   UNL     1       2.022  -9.521   1.957  0.00  0.00    -0.010 C 
ATOM     25  C   UNL     1       2.877 -10.572   2.706  0.00  0.00    -0.001 C 
ATOM     26  C   UNL     1       1.934 -11.800   2.767  0.00  0.00    -0.001 C 
ATOM     27  C   UNL     1       0.537 -11.192   3.009  0.00  0.00    -0.010 C 
BRANCH  23  28
ATOM     28  N   UNL     1       0.316  -8.807   3.592  0.00  0.00    +0.381 N 
ATOM     29  C   UNL     1      -1.019  -9.078   4.142  0.00  0.00    -0.096 C 
ATOM     30  C   UNL     1       1.324  -8.979   4.647  0.00  0.00    -0.096 C 
ATOM     31  H   UNL     1       0.351  -7.861   3.244  0.00  0.00    -0.082 HD
ENDBRANCH  23  28
ENDBRANCH  22  23
ENDBRANCH   4  22
TORSDOF 8
