REMARK  Name = ZINC65977249
REMARK  9 active torsions:
REMARK  status: ('A' for Active; 'I' for Inactive)
REMARK    1  A    between atoms: C_1  and  C_2
REMARK    2  A    between atoms: C_5  and  S_8
REMARK    3  A    between atoms: S_8  and  N_11
REMARK    4  A    between atoms: N_11  and  C_12
REMARK    5  A    between atoms: C_12  and  C_13
REMARK    6  A    between atoms: C_13  and  N_14
REMARK    7  A    between atoms: N_14  and  C_15
REMARK    8  A    between atoms: C_15  and  C_16
REMARK    9  A    between atoms: C_21  and  C_22
REMARK                            x       y       z     vdW  Elec       q    Type
REMARK                         _______ _______ _______ _____ _____    ______ ____
ROOT
ATOM      1  N   UNL     1       4.620  -5.465   2.226  0.00  0.00    +0.383 N 
ATOM      2  H   UNL     1       4.733  -4.463   2.188  0.00  0.00    -0.085 HD
ATOM      3  H   UNL     1       4.218  -5.724   3.114  0.00  0.00    -0.085 HD
ENDROOT
BRANCH   1   4
ATOM      4  C   UNL     1       3.730  -5.898   1.140  0.00  0.00    -0.065 C 
BRANCH   4   5
ATOM      5  C   UNL     1       2.366  -5.224   1.299  0.00  0.00    +0.087 C 
BRANCH   5   6
ATOM      6  N   UNL     1       1.479  -5.657   0.216  0.00  0.00    -0.192 NA
ATOM      7  H   UNL     1       1.847  -6.097  -0.566  0.00  0.00    +0.148 HD
BRANCH   6   8
ATOM      8  S   UNL     1      -0.152  -5.393   0.327  0.00  0.00    +0.058 S 
ATOM      9  O   UNL     1      -0.551  -5.851   1.612  0.00  0.00    -0.153 OA
ATOM     10  O   UNL     1      -0.727  -5.894  -0.872  0.00  0.00    -0.153 OA
BRANCH   8  15
ATOM     11  C   UNL     1      -1.005   0.580   0.285  0.00  0.00    +0.044 C 
ATOM     12  C   UNL     1      -0.792  -0.912   0.295  0.00  0.00    -0.050 A 
ATOM     13  C   UNL     1      -0.778  -1.617  -0.894  0.00  0.00    +0.005 A 
ATOM     14  C   UNL     1      -0.583  -2.985  -0.884  0.00  0.00    +0.029 A 
ATOM     15  C   UNL     1      -0.401  -3.649   0.315  0.00  0.00    +0.105 A 
ATOM     16  C   UNL     1      -0.414  -2.944   1.504  0.00  0.00    +0.029 A 
ATOM     17  C   UNL     1      -0.605  -1.575   1.494  0.00  0.00    +0.005 A 
ENDBRANCH   8  15
ENDBRANCH   6   8
ENDBRANCH   5   6
ENDBRANCH   4   5
ENDBRANCH   1   4
BRANCH   1  18
ATOM     18  C   UNL     1       5.930  -6.112   2.074  0.00  0.00    -0.043 C 
BRANCH  18  19
ATOM     19  C   UNL     1       6.837  -5.679   3.196  0.00  0.00    -0.019 A 
ATOM     20  C   UNL     1       7.833  -4.771   3.108  0.00  0.00    +0.107 A 
ATOM     21  N   UNL     1       8.408  -4.663   4.326  0.00  0.00    -0.284 N 
ATOM     22  H   UNL     1       9.150  -4.083   4.556  0.00  0.00    +0.188 HD
ATOM     23  N   UNL     1       7.745  -5.535   5.199  0.00  0.00    -0.174 NA
ATOM     24  C   UNL     1       6.794  -6.145   4.525  0.00  0.00    +0.094 A 
BRANCH  24  25
ATOM     25  C   UNL     1       5.845  -7.149   5.067  0.00  0.00    +0.002 A 
ATOM     26  C   UNL     1       5.244  -6.944   6.307  0.00  0.00    +0.013 A 
ATOM     27  C   UNL     1       4.362  -7.881   6.807  0.00  0.00    +0.039 A 
ATOM     28  C   UNL     1       4.076  -9.024   6.079  0.00  0.00    +0.123 A 
ATOM     29  C   UNL     1       4.671  -9.232   4.846  0.00  0.00    +0.039 A 
ATOM     30  C   UNL     1       5.549  -8.297   4.335  0.00  0.00    +0.013 A 
ATOM     31  F   UNL     1       3.213  -9.938   6.573  0.00  0.00    -0.205 F 
ENDBRANCH  24  25
ENDBRANCH  18  19
ENDBRANCH   1  18
TORSDOF 8
