REMARK  Name = ZINC20615946
REMARK  9 active torsions:
REMARK  status: ('A' for Active; 'I' for Inactive)
REMARK    1  A    between atoms: C_1  and  C_2
REMARK    2  A    between atoms: C_2  and  O_3
REMARK    3  A    between atoms: O_3  and  C_4
REMARK    4  A    between atoms: C_7  and  C_27
REMARK    5  A    between atoms: C_9  and  C_10
REMARK    6  A    between atoms: C_10  and  N_11
REMARK    7  A    between atoms: N_28  and  N_29
REMARK    8  A    between atoms: C_30  and  C_32
REMARK    9  A    between atoms: C_36  and  N_38
REMARK                            x       y       z     vdW  Elec       q    Type
REMARK                         _______ _______ _______ _____ _____    ______ ____
ROOT
ATOM      1  C   UNL     1       2.126  12.322   0.041  0.00  0.00    +0.122 A 
ATOM      2  C   UNL     1       0.932  11.614   0.050  0.00  0.00    +0.046 A 
ATOM      3  C   UNL     1       0.946  10.236   0.043  0.00  0.00    +0.013 A 
ATOM      4  C   UNL     1       2.164   9.551   0.028  0.00  0.00    -0.005 A 
ATOM      5  C   UNL     1       3.363  10.268   0.025  0.00  0.00    +0.014 A 
ATOM      6  C   UNL     1       3.340  11.646   0.027  0.00  0.00    -0.022 A 
ENDROOT
BRANCH   4   7
ATOM      7  C   UNL     1       2.184   8.077   0.021  0.00  0.00    +0.138 C 
ATOM      8  N   UNL     1       1.069   7.413   0.028  0.00  0.00    -0.187 NA
BRANCH   8   9
ATOM      9  N   UNL     1       1.088   6.012   0.022  0.00  0.00    -0.203 N 
ATOM     10  C   UNL     1      -0.070   5.323   0.030  0.00  0.00    +0.263 C 
ATOM     11  O   UNL     1      -1.131   5.916   0.043  0.00  0.00    -0.268 OA
ATOM     12  H   UNL     1       2.048   5.475   0.009  0.00  0.00    +0.178 HD
BRANCH  10  13
ATOM     13  C   UNL     1      -0.050   3.845   0.023  0.00  0.00    +0.041 A 
ATOM     14  C   UNL     1       1.167   3.160   0.007  0.00  0.00    +0.013 A 
ATOM     15  C   UNL     1       1.178   1.781   0.000  0.00  0.00    +0.003 A 
ATOM     16  C   UNL     1      -0.013   1.076   0.008  0.00  0.00    +0.033 A 
ATOM     17  C   UNL     1      -1.222   1.748   0.017  0.00  0.00    +0.127 A 
ATOM     18  C   UNL     1      -1.248   3.127   0.031  0.00  0.00    +0.045 A 
BRANCH  17  19
ATOM     19  N   UNL     1      -2.490   0.986   0.019  0.00  0.00    +0.056 N 
ATOM     20  O   UNL     1      -2.469  -0.232   0.012  0.00  0.00    -0.126 OA
ATOM     21  O   UNL     1      -3.556   1.576   0.027  0.00  0.00    -0.126 OA
ENDBRANCH  17  19
ENDBRANCH  10  13
ENDBRANCH   8   9
ENDBRANCH   4   7
BRANCH   1  22
ATOM     22  O   UNL     1       2.108  13.681   0.048  0.00  0.00    -0.492 OA
BRANCH  22  24
ATOM     23  C   UNL     1       1.006  15.831   0.070  0.00  0.00    +0.048 C 
ATOM     24  C   UNL     1       0.826  14.312   0.064  0.00  0.00    +0.225 C 
ENDBRANCH  22  24
ENDBRANCH   1  22
BRANCH   6  25
ATOM     25  C   UNL     1       4.632  12.421   0.018  0.00  0.00    -0.039 C 
BRANCH  25  26
ATOM     26  N   UNL     1       4.941  12.872   1.382  0.00  0.00    +0.383 N 
ATOM     27  C   UNL     1       3.857  13.700   1.920  0.00  0.00    -0.073 C 
ATOM     28  C   UNL     1       4.199  14.216   3.309  0.00  0.00    -0.007 C 
ATOM     29  C   UNL     1       4.547  13.059   4.250  0.00  0.00    +0.011 C 
ATOM     30  C   UNL     1       5.705  12.281   3.616  0.00  0.00    +0.020 C 
ATOM     31  C   UNL     1       5.224  11.729   2.264  0.00  0.00    -0.069 C 
ATOM     32  C   UNL     1       6.849  13.231   3.338  0.00  0.00    +0.023 A 
ATOM     33  C   UNL     1       8.104  12.708   3.314  0.00  0.00    +0.022 A 
ATOM     34  C   UNL     1       9.204  13.513   3.002  0.00  0.00    +0.007 A 
ATOM     35  C   UNL     1       8.994  14.827   2.701  0.00  0.00    +0.070 A 
ATOM     36  C   UNL     1       7.689  15.335   2.737  0.00  0.00    +0.251 A 
ATOM     37  O   UNL     1       7.484  16.497   2.425  0.00  0.00    -0.268 OA
ATOM     38  N   UNL     1       6.649  14.551   3.116  0.00  0.00    -0.312 N 
ATOM     39  C   UNL     1       5.351  15.206   3.279  0.00  0.00    +0.126 C 
ATOM     40  H   UNL     1       5.846  13.496   1.336  0.00  0.00    -0.081 HD
ENDBRANCH  25  26
ENDBRANCH   6  25
TORSDOF 8
