REMARK  Name = ZINC20942235
REMARK  11 active torsions:
REMARK  status: ('A' for Active; 'I' for Inactive)
REMARK    1  A    between atoms: C_1  and  C_2
REMARK    2  A    between atoms: C_6  and  N_8
REMARK    3  A    between atoms: C_9  and  C_11
REMARK    4  A    between atoms: C_17  and  C_31
REMARK    5  A    between atoms: C_19  and  C_21
REMARK    6  A    between atoms: C_25  and  O_29
REMARK    7  A    between atoms: C_26  and  O_27
REMARK    8  A    between atoms: O_27  and  C_28
REMARK    9  A    between atoms: O_29  and  C_30
REMARK   10  A    between atoms: C_35  and  O_37
REMARK   11  A    between atoms: O_37  and  C_38
REMARK                            x       y       z     vdW  Elec       q    Type
REMARK                         _______ _______ _______ _____ _____    ______ ____
ROOT
ATOM      1  C   UNL     1      -0.127  -4.879   3.652  0.00  0.00    +0.100 A 
ATOM      2  C   UNL     1      -0.148  -4.321   4.952  0.00  0.00    +0.149 A 
ATOM      3  N   UNL     1      -0.238  -5.294   5.821  0.00  0.00    -0.176 NA
ATOM      4  N   UNL     1      -0.275  -6.508   5.147  0.00  0.00    -0.238 N 
ATOM      5  C   UNL     1      -0.219  -6.256   3.803  0.00  0.00    +0.164 A 
ATOM      6  N   UNL     1      -0.231  -7.243   2.884  0.00  0.00    -0.232 NA
ATOM      7  C   UNL     1      -0.599  -8.442   3.254  0.00  0.00    +0.053 C 
ATOM      8  C   UNL     1      -1.086  -8.740   4.644  0.00  0.00    +0.088 C 
ATOM      9  C   UNL     1      -0.357  -7.872   5.680  0.00  0.00    +0.149 C 
ENDROOT
BRANCH   9  10
ATOM     10  C   UNL     1      -1.137  -7.869   6.970  0.00  0.00    +0.023 A 
ATOM     11  C   UNL     1      -2.451  -7.436   6.981  0.00  0.00    +0.009 A 
ATOM     12  C   UNL     1      -3.169  -7.431   8.162  0.00  0.00    +0.004 A 
ATOM     13  C   UNL     1      -2.578  -7.860   9.336  0.00  0.00    +0.049 A 
ATOM     14  C   UNL     1      -1.263  -8.295   9.331  0.00  0.00    +0.162 A 
ATOM     15  C   UNL     1      -0.541  -8.305   8.141  0.00  0.00    +0.167 A 
BRANCH  15  16
ATOM     16  O   UNL     1       0.748  -8.737   8.130  0.00  0.00    -0.491 OA
ATOM     17  C   UNL     1       1.762  -7.757   8.363  0.00  0.00    +0.277 C 
ENDBRANCH  15  16
BRANCH  14  18
ATOM     18  O   UNL     1      -0.681  -8.717  10.486  0.00  0.00    -0.491 OA
ATOM     19  C   UNL     1      -1.484  -8.684  11.667  0.00  0.00    +0.277 C 
ENDBRANCH  14  18
ENDBRANCH   9  10
BRANCH   7  20
ATOM     20  C   UNL     1      -0.535  -9.538   2.275  0.00  0.00    -0.000 A 
ATOM     21  C   UNL     1      -0.927 -10.830   2.640  0.00  0.00    +0.010 A 
ATOM     22  C   UNL     1      -0.865 -11.854   1.718  0.00  0.00    +0.004 A 
ATOM     23  C   UNL     1      -0.415 -11.608   0.433  0.00  0.00    +0.045 A 
ATOM     24  C   UNL     1      -0.023 -10.329   0.061  0.00  0.00    +0.121 A 
ATOM     25  C   UNL     1      -0.086  -9.291   0.974  0.00  0.00    +0.055 A 
BRANCH  24  26
ATOM     26  O   UNL     1       0.419 -10.096  -1.203  0.00  0.00    -0.495 OA
ATOM     27  C   UNL     1       0.452 -11.212  -2.095  0.00  0.00    +0.277 C 
ENDBRANCH  24  26
ENDBRANCH   7  20
BRANCH   1  29
ATOM     28  N   UNL     1       0.052  -2.797   2.392  0.00  0.00    -0.281 N 
ATOM     29  C   UNL     1      -0.032  -4.142   2.385  0.00  0.00    +0.253 C 
ATOM     30  O   UNL     1      -0.029  -4.746   1.329  0.00  0.00    -0.270 OA
ATOM     31  H   UNL     1       0.127  -2.320   3.233  0.00  0.00    +0.155 HD
BRANCH  28  37
ATOM     32  C   UNL     1       1.526   1.060  -0.276  0.00  0.00    +0.044 C 
ATOM     33  C   UNL     1       0.736  -0.215  -0.135  0.00  0.00    -0.049 A 
ATOM     34  C   UNL     1      -0.011  -0.687  -1.199  0.00  0.00    +0.003 A 
ATOM     35  C   UNL     1      -0.738  -1.857  -1.073  0.00  0.00    +0.002 A 
ATOM     36  C   UNL     1      -0.719  -2.559   0.116  0.00  0.00    +0.023 A 
ATOM     37  C   UNL     1       0.031  -2.089   1.186  0.00  0.00    +0.034 A 
ATOM     38  C   UNL     1       0.763  -0.915   1.055  0.00  0.00    +0.026 A 
ENDBRANCH  28  37
ENDBRANCH   1  29
TORSDOF 7
