REMARK  Name = ZINC62616765
REMARK  6 active torsions:
REMARK  status: ('A' for Active; 'I' for Inactive)
REMARK    1  A    between atoms: C_1  and  O_2
REMARK    2  A    between atoms: O_2  and  C_3
REMARK    3  A    between atoms: C_6  and  O_25
REMARK    4  A    between atoms: C_7  and  S_9
REMARK    5  A    between atoms: S_9  and  N_12
REMARK    6  A    between atoms: O_25  and  C_26
REMARK                            x       y       z     vdW  Elec       q    Type
REMARK                         _______ _______ _______ _____ _____    ______ ____
ROOT
ATOM      1  S   UNL     1       1.398  -4.387   2.217  0.00  0.00    +0.065 S 
ATOM      2  O   UNL     1       0.984  -4.763   3.523  0.00  0.00    -0.153 OA
ATOM      3  O   UNL     1       0.751  -4.866   1.046  0.00  0.00    -0.153 OA
ENDROOT
BRANCH   1   4
ATOM      4  N   UNL     1       2.993  -4.812   2.085  0.00  0.00    -0.169 NA
ATOM      5  C   UNL     1       3.607  -5.053   0.770  0.00  0.00    +0.131 C 
ATOM      6  C   UNL     1       4.689  -4.000   0.519  0.00  0.00    +0.139 C 
ATOM      7  N   UNL     1       5.536  -3.875   1.714  0.00  0.00    -0.341 N 
ATOM      8  C   UNL     1       6.788  -3.333   1.770  0.00  0.00    +0.049 A 
ATOM      9  C   UNL     1       7.607  -2.772   0.791  0.00  0.00    +0.026 A 
ATOM     10  C   UNL     1       8.844  -2.306   1.202  0.00  0.00    +0.002 A 
ATOM     11  C   UNL     1       9.265  -2.386   2.519  0.00  0.00    +0.001 A 
ATOM     12  C   UNL     1       8.480  -2.933   3.504  0.00  0.00    +0.010 A 
ATOM     13  C   UNL     1       7.225  -3.412   3.116  0.00  0.00    +0.000 A 
ATOM     14  C   UNL     1       6.145  -4.042   3.856  0.00  0.00    +0.032 A 
ATOM     15  C   UNL     1       5.167  -4.298   2.973  0.00  0.00    +0.036 A 
ATOM     16  C   UNL     1       3.843  -4.955   3.280  0.00  0.00    +0.162 C 
ENDBRANCH   1   4
BRANCH   1  21
ATOM     17  C   UNL     1       0.626  -0.619   1.042  0.00  0.00    +0.122 A 
ATOM     18  C   UNL     1       1.202   0.139   2.051  0.00  0.00    +0.049 A 
ATOM     19  C   UNL     1       1.837  -0.485   3.107  0.00  0.00    +0.051 A 
ATOM     20  C   UNL     1       1.897  -1.870   3.159  0.00  0.00    +0.147 A 
ATOM     21  C   UNL     1       1.321  -2.628   2.151  0.00  0.00    +0.150 A 
ATOM     22  C   UNL     1       0.682  -2.003   1.097  0.00  0.00    +0.077 A 
BRANCH  17  24
ATOM     23  C   UNL     1      -0.017   1.425   0.010  0.00  0.00    +0.277 C 
ATOM     24  O   UNL     1       0.002  -0.004   0.002  0.00  0.00    -0.495 OA
ENDBRANCH  17  24
BRANCH  20  25
ATOM     25  O   UNL     1       2.522  -2.485   4.199  0.00  0.00    -0.493 OA
ATOM     26  C   UNL     1       3.094  -1.642   5.202  0.00  0.00    +0.277 C 
ENDBRANCH  20  25
ENDBRANCH   1  21
TORSDOF 4
