REMARK  Name = ZINC39537157
REMARK  7 active torsions:
REMARK  status: ('A' for Active; 'I' for Inactive)
REMARK    1  A    between atoms: C_1  and  C_2
REMARK    2  A    between atoms: C_3  and  C_7
REMARK    3  A    between atoms: C_7  and  N_8
REMARK    4  A    between atoms: N_8  and  C_9
REMARK    5  A    between atoms: N_8  and  C_10
REMARK    6  A    between atoms: N_13  and  C_16
REMARK    7  A    between atoms: C_19  and  C_22
REMARK                            x       y       z     vdW  Elec       q    Type
REMARK                         _______ _______ _______ _____ _____    ______ ____
ROOT
ATOM      1  C   UNL     1      -4.572  -0.304  -1.166  0.00  0.00    -0.066 C 
ATOM      2  C   UNL     1      -5.249  -1.011   0.010  0.00  0.00    +0.004 C 
ATOM      3  C   UNL     1      -6.721  -0.593   0.074  0.00  0.00    +0.103 C 
ATOM      4  N   UNL     1      -7.345  -0.857  -1.230  0.00  0.00    -0.330 N 
ATOM      5  C   UNL     1      -6.722  -0.299  -2.438  0.00  0.00    +0.103 C 
ATOM      6  C   UNL     1      -5.250  -0.721  -2.473  0.00  0.00    +0.004 C 
ENDROOT
BRANCH   4   7
ATOM      7  C   UNL     1      -8.507  -1.625  -1.320  0.00  0.00    +0.030 A 
ATOM      8  C   UNL     1      -9.020  -2.242  -0.184  0.00  0.00    +0.024 A 
ATOM      9  C   UNL     1     -10.167  -3.001  -0.270  0.00  0.00    +0.012 A 
ATOM     10  C   UNL     1     -10.814  -3.150  -1.497  0.00  0.00    -0.000 A 
ATOM     11  C   UNL     1     -10.297  -2.529  -2.635  0.00  0.00    +0.012 A 
ATOM     12  C   UNL     1      -9.153  -1.766  -2.543  0.00  0.00    +0.024 A 
BRANCH  10  13
ATOM     13  C   UNL     1     -12.046  -3.964  -1.592  0.00  0.00    +0.066 A 
ATOM     14  C   UNL     1     -12.776  -4.199  -2.723  0.00  0.00    +0.049 A 
ATOM     15  C   UNL     1     -13.854  -5.012  -2.374  0.00  0.00    +0.135 A 
ATOM     16  N   UNL     1     -13.789  -5.264  -1.092  0.00  0.00    -0.182 NA
ATOM     17  N   UNL     1     -12.659  -4.624  -0.569  0.00  0.00    -0.277 N 
ATOM     18  H   UNL     1     -12.365  -4.644   0.355  0.00  0.00    +0.189 HD
ENDBRANCH  10  13
ENDBRANCH   4   7
BRANCH   1  19
ATOM     19  N   UNL     1      -3.152  -0.677  -1.210  0.00  0.00    +0.384 N 
ATOM     20  C   UNL     1      -2.501   0.003  -2.338  0.00  0.00    -0.095 C 
ATOM     21  H   UNL     1      -3.070  -1.676  -1.328  0.00  0.00    -0.081 HD
BRANCH  19  22
ATOM     22  C   UNL     1      -2.501  -0.277   0.044  0.00  0.00    -0.021 C 
BRANCH  22  25
ATOM     23  C   UNL     1      -0.026   1.511   0.039  0.00  0.00    +0.067 C 
ATOM     24  C   UNL     1      -0.007   0.004   0.049  0.00  0.00    +0.057 C 
ATOM     25  C   UNL     1      -1.076  -0.769   0.050  0.00  0.00    +0.045 C 
ATOM     26  N   UNL     1      -0.688  -2.115   0.059  0.00  0.00    -0.245 N 
ATOM     27  O   UNL     1       0.731  -2.144   0.063  0.00  0.00    -0.156 OA
ATOM     28  N   UNL     1       1.149  -0.787   0.051  0.00  0.00    -0.244 N 
ATOM     29  H   UNL     1      -1.279  -2.884   0.062  0.00  0.00    +0.196 HD
ATOM     30  H   UNL     1       2.065  -0.468   0.047  0.00  0.00    +0.196 HD
ENDBRANCH  22  25
ENDBRANCH  19  22
ENDBRANCH   1  19
TORSDOF 5
