REMARK  Name = ZINC09360945
REMARK  6 active torsions:
REMARK  status: ('A' for Active; 'I' for Inactive)
REMARK    1  A    between atoms: C_4  and  N_11
REMARK    2  A    between atoms: C_5  and  C_7
REMARK    3  A    between atoms: C_16  and  C_21
REMARK    4  A    between atoms: C_18  and  O_20
REMARK    5  A    between atoms: C_21  and  S_22
REMARK    6  A    between atoms: S_22  and  C_23
REMARK                            x       y       z     vdW  Elec       q    Type
REMARK                         _______ _______ _______ _____ _____    ______ ____
ROOT
ATOM      1  N   UNL     1      -2.911  -2.356  -0.134  0.00  0.00    -0.327 N 
ATOM      2  C   UNL     1      -3.352  -1.063   0.032  0.00  0.00    +0.180 C 
ATOM      3  N   UNL     1      -4.702  -0.801   0.121  0.00  0.00    -0.296 N 
ATOM      4  C   UNL     1      -5.621  -1.824  -0.061  0.00  0.00    +0.234 A 
ATOM      5  N   UNL     1      -6.913  -1.535  -0.087  0.00  0.00    -0.216 NA
ATOM      6  C   UNL     1      -7.819  -2.485  -0.265  0.00  0.00    +0.060 A 
ATOM      7  C   UNL     1      -7.405  -3.795  -0.413  0.00  0.00    +0.091 A 
ATOM      8  C   UNL     1      -6.038  -4.068  -0.375  0.00  0.00    +0.217 A 
ATOM      9  N   UNL     1      -5.185  -3.067  -0.199  0.00  0.00    -0.177 NA
ATOM     10  H   UNL     1      -3.550  -3.071  -0.281  0.00  0.00    +0.169 HD
ATOM     11  H   UNL     1      -2.700   0.849   0.288  0.00  0.00    +0.159 HD
ATOM     12  H   UNL     1      -5.010   0.099   0.312  0.00  0.00    +0.172 HD
ATOM     13  N   UNL     1      -2.429  -0.115   0.092  0.00  0.00    -0.371 N 
ATOM     14  H   UNL     1      -1.441  -0.350  -0.059  0.00  0.00    +0.159 HD
ENDROOT
BRANCH   1  18
ATOM     15  C   UNL     1       1.165  -3.201  -0.003  0.00  0.00    +0.001 A 
ATOM     16  C   UNL     1       0.673  -2.079   0.637  0.00  0.00    +0.002 A 
ATOM     17  C   UNL     1      -0.678  -1.796   0.596  0.00  0.00    +0.026 A 
ATOM     18  C   UNL     1      -1.542  -2.640  -0.090  0.00  0.00    +0.053 A 
ATOM     19  C   UNL     1      -1.044  -3.766  -0.733  0.00  0.00    +0.078 A 
ATOM     20  C   UNL     1       0.307  -4.046  -0.683  0.00  0.00    +0.014 A 
BRANCH  19  21
ATOM     21  C   UNL     1      -1.978  -4.684  -1.478  0.00  0.00    +0.419 C 
ATOM     22  F   UNL     1      -1.248  -5.739  -2.036  0.00  0.00    -0.166 F 
ATOM     23  F   UNL     1      -2.934  -5.196  -0.593  0.00  0.00    -0.166 F 
ATOM     24  F   UNL     1      -2.620  -3.971  -2.496  0.00  0.00    -0.166 F 
ENDBRANCH  19  21
ENDBRANCH   1  18
BRANCH   8  25
ATOM     25  O   UNL     1      -5.588  -5.339  -0.515  0.00  0.00    -0.492 OA
ATOM     26  H   UNL     1      -5.504  -5.821   0.319  0.00  0.00    +0.294 HD
ENDBRANCH   8  25
BRANCH   6  27
ATOM     27  C   UNL     1      -9.286  -2.141  -0.299  0.00  0.00    +0.130 C 
BRANCH  27  28
ATOM     28  S   UNL     1      -9.966  -2.224   1.381  0.00  0.00    -0.119 S 
BRANCH  28  29
ATOM     29  C   UNL     1     -11.665  -1.802   1.174  0.00  0.00    +0.008 A 
ATOM     30  C   UNL     1     -12.159  -1.502  -0.089  0.00  0.00    +0.016 A 
ATOM     31  C   UNL     1     -13.492  -1.177  -0.248  0.00  0.00    +0.021 A 
ATOM     32  C   UNL     1     -14.332  -1.140   0.850  0.00  0.00    +0.041 A 
ATOM     33  C   UNL     1     -13.841  -1.433   2.111  0.00  0.00    +0.021 A 
ATOM     34  C   UNL     1     -12.511  -1.764   2.276  0.00  0.00    +0.016 A 
ATOM     35 CL   UNL     1     -16.006  -0.725   0.647  0.00  0.00    -0.084 Cl
ENDBRANCH  28  29
ENDBRANCH  27  28
ENDBRANCH   6  27
TORSDOF 6
