REMARK  Name = ZINC40857295
REMARK  5 active torsions:
REMARK  status: ('A' for Active; 'I' for Inactive)
REMARK    1  A    between atoms: C_1  and  C_2
REMARK    2  A    between atoms: C_2  and  C_4
REMARK    3  A    between atoms: C_2  and  N_21
REMARK    4  A    between atoms: C_4  and  C_5
REMARK    5  A    between atoms: C_9  and  C_18
REMARK                            x       y       z     vdW  Elec       q    Type
REMARK                         _______ _______ _______ _____ _____    ______ ____
ROOT
ATOM      1  C   UNL     1       0.870  -2.011   1.172  0.00  0.00    +0.218 C 
ATOM      2  O   UNL     1       0.832  -0.799   1.193  0.00  0.00    -0.275 OA
ATOM      3  N   UNL     1       1.401  -2.687   2.210  0.00  0.00    -0.264 N 
ATOM      4  C   UNL     1       1.546  -4.152   2.171  0.00  0.00    +0.168 C 
ATOM      5  C   UNL     1       1.136  -4.695   3.548  0.00  0.00    +0.276 C 
ATOM      6  O   UNL     1       1.967  -4.097   4.545  0.00  0.00    -0.476 OA
ATOM      7  C   UNL     1       2.110  -2.745   4.523  0.00  0.00    +0.143 A 
ATOM      8  C   UNL     1       1.841  -2.018   3.365  0.00  0.00    +0.078 A 
ATOM      9  C   UNL     1       2.001  -0.642   3.352  0.00  0.00    +0.027 A 
ATOM     10  C   UNL     1       2.431   0.012   4.492  0.00  0.00    +0.002 A 
ATOM     11  C   UNL     1       2.701  -0.706   5.642  0.00  0.00    +0.004 A 
ATOM     12  C   UNL     1       2.534  -2.082   5.664  0.00  0.00    +0.047 A 
ENDROOT
BRANCH   5  13
ATOM     13  C   UNL     1       1.310  -6.192   3.572  0.00  0.00    +0.253 C 
ATOM     14  O   UNL     1       2.130  -6.695   4.311  0.00  0.00    -0.272 OA
ATOM     15  N   UNL     1       0.555  -6.972   2.774  0.00  0.00    -0.326 N 
ATOM     16  H   UNL     1      -0.100  -6.570   2.183  0.00  0.00    +0.145 HD
ATOM     17  H   UNL     1       0.668  -7.935   2.790  0.00  0.00    +0.145 HD
ENDBRANCH   5  13
BRANCH   1  18
ATOM     18  C   UNL     1       0.323  -2.761  -0.015  0.00  0.00    +0.080 C 
BRANCH  18  20
ATOM     19  C   UNL     1      -0.982  -2.543  -2.135  0.00  0.00    -0.014 C 
ATOM     20  C   UNL     1      -0.318  -1.773  -0.992  0.00  0.00    -0.070 C 
BRANCH  20  21
ATOM     21  N   UNL     1       0.717  -0.883  -1.537  0.00  0.00    +0.380 N 
ATOM     22  H   UNL     1       0.294  -0.231  -2.181  0.00  0.00    -0.090 HD
ATOM     23  H   UNL     1       1.155  -0.375  -0.783  0.00  0.00    -0.090 HD
ATOM     24  H   UNL     1       1.411  -1.432  -2.021  0.00  0.00    -0.090 HD
ENDBRANCH  20  21
ENDBRANCH  18  20
ENDBRANCH   1  18
TORSDOF 4
