REMARK  Name = ZINC04050614
REMARK  7 active torsions:
REMARK  status: ('A' for Active; 'I' for Inactive)
REMARK    1  A    between atoms: C_5  and  C_7
REMARK    2  A    between atoms: C_7  and  N_42
REMARK    3  A    between atoms: C_8  and  C_9
REMARK    4  A    between atoms: C_8  and  N_42
REMARK    5  A    between atoms: C_9  and  C_10
REMARK    6  A    between atoms: C_9  and  C_17
REMARK    7  A    between atoms: C_9  and  O_24
REMARK                            x       y       z     vdW  Elec       q    Type
REMARK                         _______ _______ _______ _____ _____    ______ ____
ROOT
ATOM      1  C   UNL     1      -2.207   0.938  -1.076  0.00  0.00    +0.101 C 
ENDROOT
BRANCH   1   2
ATOM      2  C   UNL     1      -2.872   1.324   0.220  0.00  0.00    -0.013 A 
ATOM      3  C   UNL     1      -2.535   2.512   0.843  0.00  0.00    +0.008 A 
ATOM      4  C   UNL     1      -3.149   2.869   2.029  0.00  0.00    +0.020 A 
ATOM      5  C   UNL     1      -4.093   2.033   2.598  0.00  0.00    +0.041 A 
ATOM      6  C   UNL     1      -4.425   0.842   1.978  0.00  0.00    +0.020 A 
ATOM      7  C   UNL     1      -3.815   0.488   0.789  0.00  0.00    +0.008 A 
ATOM      8 CL   UNL     1      -4.859   2.478   4.091  0.00  0.00    -0.084 Cl
ENDBRANCH   1   2
BRANCH   1   9
ATOM      9  C   UNL     1      -3.011   1.474  -2.232  0.00  0.00    -0.013 A 
ATOM     10  C   UNL     1      -2.746   2.734  -2.733  0.00  0.00    +0.008 A 
ATOM     11  C   UNL     1      -3.479   3.224  -3.798  0.00  0.00    +0.020 A 
ATOM     12  C   UNL     1      -4.487   2.456  -4.354  0.00  0.00    +0.041 A 
ATOM     13  C   UNL     1      -4.756   1.197  -3.849  0.00  0.00    +0.020 A 
ATOM     14  C   UNL     1      -4.018   0.706  -2.788  0.00  0.00    +0.008 A 
ATOM     15 CL   UNL     1      -5.412   3.073  -5.687  0.00  0.00    -0.084 Cl
ENDBRANCH   1   9
BRANCH   1  16
ATOM     16  O   UNL     1      -2.132  -0.486  -1.167  0.00  0.00    -0.381 OA
ATOM     17  H   UNL     1      -1.714  -0.807  -1.978  0.00  0.00    +0.211 HD
ENDBRANCH   1  16
BRANCH   1  18
ATOM     18  C   UNL     1      -0.795   1.527  -1.120  0.00  0.00    -0.037 C 
BRANCH  18  19
ATOM     19  N   UNL     1      -0.015   0.998   0.015  0.00  0.00    +0.385 N 
ATOM     20  H   UNL     1      -0.475   1.261   0.894  0.00  0.00    -0.085 HD
ATOM     21  H   UNL     1       0.032  -0.025  -0.054  0.00  0.00    -0.085 HD
BRANCH  19  22
ATOM     22  C   UNL     1       1.353   1.550  -0.003  0.00  0.00    -0.026 C 
BRANCH  22  27
ATOM     23  C   UNL     1       3.627  -0.627   2.070  0.00  0.00    +0.003 A 
ATOM     24  C   UNL     1       3.506   0.013   3.294  0.00  0.00    +0.020 A 
ATOM     25  C   UNL     1       2.691   1.124   3.395  0.00  0.00    +0.111 A 
ATOM     26  N   UNL     1       2.037   1.579   2.344  0.00  0.00    -0.262 NA
ATOM     27  C   UNL     1       2.125   0.993   1.166  0.00  0.00    +0.024 A 
ATOM     28  C   UNL     1       2.921  -0.123   0.989  0.00  0.00    +0.021 A 
ENDBRANCH  22  27
ENDBRANCH  19  22
ENDBRANCH  18  19
ENDBRANCH   1  18
TORSDOF 7
