REMARK  Name = ZINC50146064
REMARK  8 active torsions:
REMARK  status: ('A' for Active; 'I' for Inactive)
REMARK    1  A    between atoms: C_1  and  C_2
REMARK    2  A    between atoms: C_7  and  C_8
REMARK    3  A    between atoms: C_8  and  C_10
REMARK    4  A    between atoms: C_8  and  N_11
REMARK    5  A    between atoms: C_12  and  C_14
REMARK    6  A    between atoms: N_16  and  C_17
REMARK    7  A    between atoms: N_23  and  C_28
REMARK    8  A    between atoms: N_26  and  C_27
REMARK                            x       y       z     vdW  Elec       q    Type
REMARK                         _______ _______ _______ _____ _____    ______ ____
ROOT
ATOM      1  C   UNL     1      -1.913  -1.138   5.591  0.00  0.00    +0.303 C 
ATOM      2  O   UNL     1      -1.932  -2.345   5.463  0.00  0.00    -0.265 OA
ATOM      3  N   UNL     1      -2.416  -0.571   6.706  0.00  0.00    -0.278 N 
ATOM      4  H   UNL     1      -2.469   0.395   6.777  0.00  0.00    +0.155 HD
ENDROOT
BRANCH   3   5
ATOM      5  C   UNL     1      -2.861  -1.375   7.760  0.00  0.00    +0.036 A 
ATOM      6  C   UNL     1      -2.225  -2.583   8.028  0.00  0.00    +0.025 A 
ATOM      7  C   UNL     1      -2.660  -3.381   9.067  0.00  0.00    +0.030 A 
ATOM      8  C   UNL     1      -3.734  -2.978   9.846  0.00  0.00    +0.070 A 
ATOM      9  C   UNL     1      -4.375  -1.766   9.579  0.00  0.00    +0.071 A 
ATOM     10  C   UNL     1      -3.933  -0.964   8.539  0.00  0.00    +0.051 A 
ATOM     11  N   UNL     1      -5.399  -1.638  10.514  0.00  0.00    -0.295 N 
ATOM     12  C   UNL     1      -5.383  -2.722  11.313  0.00  0.00    +0.330 A 
ATOM     13  O   UNL     1      -6.150  -2.923  12.237  0.00  0.00    -0.246 OA
ATOM     14  N   UNL     1      -4.391  -3.549  10.936  0.00  0.00    -0.295 N 
ATOM     15  C   UNL     1      -4.056  -4.830  11.563  0.00  0.00    +0.154 C 
ATOM     16  C   UNL     1      -6.335  -0.515  10.613  0.00  0.00    +0.154 C 
ENDBRANCH   3   5
BRANCH   1  18
ATOM     17  N   UNL     1      -0.830  -0.848   3.400  0.00  0.00    -0.301 N 
ATOM     18  C   UNL     1      -1.332  -0.281   4.515  0.00  0.00    +0.300 C 
ATOM     19  O   UNL     1      -1.313   0.925   4.644  0.00  0.00    -0.265 OA
ATOM     20  H   UNL     1      -0.845  -1.813   3.297  0.00  0.00    +0.150 HD
BRANCH  17  21
ATOM     21  C   UNL     1      -0.260  -0.008   2.344  0.00  0.00    +0.101 C 
ATOM     22  C   UNL     1       1.226   0.225   2.624  0.00  0.00    +0.033 C 
BRANCH  21  29
ATOM     23  C   UNL     1      -0.401   1.552  -0.084  0.00  0.00    +0.044 C 
ATOM     24  C   UNL     1      -0.486   0.049  -0.148  0.00  0.00    -0.046 A 
ATOM     25  C   UNL     1      -0.625  -0.584  -1.369  0.00  0.00    +0.004 A 
ATOM     26  C   UNL     1      -0.703  -1.963  -1.428  0.00  0.00    +0.000 A 
ATOM     27  C   UNL     1      -0.640  -2.709  -0.266  0.00  0.00    +0.000 A 
ATOM     28  C   UNL     1      -0.500  -2.076   0.955  0.00  0.00    +0.006 A 
ATOM     29  C   UNL     1      -0.418  -0.698   1.013  0.00  0.00    -0.025 A 
ENDBRANCH  21  29
ENDBRANCH  17  21
ENDBRANCH   1  18
TORSDOF 4
