REMARK  Name = ZINC08254747
REMARK  7 active torsions:
REMARK  status: ('A' for Active; 'I' for Inactive)
REMARK    1  A    between atoms: C_1  and  C_2
REMARK    2  A    between atoms: C_5  and  N_9
REMARK    3  A    between atoms: C_12  and  C_26
REMARK    4  A    between atoms: C_15  and  O_25
REMARK    5  A    between atoms: C_17  and  O_24
REMARK    6  A    between atoms: N_28  and  C_29
REMARK    7  A    between atoms: C_29  and  C_30
REMARK                            x       y       z     vdW  Elec       q    Type
REMARK                         _______ _______ _______ _____ _____    ______ ____
ROOT
ATOM      1  N   UNL     1       0.554  -2.573   0.735  0.00  0.00    -0.277 N 
ATOM      2  C   UNL     1      -0.791  -2.341   0.208  0.00  0.00    +0.115 C 
ATOM      3  C   UNL     1      -1.203  -0.913   0.155  0.00  0.00    +0.100 C 
ATOM      4  C   UNL     1      -2.036  -0.429   1.319  0.00  0.00    +0.048 C 
ATOM      5  C   UNL     1      -3.110  -1.397   1.708  0.00  0.00    +0.146 C 
ATOM      6  C   UNL     1      -2.579  -2.780   1.989  0.00  0.00    +0.165 C 
ATOM      7  C   UNL     1      -1.665  -3.344   0.926  0.00  0.00    +0.124 C 
ATOM      8  N   UNL     1      -0.678  -4.227   1.594  0.00  0.00    -0.319 N 
ATOM      9  C   UNL     1       0.543  -3.688   1.459  0.00  0.00    +0.138 C 
ATOM     10  S   UNL     1       1.947  -4.362   2.173  0.00  0.00    -0.018 S 
ATOM     11  H   UNL     1      -0.881  -5.057   2.052  0.00  0.00    +0.148 HD
ENDROOT
BRANCH   1  16
ATOM     12  C   UNL     1       5.105   0.688  -0.185  0.00  0.00    +0.045 C 
ATOM     13  C   UNL     1       3.896  -0.178   0.059  0.00  0.00    -0.032 A 
ATOM     14  C   UNL     1       3.369  -0.284   1.333  0.00  0.00    +0.006 A 
ATOM     15  C   UNL     1       2.258  -1.073   1.559  0.00  0.00    +0.024 A 
ATOM     16  C   UNL     1       1.676  -1.769   0.507  0.00  0.00    +0.037 A 
ATOM     17  C   UNL     1       2.207  -1.661  -0.771  0.00  0.00    +0.043 A 
ATOM     18  C   UNL     1       3.316  -0.866  -0.993  0.00  0.00    +0.046 A 
ATOM     19 CL   UNL     1       3.980  -0.729  -2.591  0.00  0.00    -0.083 Cl
ENDBRANCH   1  16
BRANCH   3  20
ATOM     20  C   UNL     1       0.040  -0.066   0.079  0.00  0.00    +0.218 C 
ATOM     21  O   UNL     1       0.752  -0.120  -0.901  0.00  0.00    -0.275 OA
ATOM     22  N   UNL     1       0.361   0.753   1.101  0.00  0.00    -0.310 N 
ATOM     23  H   UNL     1      -0.164   0.740   1.916  0.00  0.00    +0.149 HD
BRANCH  22  24
ATOM     24  C   UNL     1       1.499   1.667   0.977  0.00  0.00    +0.146 C 
BRANCH  24  25
ATOM     25  C   UNL     1       1.718   2.377   2.288  0.00  0.00    +0.007 A 
ATOM     26  C   UNL     1       2.493   2.011   3.338  0.00  0.00    +0.013 A 
ATOM     27  C   UNL     1       2.542   2.829   4.452  0.00  0.00    +0.008 A 
ATOM     28  C   UNL     1       1.814   3.972   4.461  0.00  0.00    +0.045 A 
ATOM     29  S   UNL     1       1.030   3.923   2.858  0.00  0.00    -0.100 S 
ENDBRANCH  24  25
ENDBRANCH  22  24
ENDBRANCH   3  20
BRANCH   6  30
ATOM     30  O   UNL     1      -1.862  -2.741   3.224  0.00  0.00    -0.387 OA
ATOM     31  H   UNL     1      -2.375  -2.391   3.966  0.00  0.00    +0.210 HD
ENDBRANCH   6  30
BRANCH   5  32
ATOM     32  O   UNL     1      -4.052  -1.472   0.636  0.00  0.00    -0.389 OA
ATOM     33  H   UNL     1      -4.441  -0.621   0.395  0.00  0.00    +0.210 HD
ENDBRANCH   5  32
TORSDOF 6
