REMARK  Name = ZINC47613650
REMARK  9 active torsions:
REMARK  status: ('A' for Active; 'I' for Inactive)
REMARK    1  A    between atoms: C_1  and  C_2
REMARK    2  A    between atoms: C_5  and  C_8
REMARK    3  A    between atoms: C_8  and  N_9
REMARK    4  A    between atoms: N_9  and  C_10
REMARK    5  A    between atoms: N_9  and  C_20
REMARK    6  A    between atoms: C_10  and  C_11
REMARK    7  A    between atoms: C_14  and  C_17
REMARK    8  A    between atoms: C_20  and  C_21
REMARK    9  A    between atoms: C_24  and  C_27
REMARK                            x       y       z     vdW  Elec       q    Type
REMARK                         _______ _______ _______ _____ _____    ______ ____
ROOT
ATOM      1  N   UNL     1       1.447  -4.729  -0.158  0.00  0.00    +0.388 N 
ATOM      2  H   UNL     1       1.852  -4.190  -0.909  0.00  0.00    -0.080 HD
ENDROOT
BRANCH   1   3
ATOM      3  C   UNL     1       0.038  -4.350   0.011  0.00  0.00    -0.042 C 
BRANCH   3   8
ATOM      4  C   UNL     1      -0.350   1.367   0.754  0.00  0.00    +0.044 C 
ATOM      5  C   UNL     1      -0.249  -0.124   0.560  0.00  0.00    -0.050 A 
ATOM      6  C   UNL     1      -0.183  -0.652  -0.715  0.00  0.00    +0.003 A 
ATOM      7  C   UNL     1      -0.090  -2.020  -0.893  0.00  0.00    +0.002 A 
ATOM      8  C   UNL     1      -0.063  -2.859   0.205  0.00  0.00    -0.064 A 
ATOM      9  C   UNL     1      -0.127  -2.331   1.481  0.00  0.00    +0.002 A 
ATOM     10  C   UNL     1      -0.216  -0.963   1.659  0.00  0.00    +0.003 A 
ENDBRANCH   3   8
ENDBRANCH   1   3
BRANCH   1  11
ATOM     11  C   UNL     1       2.179  -4.460   1.088  0.00  0.00    -0.042 C 
BRANCH  11  12
ATOM     12  C   UNL     1       3.648  -4.715   0.872  0.00  0.00    -0.064 A 
ATOM     13  C   UNL     1       4.192  -5.940   1.215  0.00  0.00    +0.002 A 
ATOM     14  C   UNL     1       5.537  -6.179   1.020  0.00  0.00    +0.013 A 
ATOM     15  C   UNL     1       6.348  -5.183   0.475  0.00  0.00    +0.037 A 
ATOM     16  C   UNL     1       5.793  -3.949   0.132  0.00  0.00    +0.013 A 
ATOM     17  C   UNL     1       4.446  -3.725   0.326  0.00  0.00    +0.002 A 
BRANCH  15  18
ATOM     18  C   UNL     1       7.790  -5.432   0.264  0.00  0.00    +0.242 C 
ATOM     19  O   UNL     1       8.272  -6.507   0.564  0.00  0.00    -0.270 OA
ATOM     20  N   UNL     1       8.571  -4.468  -0.262  0.00  0.00    -0.325 N 
ATOM     21  H   UNL     1       8.187  -3.610  -0.502  0.00  0.00    +0.145 HD
ATOM     22  H   UNL     1       9.517  -4.631  -0.401  0.00  0.00    +0.145 HD
ENDBRANCH  15  18
ENDBRANCH  11  12
ENDBRANCH   1  11
BRANCH   1  23
ATOM     23  C   UNL     1       1.535  -6.160  -0.479  0.00  0.00    -0.042 C 
BRANCH  23  24
ATOM     24  C   UNL     1       0.891  -6.415  -1.817  0.00  0.00    -0.064 A 
ATOM     25  C   UNL     1      -0.459  -6.712  -1.886  0.00  0.00    +0.002 A 
ATOM     26  C   UNL     1      -1.055  -6.947  -3.108  0.00  0.00    +0.013 A 
ATOM     27  C   UNL     1      -0.293  -6.883  -4.276  0.00  0.00    +0.037 A 
ATOM     28  C   UNL     1       1.068  -6.583  -4.199  0.00  0.00    +0.013 A 
ATOM     29  C   UNL     1       1.650  -6.345  -2.971  0.00  0.00    +0.002 A 
BRANCH  27  30
ATOM     30  C   UNL     1      -0.925  -7.134  -5.589  0.00  0.00    +0.242 C 
ATOM     31  O   UNL     1      -2.110  -7.396  -5.653  0.00  0.00    -0.270 OA
ATOM     32  N   UNL     1      -0.187  -7.072  -6.715  0.00  0.00    -0.325 N 
ATOM     33  H   UNL     1       0.759  -6.863  -6.664  0.00  0.00    +0.145 HD
ATOM     34  H   UNL     1      -0.602  -7.237  -7.576  0.00  0.00    +0.145 HD
ENDBRANCH  27  30
ENDBRANCH  23  24
ENDBRANCH   1  23
TORSDOF 8
