REMARK  Name = ZINC40494621
REMARK  9 active torsions:
REMARK  status: ('A' for Active; 'I' for Inactive)
REMARK    1  A    between atoms: C_1  and  C_2
REMARK    2  A    between atoms: C_2  and  C_3
REMARK    3  A    between atoms: C_2  and  C_4
REMARK    4  A    between atoms: C_2  and  C_5
REMARK    5  A    between atoms: C_5  and  N_6
REMARK    6  A    between atoms: N_6  and  C_7
REMARK    7  A    between atoms: C_10  and  S_14
REMARK    8  A    between atoms: C_12  and  N_13
REMARK    9  A    between atoms: S_14  and  N_17
REMARK                            x       y       z     vdW  Elec       q    Type
REMARK                         _______ _______ _______ _____ _____    ______ ____
ROOT
ATOM      1  C   UNL     1       2.949  -0.311  -2.327  0.00  0.00    +0.048 A 
ATOM      2  C   UNL     1       2.497  -1.104  -3.371  0.00  0.00    +0.026 A 
ATOM      3  C   UNL     1       3.344  -1.419  -4.417  0.00  0.00    +0.030 A 
ATOM      4  C   UNL     1       4.643  -0.946  -4.426  0.00  0.00    +0.107 A 
ATOM      5  C   UNL     1       5.103  -0.155  -3.390  0.00  0.00    +0.053 A 
ATOM      6  C   UNL     1       4.258   0.170  -2.339  0.00  0.00    +0.048 A 
ENDROOT
BRANCH   6   7
ATOM      7  N   UNL     1       4.719   0.976  -1.291  0.00  0.00    -0.356 N 
ATOM      8  H   UNL     1       4.128   1.200  -0.555  0.00  0.00    +0.142 HD
ATOM      9  H   UNL     1       5.630   1.310  -1.301  0.00  0.00    +0.142 HD
ENDBRANCH   6   7
BRANCH   4  10
ATOM     10  S   UNL     1       5.717  -1.353  -5.763  0.00  0.00    +0.056 S 
ATOM     11  O   UNL     1       7.044  -1.240  -5.267  0.00  0.00    -0.153 OA
ATOM     12  O   UNL     1       5.217  -2.554  -6.335  0.00  0.00    -0.153 OA
BRANCH  10  13
ATOM     13  N   UNL     1       5.539  -0.173  -6.911  0.00  0.00    -0.204 NA
ATOM     14  H   UNL     1       4.923   0.561  -6.760  0.00  0.00    +0.144 HD
ATOM     15  H   UNL     1       6.050  -0.215  -7.734  0.00  0.00    +0.144 HD
ENDBRANCH  10  13
ENDBRANCH   4  10
BRANCH   1  16
ATOM     16  N   UNL     1       2.093   0.010  -1.267  0.00  0.00    -0.342 N 
ATOM     17  H   UNL     1       2.409   0.568  -0.540  0.00  0.00    +0.146 HD
BRANCH  16  18
ATOM     18  C   UNL     1       0.718  -0.497  -1.257  0.00  0.00    +0.107 C 
BRANCH  18  20
ATOM     19  C   UNL     1      -0.019   1.526   0.010  0.00  0.00    +0.012 C 
ATOM     20  C   UNL     1       0.002  -0.004   0.002  0.00  0.00    -0.022 C 
ATOM     21  C   UNL     1       0.742  -0.511   1.242  0.00  0.00    +0.012 C 
ATOM     22  C   UNL     1      -1.433  -0.534   0.013  0.00  0.00    +0.012 C 
ENDBRANCH  18  20
ENDBRANCH  16  18
ENDBRANCH   1  16
TORSDOF 6
