REMARK  Name = ZINC01597069
REMARK  5 active torsions:
REMARK  status: ('A' for Active; 'I' for Inactive)
REMARK    1  A    between atoms: C_7  and  C_19
REMARK    2  A    between atoms: C_9  and  N_11
REMARK    3  A    between atoms: N_11  and  C_12
REMARK    4  A    between atoms: C_19  and  C_21
REMARK    5  A    between atoms: C_19  and  O_27
REMARK                            x       y       z     vdW  Elec       q    Type
REMARK                         _______ _______ _______ _____ _____    ______ ____
ROOT
ATOM      1  C   UNL     1       0.371   8.387  -2.501  0.00  0.00    +0.001 A 
ATOM      2  C   UNL     1      -0.324   8.974  -3.557  0.00  0.00    +0.002 A 
ATOM      3  C   UNL     1      -1.645   8.716  -3.756  0.00  0.00    +0.028 A 
ATOM      4  C   UNL     1      -2.325   7.845  -2.888  0.00  0.00    +0.073 A 
ATOM      5  C   UNL     1      -1.617   7.250  -1.815  0.00  0.00    +0.006 A 
ATOM      6  C   UNL     1      -0.255   7.538  -1.639  0.00  0.00    +0.010 A 
ATOM      7  C   UNL     1      -2.299   6.376  -0.944  0.00  0.00    -0.008 A 
ATOM      8  C   UNL     1      -3.619   6.134  -1.175  0.00  0.00    +0.050 A 
ATOM      9  C   UNL     1      -4.266   6.758  -2.251  0.00  0.00    +0.124 A 
ATOM     10  N   UNL     1      -3.624   7.574  -3.062  0.00  0.00    -0.232 NA
ENDROOT
BRANCH   9  11
ATOM     11  N   UNL     1      -5.613   6.506  -2.471  0.00  0.00    -0.299 N 
ATOM     12  H   UNL     1      -6.116   5.973  -1.836  0.00  0.00    +0.154 HD
BRANCH  11  13
ATOM     13  C   UNL     1      -6.244   7.020  -3.608  0.00  0.00    +0.032 A 
ATOM     14  C   UNL     1      -5.536   7.155  -4.795  0.00  0.00    +0.025 A 
ATOM     15  C   UNL     1      -6.164   7.658  -5.918  0.00  0.00    +0.022 A 
ATOM     16  C   UNL     1      -7.493   8.038  -5.858  0.00  0.00    +0.041 A 
ATOM     17  C   UNL     1      -8.199   7.909  -4.674  0.00  0.00    +0.022 A 
ATOM     18  C   UNL     1      -7.578   7.402  -3.550  0.00  0.00    +0.025 A 
ATOM     19 CL   UNL     1      -8.277   8.677  -7.269  0.00  0.00    -0.084 Cl
ENDBRANCH  11  13
ENDBRANCH   9  11
BRANCH   7  20
ATOM     20  C   UNL     1      -1.583   5.722   0.210  0.00  0.00    +0.131 C 
BRANCH  20  21
ATOM     21  C   UNL     1      -0.889   4.448  -0.277  0.00  0.00    -0.038 C 
ATOM     22  C   UNL     1      -0.164   3.783   0.895  0.00  0.00    -0.013 C 
ATOM     23  C   UNL     1       0.546   2.519   0.400  0.00  0.00    -0.003 C 
ATOM     24  C   UNL     1       1.514   2.895  -0.725  0.00  0.00    -0.019 C 
ATOM     25  C   UNL     1       0.740   3.586  -1.850  0.00  0.00    -0.082 C 
ATOM     26  N   UNL     1       0.083   4.800  -1.329  0.00  0.00    +0.383 N 
ATOM     27  H   UNL     1       0.794   5.427  -0.935  0.00  0.00    -0.085 HD
ATOM     28  H   UNL     1      -0.406   5.276  -2.096  0.00  0.00    -0.085 HD
ENDBRANCH  20  21
BRANCH  20  29
ATOM     29  O   UNL     1      -2.527   5.390   1.230  0.00  0.00    -0.389 OA
ATOM     30  H   UNL     1      -3.220   4.780   0.941  0.00  0.00    +0.210 HD
ENDBRANCH  20  29
ENDBRANCH   7  20
TORSDOF 5
