REMARK  Name = ZINC52014931
REMARK  8 active torsions:
REMARK  status: ('A' for Active; 'I' for Inactive)
REMARK    1  A    between atoms: C_2  and  N_21
REMARK    2  A    between atoms: N_4  and  C_6
REMARK    3  A    between atoms: C_6  and  C_7
REMARK    4  A    between atoms: C_7  and  C_9
REMARK    5  A    between atoms: C_7  and  O_20
REMARK    6  A    between atoms: C_9  and  N_10
REMARK    7  A    between atoms: N_10  and  C_11
REMARK    8  A    between atoms: C_17  and  O_19
REMARK                            x       y       z     vdW  Elec       q    Type
REMARK                         _______ _______ _______ _____ _____    ______ ____
ROOT
ATOM      1  C   UNL     1       1.196  -2.566   1.159  0.00  0.00    +0.119 C 
ENDROOT
BRANCH   1   2
ATOM      2  O   UNL     1       1.688  -2.012   2.381  0.00  0.00    -0.392 OA
ATOM      3  H   UNL     1       2.649  -2.061   2.476  0.00  0.00    +0.210 HD
ENDBRANCH   1   2
BRANCH   1   4
ATOM      4  C   UNL     1       1.806  -1.812  -0.025  0.00  0.00    +0.172 C 
BRANCH   4   8
ATOM      5  C   UNL     1      -0.016   1.304   0.009  0.00  0.00    +0.167 A 
ATOM      6  C   UNL     1       1.307   1.759  -0.001  0.00  0.00    +0.163 A 
ATOM      7  C   UNL     1       2.119   0.677  -0.015  0.00  0.00    +0.141 A 
ATOM      8  N   UNL     1       1.339  -0.424  -0.013  0.00  0.00    -0.267 N 
ATOM      9  N   UNL     1       0.002  -0.004   0.002  0.00  0.00    -0.177 NA
BRANCH   6  10
ATOM     10  N   UNL     1       1.741   3.174   0.002  0.00  0.00    +0.059 N 
ATOM     11  O   UNL     1       0.918   4.059   0.014  0.00  0.00    -0.126 OA
ATOM     12  O   UNL     1       2.919   3.445  -0.008  0.00  0.00    -0.126 OA
ENDBRANCH   6  10
ENDBRANCH   4   8
ENDBRANCH   1   4
BRANCH   1  13
ATOM     13  C   UNL     1       1.583  -4.043   1.076  0.00  0.00    -0.049 C 
BRANCH  13  14
ATOM     14  N   UNL     1       0.901  -4.789   2.143  0.00  0.00    +0.384 N 
ATOM     15  H   UNL     1       1.176  -4.418   3.040  0.00  0.00    -0.085 HD
ATOM     16  H   UNL     1      -0.098  -4.696   2.032  0.00  0.00    -0.085 HD
BRANCH  14  17
ATOM     17  C   UNL     1       1.273  -6.207   2.064  0.00  0.00    -0.043 C 
ATOM     18  C   UNL     1       0.747  -6.801   0.755  0.00  0.00    -0.013 C 
ATOM     19  C   UNL     1       1.134  -8.278   0.673  0.00  0.00    -0.001 C 
ATOM     20  C   UNL     1       0.524  -9.032   1.857  0.00  0.00    +0.002 C 
ATOM     21  C   UNL     1       1.050  -8.439   3.165  0.00  0.00    +0.030 C 
ATOM     22  C   UNL     1       0.663  -6.961   3.247  0.00  0.00    +0.101 C 
BRANCH  22  23
ATOM     23  O   UNL     1      -0.760  -6.839   3.208  0.00  0.00    -0.393 OA
ATOM     24  H   UNL     1      -1.215  -7.293   3.930  0.00  0.00    +0.210 HD
ENDBRANCH  22  23
ENDBRANCH  14  17
ENDBRANCH  13  14
ENDBRANCH   1  13
TORSDOF 8
