REMARK  Name = ZINC12293288
REMARK  8 active torsions:
REMARK  status: ('A' for Active; 'I' for Inactive)
REMARK    1  A    between atoms: C_1  and  C_2
REMARK    2  A    between atoms: C_2  and  N_3
REMARK    3  A    between atoms: C_5  and  C_12
REMARK    4  A    between atoms: C_12  and  C_14
REMARK    5  A    between atoms: C_12  and  O_32
REMARK    6  A    between atoms: C_14  and  N_61
REMARK    7  A    between atoms: C_21  and  O_31
REMARK    8  A    between atoms: C_25  and  O_30
REMARK                            x       y       z     vdW  Elec       q    Type
REMARK                         _______ _______ _______ _____ _____    ______ ____
ROOT
ATOM      1  C   UNL     1      -2.135  -0.380   1.050  0.00  0.00    -0.075 C 
ATOM      2  C   UNL     1      -3.586  -0.849   0.920  0.00  0.00    +0.029 C 
ATOM      3  C   UNL     1      -4.349  -0.495   2.197  0.00  0.00    +0.110 C 
ATOM      4  C   UNL     1      -4.261   1.012   2.443  0.00  0.00    +0.029 C 
ATOM      5  C   UNL     1      -2.789   1.425   2.528  0.00  0.00    -0.075 C 
ATOM      6  C   UNL     1      -5.819  -0.903   2.044  0.00  0.00    +0.084 C 
ATOM      7  C   UNL     1      -5.870  -2.391   1.689  0.00  0.00    +0.152 C 
ATOM      8  C   UNL     1      -4.982  -3.168   2.627  0.00  0.00    +0.026 A 
ATOM      9  C   UNL     1      -5.161  -4.538   2.731  0.00  0.00    +0.055 A 
ATOM     10  C   UNL     1      -4.359  -5.285   3.579  0.00  0.00    +0.117 A 
ATOM     11  C   UNL     1      -3.372  -4.658   4.325  0.00  0.00    +0.049 A 
ATOM     12  C   UNL     1      -3.193  -3.294   4.223  0.00  0.00    +0.049 A 
ATOM     13  C   UNL     1      -3.999  -2.543   3.374  0.00  0.00    +0.127 A 
ATOM     14  O   UNL     1      -3.793  -1.200   3.305  0.00  0.00    -0.485 OA
ATOM     15  N   UNL     1      -2.121   1.084   1.254  0.00  0.00    +0.382 N 
ATOM     16  H   UNL     1      -2.627   1.533   0.482  0.00  0.00    -0.082 HD
ENDROOT
BRANCH  10  17
ATOM     17  O   UNL     1      -4.538  -6.629   3.677  0.00  0.00    -0.507 OA
ATOM     18  H   UNL     1      -5.167  -6.892   4.363  0.00  0.00    +0.292 HD
ENDBRANCH  10  17
BRANCH   7  19
ATOM     19  O   UNL     1      -7.214  -2.862   1.808  0.00  0.00    -0.387 OA
ATOM     20  H   UNL     1      -7.324  -3.799   1.595  0.00  0.00    +0.210 HD
ENDBRANCH   7  19
BRANCH  15  21
ATOM     21  C   UNL     1      -0.729   1.579   1.267  0.00  0.00    -0.042 C 
BRANCH  21  22
ATOM     22  C   UNL     1      -0.022   1.110  -0.006  0.00  0.00    +0.130 C 
BRANCH  22  25
ATOM     23  N   UNL     1       3.135   2.953  -0.451  0.00  0.00    -0.347 N 
ATOM     24  C   UNL     1       1.793   2.775  -0.649  0.00  0.00    +0.093 A 
ATOM     25  C   UNL     1       1.383   1.656  -0.031  0.00  0.00    +0.004 A 
ATOM     26  C   UNL     1       2.560   1.064   0.608  0.00  0.00    +0.005 A 
ATOM     27  C   UNL     1       3.635   1.922   0.312  0.00  0.00    +0.049 A 
ATOM     28  C   UNL     1       4.904   1.614   0.793  0.00  0.00    +0.026 A 
ATOM     29  C   UNL     1       5.092   0.479   1.550  0.00  0.00    +0.002 A 
ATOM     30  C   UNL     1       4.028  -0.364   1.839  0.00  0.00    +0.001 A 
ATOM     31  C   UNL     1       2.773  -0.081   1.378  0.00  0.00    +0.010 A 
BRANCH  23  33
ATOM     32  C   UNL     1       4.570   3.659  -2.300  0.00  0.00    +0.027 C 
ATOM     33  C   UNL     1       3.923   4.070  -0.976  0.00  0.00    +0.118 C 
ENDBRANCH  23  33
ENDBRANCH  22  25
BRANCH  22  34
ATOM     34  O   UNL     1      -0.737   1.581  -1.150  0.00  0.00    -0.389 OA
ATOM     35  H   UNL     1      -0.807   2.544  -1.201  0.00  0.00    +0.210 HD
ENDBRANCH  22  34
ENDBRANCH  21  22
ENDBRANCH  15  21
TORSDOF 7
