REMARK  Name = ZINC32542212
REMARK  9 active torsions:
REMARK  status: ('A' for Active; 'I' for Inactive)
REMARK    1  A    between atoms: C_1  and  C_2
REMARK    2  A    between atoms: C_2  and  C_4
REMARK    3  A    between atoms: C_2  and  N_14
REMARK    4  A    between atoms: C_7  and  S_10
REMARK    5  A    between atoms: S_10  and  N_13
REMARK    6  A    between atoms: N_14  and  C_15
REMARK    7  A    between atoms: N_14  and  C_16
REMARK    8  A    between atoms: C_16  and  C_17
REMARK    9  A    between atoms: N_19  and  C_20
REMARK                            x       y       z     vdW  Elec       q    Type
REMARK                         _______ _______ _______ _____ _____    ______ ____
ROOT
ATOM      1  N   UNL     1      -3.672   1.365  -0.284  0.00  0.00    +0.388 N 
ATOM      2  C   UNL     1      -3.726   1.880  -1.659  0.00  0.00    -0.095 C 
ATOM      3  H   UNL     1      -3.643   2.227   0.398  0.00  0.00    -0.081 HD
ENDROOT
BRANCH   1   5
ATOM      4  C   UNL     1      -4.825   0.144   1.498  0.00  0.00    -0.008 C 
ATOM      5  C   UNL     1      -4.872   0.580   0.031  0.00  0.00    -0.041 C 
BRANCH   5   6
ATOM      6  C   UNL     1      -6.100   1.421  -0.204  0.00  0.00    -0.061 A 
ATOM      7  C   UNL     1      -6.105   2.754   0.162  0.00  0.00    +0.004 A 
ATOM      8  C   UNL     1      -7.229   3.527  -0.059  0.00  0.00    +0.029 A 
ATOM      9  C   UNL     1      -8.353   2.964  -0.635  0.00  0.00    +0.105 A 
ATOM     10  C   UNL     1      -8.350   1.630  -0.996  0.00  0.00    +0.029 A 
ATOM     11  C   UNL     1      -7.223   0.858  -0.780  0.00  0.00    +0.004 A 
BRANCH   9  12
ATOM     12  S   UNL     1      -9.789   3.948  -0.909  0.00  0.00    +0.056 S 
ATOM     13  O   UNL     1      -9.349   5.297  -0.985  0.00  0.00    -0.153 OA
ATOM     14  O   UNL     1     -10.514   3.323  -1.959  0.00  0.00    -0.153 OA
BRANCH  12  15
ATOM     15  N   UNL     1     -10.728   3.832   0.449  0.00  0.00    -0.204 NA
ATOM     16  H   UNL     1     -11.639   4.435   0.318  0.00  0.00    +0.144 HD
ATOM     17  H   UNL     1     -10.165   4.204   1.318  0.00  0.00    +0.144 HD
ENDBRANCH  12  15
ENDBRANCH   9  12
ENDBRANCH   5   6
ENDBRANCH   1   5
BRANCH   1  18
ATOM     18  C   UNL     1      -2.453   0.576  -0.066  0.00  0.00    +0.019 C 
BRANCH  18  19
ATOM     19  C   UNL     1      -1.247   1.476  -0.160  0.00  0.00    +0.201 C 
ATOM     20  O   UNL     1      -1.390   2.659  -0.387  0.00  0.00    -0.278 OA
ATOM     21  N   UNL     1      -0.011   0.966   0.007  0.00  0.00    -0.287 N 
ATOM     22  H   UNL     1       0.125  -0.119   0.129  0.00  0.00    +0.155 HD
BRANCH  21  23
ATOM     23  C   UNL     1       1.100   1.817   0.026  0.00  0.00    +0.036 A 
ATOM     24  C   UNL     1       2.318   1.381  -0.478  0.00  0.00    +0.023 A 
ATOM     25  C   UNL     1       3.412   2.224  -0.464  0.00  0.00    +0.005 A 
ATOM     26  C   UNL     1       3.299   3.497   0.062  0.00  0.00    +0.038 A 
ATOM     27  C   UNL     1       2.088   3.934   0.572  0.00  0.00    +0.125 A 
ATOM     28  C   UNL     1       0.987   3.095   0.555  0.00  0.00    +0.061 A 
ATOM     29  F   UNL     1       1.980   5.178   1.086  0.00  0.00    -0.205 F 
ENDBRANCH  21  23
ENDBRANCH  18  19
ENDBRANCH   1  18
TORSDOF 7
