REMARK  Name = ZINC11681534
REMARK  8 active torsions:
REMARK  status: ('A' for Active; 'I' for Inactive)
REMARK    1  A    between atoms: C_10  and  C_13
REMARK    2  A    between atoms: C_13  and  C_15
REMARK    3  A    between atoms: C_13  and  O_32
REMARK    4  A    between atoms: C_15  and  N_53
REMARK    5  A    between atoms: C_16  and  C_17
REMARK    6  A    between atoms: C_16  and  N_53
REMARK    7  A    between atoms: C_17  and  C_19
REMARK    8  A    between atoms: C_17  and  O_31
REMARK                            x       y       z     vdW  Elec       q    Type
REMARK                         _______ _______ _______ _____ _____    ______ ____
ROOT
ATOM      1  N   UNL     1      -2.070   0.968   1.331  0.00  0.00    +0.383 N 
ATOM      2  H   UNL     1      -1.975  -0.054   1.361  0.00  0.00    -0.086 HD
ATOM      3  H   UNL     1      -2.605   1.238   0.497  0.00  0.00    -0.086 HD
ENDROOT
BRANCH   1   4
ATOM      4  C   UNL     1      -0.729   1.579   1.267  0.00  0.00    -0.047 C 
BRANCH   4   5
ATOM      5  C   UNL     1      -0.013   1.086   0.008  0.00  0.00    +0.138 C 
BRANCH   5  15
ATOM      6  C   UNL     1       5.473   1.375   2.517  0.00  0.00    +0.042 A 
ATOM      7  C   UNL     1       4.106   1.209   2.428  0.00  0.00    +0.049 A 
ATOM      8  C   UNL     1       3.465   1.319   1.199  0.00  0.00    +0.124 A 
ATOM      9  C   UNL     1       4.203   1.599   0.062  0.00  0.00    -0.003 A 
ATOM     10  C   UNL     1       5.575   1.763   0.155  0.00  0.00    +0.045 A 
ATOM     11  C   UNL     1       6.210   1.651   1.378  0.00  0.00    +0.124 A 
ATOM     12  F   UNL     1       7.549   1.812   1.462  0.00  0.00    -0.205 F 
ATOM     13  C   UNL     1       3.545   1.737  -1.287  0.00  0.00    +0.042 C 
ATOM     14  C   UNL     1       2.153   1.102  -1.250  0.00  0.00    +0.052 C 
ATOM     15  C   UNL     1       1.423   1.615  -0.003  0.00  0.00    +0.200 C 
ATOM     16  O   UNL     1       2.118   1.145   1.153  0.00  0.00    -0.486 OA
ENDBRANCH   5  15
BRANCH   5  17
ATOM     17  O   UNL     1      -0.704   1.559  -1.150  0.00  0.00    -0.390 OA
ATOM     18  H   UNL     1      -0.756   2.523  -1.210  0.00  0.00    +0.210 HD
ENDBRANCH   5  17
ENDBRANCH   4   5
ENDBRANCH   1   4
BRANCH   1  19
ATOM     19  C   UNL     1      -2.785   1.427   2.537  0.00  0.00    -0.047 C 
BRANCH  19  20
ATOM     20  C   UNL     1      -4.170   0.778   2.576  0.00  0.00    +0.138 C 
BRANCH  20  21
ATOM     21  C   UNL     1      -4.964   1.343   3.756  0.00  0.00    +0.200 C 
ATOM     22  C   UNL     1      -6.363   0.715   3.784  0.00  0.00    +0.052 C 
ATOM     23  C   UNL     1      -7.090   1.216   5.035  0.00  0.00    +0.042 C 
ATOM     24  C   UNL     1      -6.951   2.714   5.136  0.00  0.00    -0.003 A 
ATOM     25  C   UNL     1      -7.821   3.408   5.960  0.00  0.00    +0.045 A 
ATOM     26  C   UNL     1      -7.718   4.782   6.084  0.00  0.00    +0.124 A 
ATOM     27  C   UNL     1      -6.741   5.467   5.381  0.00  0.00    +0.042 A 
ATOM     28  C   UNL     1      -5.874   4.779   4.558  0.00  0.00    +0.049 A 
ATOM     29  C   UNL     1      -5.977   3.397   4.430  0.00  0.00    +0.124 A 
ATOM     30  O   UNL     1      -5.107   2.756   3.606  0.00  0.00    -0.486 OA
ATOM     31  F   UNL     1      -8.569   5.455   6.889  0.00  0.00    -0.205 F 
ENDBRANCH  20  21
BRANCH  20  32
ATOM     32  O   UNL     1      -4.029  -0.636   2.731  0.00  0.00    -0.390 OA
ATOM     33  H   UNL     1      -3.567  -0.899   3.538  0.00  0.00    +0.210 HD
ENDBRANCH  20  32
ENDBRANCH  19  20
ENDBRANCH   1  19
TORSDOF 8
