REMARK  Name = ZINC20249530
REMARK  7 active torsions:
REMARK  status: ('A' for Active; 'I' for Inactive)
REMARK    1  A    between atoms: C_1  and  O_2
REMARK    2  A    between atoms: O_2  and  C_3
REMARK    3  A    between atoms: C_6  and  N_9
REMARK    4  A    between atoms: C_12  and  C_17
REMARK    5  A    between atoms: C_17  and  N_18
REMARK    6  A    between atoms: N_21  and  C_24
REMARK    7  A    between atoms: C_25  and  C_26
REMARK                            x       y       z     vdW  Elec       q    Type
REMARK                         _______ _______ _______ _____ _____    ______ ____
ROOT
ATOM      1  N   UNL     1       1.187   3.494   0.052  0.00  0.00    -0.284 N 
ATOM      2  C   UNL     1       2.376   4.193   0.130  0.00  0.00    +0.224 A 
ATOM      3  N   UNL     1       2.363   5.520   0.237  0.00  0.00    -0.198 NA
ATOM      4  C   UNL     1       3.499   6.189   0.317  0.00  0.00    +0.150 A 
ATOM      5  N   UNL     1       4.653   5.546   0.280  0.00  0.00    -0.198 NA
ATOM      6  C   UNL     1       4.674   4.220   0.168  0.00  0.00    +0.217 A 
ATOM      7  N   UNL     1       3.534   3.543   0.093  0.00  0.00    -0.181 NA
ATOM      8  N   UNL     1       5.880   3.549   0.131  0.00  0.00    -0.327 N 
ATOM      9  H   UNL     1       0.232   4.037  -0.004  0.00  0.00    +0.155 HD
ATOM     10  H   UNL     1       5.896   2.453   0.038  0.00  0.00    +0.145 HD
ATOM     11  H   UNL     1       6.824   4.110   0.193  0.00  0.00    +0.145 HD
ENDROOT
BRANCH   1  15
ATOM     12  C   UNL     1       1.218  -0.675   0.029  0.00  0.00    +0.120 A 
ATOM     13  C   UNL     1       2.182   0.021   0.744  0.00  0.00    +0.047 A 
ATOM     14  C   UNL     1       2.172   1.402   0.752  0.00  0.00    +0.027 A 
ATOM     15  C   UNL     1       1.198   2.094   0.044  0.00  0.00    +0.034 A 
ATOM     16  C   UNL     1       0.234   1.396  -0.672  0.00  0.00    +0.027 A 
ATOM     17  C   UNL     1       0.245   0.015  -0.679  0.00  0.00    +0.047 A 
BRANCH  12  19
ATOM     18  C   UNL     1       0.207  -2.687  -0.736  0.00  0.00    +0.277 C 
ATOM     19  O   UNL     1       1.228  -2.035   0.021  0.00  0.00    -0.495 OA
ENDBRANCH  12  19
ENDBRANCH   1  15
BRANCH   4  20
ATOM     20  C   UNL     1       3.480   7.691   0.443  0.00  0.00    +0.161 C 
BRANCH  20  21
ATOM     21  N   UNL     1       3.495   8.296  -0.895  0.00  0.00    -0.292 NA
ATOM     22  C   UNL     1       4.760   8.012  -1.587  0.00  0.00    +0.102 C 
ATOM     23  C   UNL     1       4.667   8.500  -3.036  0.00  0.00    +0.100 C 
ATOM     24  N   UNL     1       4.266   9.916  -3.028  0.00  0.00    -0.397 NA
ATOM     25  C   UNL     1       3.083  10.299  -2.242  0.00  0.00    +0.100 C 
ATOM     26  C   UNL     1       3.239   9.740  -0.823  0.00  0.00    +0.102 C 
ATOM     27  H   UNL     1       4.839  10.668  -3.590  0.00  0.00    +0.126 HD
BRANCH  24  28
ATOM     28  C   UNL     1       4.982  10.860  -3.740  0.00  0.00    +0.053 C 
ATOM     29  C   UNL     1       4.655  12.154  -3.651  0.00  0.00    +0.021 C 
BRANCH  29  30
ATOM     30  C   UNL     1       5.492  13.173  -4.311  0.00  0.00    -0.024 A 
ATOM     31  C   UNL     1       6.630  12.791  -5.025  0.00  0.00    +0.008 A 
ATOM     32  C   UNL     1       7.405  13.749  -5.645  0.00  0.00    +0.001 A 
ATOM     33  C   UNL     1       7.064  15.087  -5.551  0.00  0.00    +0.000 A 
ATOM     34  C   UNL     1       5.941  15.473  -4.841  0.00  0.00    +0.001 A 
ATOM     35  C   UNL     1       5.154  14.525  -4.221  0.00  0.00    +0.008 A 
ENDBRANCH  29  30
ENDBRANCH  24  28
ENDBRANCH  20  21
ENDBRANCH   4  20
TORSDOF 6
