REMARK  Name = ZINC42583463
REMARK  7 active torsions:
REMARK  status: ('A' for Active; 'I' for Inactive)
REMARK    1  A    between atoms: C_1  and  C_2
REMARK    2  A    between atoms: C_2  and  C_3
REMARK    3  A    between atoms: C_2  and  C_4
REMARK    4  A    between atoms: C_4  and  C_6
REMARK    5  A    between atoms: C_4  and  S_9
REMARK    6  A    between atoms: S_9  and  C_10
REMARK    7  A    between atoms: N_14  and  C_15
REMARK                            x       y       z     vdW  Elec       q    Type
REMARK                         _______ _______ _______ _____ _____    ______ ____
ROOT
ATOM      1  C   UNL     1      -2.648  -3.084  -0.129  0.00  0.00    +0.193 A 
ATOM      2  N   UNL     1      -3.759  -2.492  -0.495  0.00  0.00    -0.121 NA
ATOM      3  N   UNL     1      -4.764  -3.465  -0.571  0.00  0.00    -0.113 NA
ATOM      4  C   UNL     1      -4.234  -4.620  -0.248  0.00  0.00    +0.215 A 
ATOM      5  N   UNL     1      -2.912  -4.416   0.028  0.00  0.00    -0.294 N 
ATOM      6  C   UNL     1      -1.948  -5.444   0.427  0.00  0.00    +0.154 C 
ATOM      7  N   UNL     1      -4.900  -5.838  -0.201  0.00  0.00    -0.328 N 
ATOM      8  H   UNL     1      -5.844  -5.884  -0.420  0.00  0.00    +0.145 HD
ATOM      9  H   UNL     1      -4.421  -6.643   0.050  0.00  0.00    +0.145 HD
ENDROOT
BRANCH   1  10
ATOM     10  S   UNL     1      -1.088  -2.302   0.112  0.00  0.00    -0.071 S 
BRANCH  10  11
ATOM     11  C   UNL     1      -1.412  -0.555  -0.254  0.00  0.00    +0.170 C 
BRANCH  11  13
ATOM     12  C   UNL     1       0.865  -0.322  -1.256  0.00  0.00    +0.009 C 
ATOM     13  C   UNL     1      -0.099   0.229  -0.203  0.00  0.00    +0.007 C 
ATOM     14  C   UNL     1      -0.375   1.706  -0.488  0.00  0.00    +0.009 C 
ENDBRANCH  11  13
BRANCH  11  15
ATOM     15  C   UNL     1      -2.369   0.003   0.768  0.00  0.00    +0.369 C 
ATOM     16  O   UNL     1      -3.493   0.337   0.432  0.00  0.00    -0.245 OA
ATOM     17  O   UNL     1      -2.021   0.119   1.931  0.00  0.00    -0.245 OA
ENDBRANCH  11  15
ENDBRANCH  10  11
ENDBRANCH   1  10
TORSDOF 4
