REMARK  Name = ZINC13297965
REMARK  12 active torsions:
REMARK  status: ('A' for Active; 'I' for Inactive)
REMARK    1  A    between atoms: C_1  and  C_2
REMARK    2  A    between atoms: C_2  and  C_3
REMARK    3  A    between atoms: C_2  and  C_4
REMARK    4  A    between atoms: C_7  and  N_10
REMARK    5  A    between atoms: C_13  and  C_20
REMARK    6  A    between atoms: C_15  and  O_19
REMARK    7  A    between atoms: C_21  and  N_56
REMARK    8  A    between atoms: C_23  and  O_36
REMARK    9  A    between atoms: C_25  and  O_35
REMARK   10  A    between atoms: C_27  and  C_33
REMARK   11  A    between atoms: C_30  and  O_32
REMARK   12  A    between atoms: C_33  and  O_34
REMARK                            x       y       z     vdW  Elec       q    Type
REMARK                         _______ _______ _______ _____ _____    ______ ____
ROOT
ATOM      1  N   UNL     1      -0.314  -0.235   1.222  0.00  0.00    -0.192 N 
ATOM      2  C   UNL     1      -1.462  -0.893   0.946  0.00  0.00    +0.244 C 
ATOM      3  O   UNL     1      -2.525  -0.313   0.884  0.00  0.00    -0.274 OA
ATOM      4  C   UNL     1      -1.361  -2.389   0.713  0.00  0.00    +0.197 C 
ATOM      5  C   UNL     1       0.026  -2.992   0.826  0.00  0.00    +0.198 C 
ATOM      6  N   UNL     1       1.021  -2.191   1.108  0.00  0.00    -0.131 NA
ATOM      7  C   UNL     1       0.858  -0.877   1.296  0.00  0.00    +0.339 C 
ATOM      8  O   UNL     1       1.847  -0.218   1.555  0.00  0.00    -0.250 OA
ENDROOT
BRANCH   1  12
ATOM      9  C   UNL     1      -0.428   3.881   1.874  0.00  0.00    -0.045 A 
ATOM     10  C   UNL     1      -0.582   3.010   2.937  0.00  0.00    +0.006 A 
ATOM     11  C   UNL     1      -0.545   1.645   2.724  0.00  0.00    +0.024 A 
ATOM     12  C   UNL     1      -0.353   1.149   1.441  0.00  0.00    +0.045 A 
ATOM     13  C   UNL     1      -0.193   2.027   0.377  0.00  0.00    +0.024 A 
ATOM     14  C   UNL     1      -0.236   3.390   0.596  0.00  0.00    +0.006 A 
BRANCH   9  16
ATOM     15  C   UNL     1       0.857   5.992   1.668  0.00  0.00    +0.012 C 
ATOM     16  C   UNL     1      -0.469   5.369   2.110  0.00  0.00    +0.013 C 
ATOM     17  C   UNL     1      -1.615   5.982   1.302  0.00  0.00    +0.012 C 
ENDBRANCH   9  16
ENDBRANCH   1  12
BRANCH   4  18
ATOM     18  C   UNL     1      -1.892  -2.690  -0.665  0.00  0.00    +0.073 C 
ATOM     19  N   UNL     1      -3.002  -3.389  -0.743  0.00  0.00    -0.383 N 
ATOM     20  H   UNL     1      -3.470  -3.707   0.114  0.00  0.00    +0.159 HD
BRANCH  19  21
ATOM     21  C   UNL     1      -3.586  -3.725  -2.087  0.00  0.00    +0.166 C 
ATOM     22  C   UNL     1      -3.666  -5.249  -2.212  0.00  0.00    +0.172 C 
ATOM     23  C   UNL     1      -4.379  -5.606  -3.520  0.00  0.00    +0.176 C 
ATOM     24  C   UNL     1      -5.761  -4.948  -3.537  0.00  0.00    +0.178 C 
ATOM     25  O   UNL     1      -5.615  -3.534  -3.386  0.00  0.00    -0.341 OA
ATOM     26  C   UNL     1      -4.999  -3.139  -2.159  0.00  0.00    +0.272 C 
BRANCH  26  27
ATOM     27  O   UNL     1      -4.927  -1.713  -2.100  0.00  0.00    -0.365 OA
ATOM     28  H   UNL     1      -5.787  -1.274  -2.141  0.00  0.00    +0.213 HD
ENDBRANCH  26  27
BRANCH  23  29
ATOM     29  O   UNL     1      -3.610  -5.131  -4.627  0.00  0.00    -0.387 OA
ATOM     30  H   UNL     1      -4.005  -5.319  -5.490  0.00  0.00    +0.210 HD
ENDBRANCH  23  29
BRANCH  22  31
ATOM     31  O   UNL     1      -4.400  -5.782  -1.108  0.00  0.00    -0.387 OA
ATOM     32  H   UNL     1      -4.489  -6.744  -1.123  0.00  0.00    +0.210 HD
ENDBRANCH  22  31
BRANCH  24  33
ATOM     33  C   UNL     1      -6.454  -5.251  -4.867  0.00  0.00    +0.190 C 
BRANCH  33  34
ATOM     34  O   UNL     1      -7.787  -4.734  -4.837  0.00  0.00    -0.392 OA
ATOM     35  H   UNL     1      -8.287  -4.891  -5.650  0.00  0.00    +0.210 HD
ENDBRANCH  33  34
ENDBRANCH  24  33
ENDBRANCH  19  21
ENDBRANCH   4  18
BRANCH   5  36
ATOM     36  O   UNL     1       0.226  -4.307   0.643  0.00  0.00    -0.496 OA
ATOM     37  H   UNL     1       1.134  -4.629   0.729  0.00  0.00    +0.293 HD
ENDBRANCH   5  36
TORSDOF 10
