REMARK  Name = ZINC09728848
REMARK  10 active torsions:
REMARK  status: ('A' for Active; 'I' for Inactive)
REMARK    1  A    between atoms: C_1  and  C_2
REMARK    2  A    between atoms: C_3  and  C_34
REMARK    3  A    between atoms: N_4  and  C_27
REMARK    4  A    between atoms: C_5  and  N_9
REMARK    5  A    between atoms: C_6  and  C_7
REMARK    6  A    between atoms: C_10  and  C_12
REMARK    7  A    between atoms: C_12  and  N_57
REMARK    8  A    between atoms: C_13  and  N_57
REMARK    9  A    between atoms: C_14  and  C_15
REMARK   10  A    between atoms: C_14  and  N_57
REMARK                            x       y       z     vdW  Elec       q    Type
REMARK                         _______ _______ _______ _____ _____    ______ ____
ROOT
ATOM      1  N   UNL     1       4.054   8.613  -0.655  0.00  0.00    -0.272 N 
ATOM      2  C   UNL     1       3.191   7.604  -0.886  0.00  0.00    +0.202 C 
ATOM      3  O   UNL     1       2.076   7.843  -1.300  0.00  0.00    -0.278 OA
ATOM      4  H   UNL     1       4.917   8.430  -0.250  0.00  0.00    +0.156 HD
ENDROOT
BRANCH   1   9
ATOM      5  C   UNL     1       3.990  13.217  -2.737  0.00  0.00    +0.047 C 
ATOM      6  C   UNL     1       3.651  11.999  -1.917  0.00  0.00    -0.010 A 
ATOM      7  C   UNL     1       2.617  11.864  -1.072  0.00  0.00    +0.027 A 
ATOM      8  N   UNL     1       2.647  10.612  -0.515  0.00  0.00    -0.300 N 
ATOM      9  C   UNL     1       3.710   9.912  -0.996  0.00  0.00    +0.128 A 
ATOM     10  C   UNL     1       4.392  10.732  -1.885  0.00  0.00    +0.095 A 
ATOM     11  C   UNL     1       1.585  12.924  -0.780  0.00  0.00    +0.064 C 
BRANCH   8  12
ATOM     12  C   UNL     1       1.718  10.123   0.414  0.00  0.00    +0.051 A 
ATOM     13  C   UNL     1       2.109   9.878   1.724  0.00  0.00    +0.026 A 
ATOM     14  C   UNL     1       1.192   9.397   2.639  0.00  0.00    +0.005 A 
ATOM     15  C   UNL     1      -0.113   9.159   2.252  0.00  0.00    +0.038 A 
ATOM     16  C   UNL     1      -0.507   9.402   0.947  0.00  0.00    +0.125 A 
ATOM     17  C   UNL     1       0.406   9.889   0.029  0.00  0.00    +0.064 A 
ATOM     18  F   UNL     1      -1.783   9.168   0.572  0.00  0.00    -0.205 F 
ENDBRANCH   8  12
BRANCH  10  19
ATOM     19  C   UNL     1       5.575  10.406  -2.622  0.00  0.00    +0.103 C 
ATOM     20  N   UNL     1       6.514  10.148  -3.207  0.00  0.00    -0.191 NA
ENDBRANCH  10  19
ENDBRANCH   1   9
BRANCH   2  21
ATOM     21  C   UNL     1       3.610   6.179  -0.629  0.00  0.00    +0.019 C 
BRANCH  21  23
ATOM     22  C   UNL     1       1.369   5.478  -0.039  0.00  0.00    -0.095 C 
ATOM     23  N   UNL     1       2.491   5.282  -0.982  0.00  0.00    +0.388 N 
ATOM     24  H   UNL     1       2.171   5.505  -1.932  0.00  0.00    -0.081 HD
BRANCH  23  25
ATOM     25  C   UNL     1       2.941   3.874  -0.946  0.00  0.00    -0.003 C 
BRANCH  25  26
ATOM     26  C   UNL     1       1.854   3.002  -1.519  0.00  0.00    +0.094 A 
ATOM     27  N   UNL     1       2.075   1.663  -1.595  0.00  0.00    -0.312 N 
ATOM     28  H   UNL     1       2.918   1.297  -1.283  0.00  0.00    +0.170 HD
ATOM     29  C   UNL     1       1.132   0.836  -2.102  0.00  0.00    +0.259 A 
ATOM     30  O   UNL     1       1.317  -0.364  -2.177  0.00  0.00    -0.267 OA
ATOM     31  C   UNL     1      -0.124   1.446  -2.566  0.00  0.00    +0.065 A 
ATOM     32  C   UNL     1      -1.161   0.683  -3.098  0.00  0.00    +0.015 A 
ATOM     33  C   UNL     1      -2.318   1.306  -3.512  0.00  0.00    +0.001 A 
ATOM     34  C   UNL     1      -2.460   2.682  -3.397  0.00  0.00    +0.002 A 
ATOM     35  C   UNL     1      -1.449   3.453  -2.868  0.00  0.00    +0.028 A 
ATOM     36  C   UNL     1      -0.267   2.846  -2.441  0.00  0.00    +0.078 A 
ATOM     37  N   UNL     1       0.755   3.567  -1.915  0.00  0.00    -0.236 NA
ENDBRANCH  25  26
ENDBRANCH  23  25
ENDBRANCH  21  23
ENDBRANCH   2  21
TORSDOF 7
