REMARK  Name = ZINC18114088
REMARK  1 active torsions:
REMARK  status: ('A' for Active; 'I' for Inactive)
REMARK    1  A    between atoms: C_4  and  N_7
REMARK                            x       y       z     vdW  Elec       q    Type
REMARK                         _______ _______ _______ _____ _____    ______ ____
ROOT
ATOM      1  N   UNL     1       2.479  -2.725   0.064  0.00  0.00    -0.328 N 
ATOM      2  C   UNL     1       3.653  -2.026  -0.096  0.00  0.00    +0.180 C 
ATOM      3  N   UNL     1       3.643  -0.724  -0.073  0.00  0.00    -0.371 N 
ATOM      4  N   UNL     1       4.841  -2.704  -0.280  0.00  0.00    -0.298 N 
ATOM      5  C   UNL     1       4.872  -4.074  -0.184  0.00  0.00    +0.212 A 
ATOM      6  N   UNL     1       3.743  -4.742  -0.071  0.00  0.00    -0.175 NA
ATOM      7  C   UNL     1       3.750  -6.077   0.026  0.00  0.00    +0.278 A 
ATOM      8  O   UNL     1       2.698  -6.688   0.131  0.00  0.00    -0.265 OA
ATOM      9  C   UNL     1       4.986  -6.783   0.005  0.00  0.00    +0.038 A 
ATOM     10  C   UNL     1       6.127  -6.086  -0.119  0.00  0.00    +0.027 A 
ATOM     11  N   UNL     1       6.064  -4.719  -0.213  0.00  0.00    -0.329 N 
ATOM     12  C   UNL     1       7.483  -6.736  -0.174  0.00  0.00    +0.054 C 
ATOM     13  C   UNL     1       7.417  -8.165   0.363  0.00  0.00    +0.006 C 
ATOM     14  C   UNL     1       6.267  -8.893  -0.343  0.00  0.00    +0.005 C 
ATOM     15  C   UNL     1       4.949  -8.282   0.129  0.00  0.00    +0.042 C 
ATOM     16  H   UNL     1       2.496  -3.693   0.131  0.00  0.00    +0.169 HD
ATOM     17  H   UNL     1       4.459  -0.230  -0.249  0.00  0.00    +0.159 HD
ATOM     18  H   UNL     1       2.820  -0.248   0.120  0.00  0.00    +0.159 HD
ATOM     19  H   UNL     1       5.654  -2.213  -0.477  0.00  0.00    +0.172 HD
ATOM     20  H   UNL     1       6.884  -4.207  -0.297  0.00  0.00    +0.168 HD
ENDROOT
BRANCH   1  24
ATOM     21  C   UNL     1      -1.150  -0.689   0.258  0.00  0.00    +0.000 A 
ATOM     22  C   UNL     1      -1.011  -1.772  -0.591  0.00  0.00    +0.002 A 
ATOM     23  C   UNL     1       0.190  -2.449  -0.658  0.00  0.00    +0.026 A 
ATOM     24  C   UNL     1       1.260  -2.042   0.129  0.00  0.00    +0.042 A 
ATOM     25  C   UNL     1       1.118  -0.954   0.980  0.00  0.00    +0.026 A 
ATOM     26  C   UNL     1      -0.087  -0.281   1.042  0.00  0.00    +0.002 A 
ENDBRANCH   1  24
TORSDOF 1
