REMARK  Name = ZINC12576147
REMARK  6 active torsions:
REMARK  status: ('A' for Active; 'I' for Inactive)
REMARK    1  A    between atoms: C_8  and  N_59
REMARK    2  A    between atoms: C_15  and  C_17
REMARK    3  A    between atoms: C_17  and  C_18
REMARK    4  A    between atoms: N_20  and  C_21
REMARK    5  A    between atoms: C_21  and  C_22
REMARK    6  A    between atoms: C_22  and  C_23
REMARK                            x       y       z     vdW  Elec       q    Type
REMARK                         _______ _______ _______ _____ _____    ______ ____
ROOT
ATOM      1  C   UNL     1      -0.548   3.451   7.523  0.00  0.00    -0.058 C 
ATOM      2  C   UNL     1       0.472   2.974   8.558  0.00  0.00    +0.085 C 
ATOM      3  N   UNL     1       0.445   1.517   8.654  0.00  0.00    -0.318 N 
ATOM      4  C   UNL     1      -0.089   0.737   7.708  0.00  0.00    +0.200 C 
ATOM      5  O   UNL     1      -0.042  -0.466   7.853  0.00  0.00    -0.278 OA
ATOM      6  C   UNL     1      -0.746   1.288   6.475  0.00  0.00    +0.028 C 
ATOM      7  H   UNL     1       0.832   1.097   9.438  0.00  0.00    +0.149 HD
ATOM      8  N   UNL     1      -0.325   2.689   6.279  0.00  0.00    +0.391 N 
ATOM      9  H   UNL     1       0.675   2.710   6.047  0.00  0.00    -0.080 HD
ENDROOT
BRANCH   8  17
ATOM     10  C   UNL     1      -1.012   6.618   1.765  0.00  0.00    +0.000 A 
ATOM     11  C   UNL     1      -0.734   5.516   0.977  0.00  0.00    +0.000 A 
ATOM     12  C   UNL     1      -0.541   4.281   1.564  0.00  0.00    +0.004 A 
ATOM     13  C   UNL     1      -0.625   4.141   2.939  0.00  0.00    -0.046 A 
ATOM     14  C   UNL     1      -0.903   5.242   3.727  0.00  0.00    -0.046 A 
ATOM     15  C   UNL     1      -1.097   6.481   3.137  0.00  0.00    +0.004 A 
ATOM     16  C   UNL     1      -0.942   4.833   5.184  0.00  0.00    +0.020 C 
ATOM     17  C   UNL     1      -1.091   3.297   5.168  0.00  0.00    -0.059 C 
ATOM     18  C   UNL     1      -0.460   2.912   3.813  0.00  0.00    +0.020 C 
ENDBRANCH   8  17
BRANCH   6  19
ATOM     19  C   UNL     1      -0.315   0.465   5.259  0.00  0.00    +0.089 C 
BRANCH  19  20
ATOM     20  C   UNL     1       1.169   0.623   5.046  0.00  0.00    +0.212 C 
ATOM     21  O   UNL     1       1.832   1.252   5.843  0.00  0.00    -0.276 OA
ATOM     22  N   UNL     1       1.758   0.064   3.970  0.00  0.00    -0.315 N 
ATOM     23  H   UNL     1       1.218  -0.376   3.295  0.00  0.00    +0.149 HD
BRANCH  22  24
ATOM     24  C   UNL     1       3.214   0.123   3.820  0.00  0.00    +0.108 C 
BRANCH  24  25
ATOM     25  C   UNL     1       3.632  -0.686   2.590  0.00  0.00    +0.049 C 
BRANCH  25  26
ATOM     26  C   UNL     1       5.130  -0.625   2.435  0.00  0.00    -0.072 C 
ATOM     27  C   UNL     1       5.832  -1.590   2.939  0.00  0.00    -0.028 C 
ATOM     28  C   UNL     1       7.329  -1.663   2.873  0.00  0.00    +0.027 C 
ATOM     29  C   UNL     1       7.857  -0.711   1.798  0.00  0.00    +0.004 C 
ATOM     30  C   UNL     1       7.211   0.664   2.009  0.00  0.00    +0.005 C 
ATOM     31  C   UNL     1       5.715   0.545   1.701  0.00  0.00    +0.030 C 
ENDBRANCH  25  26
ENDBRANCH  24  25
ENDBRANCH  22  24
ENDBRANCH  19  20
ENDBRANCH   6  19
TORSDOF 6
