REMARK  Name = ZINC12869581
REMARK  10 active torsions:
REMARK  status: ('A' for Active; 'I' for Inactive)
REMARK    1  A    between atoms: C_1  and  C_2
REMARK    2  A    between atoms: C_2  and  C_3
REMARK    3  A    between atoms: C_2  and  C_4
REMARK    4  A    between atoms: C_4  and  N_5
REMARK    5  A    between atoms: N_5  and  C_6
REMARK    6  A    between atoms: C_7  and  N_22
REMARK    7  A    between atoms: N_8  and  C_15
REMARK    8  A    between atoms: C_15  and  C_16
REMARK    9  A    between atoms: C_23  and  C_25
REMARK   10  A    between atoms: C_29  and  C_35
REMARK                            x       y       z     vdW  Elec       q    Type
REMARK                         _______ _______ _______ _____ _____    ______ ____
ROOT
ATOM      1  C   UNL     1      -1.235  -0.899   2.715  0.00  0.00    +0.140 A 
ATOM      2  C   UNL     1      -1.099  -2.260   2.899  0.00  0.00    +0.128 A 
ATOM      3  N   UNL     1      -2.174  -2.987   3.355  0.00  0.00    -0.276 N 
ATOM      4  C   UNL     1      -3.345  -2.378   3.619  0.00  0.00    +0.331 A 
ATOM      5  O   UNL     1      -4.283  -3.038   4.021  0.00  0.00    -0.246 OA
ATOM      6  N   UNL     1      -3.496  -1.053   3.446  0.00  0.00    -0.273 N 
ATOM      7  H   UNL     1      -4.350  -0.638   3.644  0.00  0.00    +0.173 HD
ATOM      8  C   UNL     1      -2.472  -0.295   3.007  0.00  0.00    +0.277 A 
ATOM      9  O   UNL     1      -2.618   0.907   2.859  0.00  0.00    -0.266 OA
ENDROOT
BRANCH   1  10
ATOM     10  N   UNL     1      -0.151  -0.126   2.248  0.00  0.00    -0.262 N 
ATOM     11  C   UNL     1       0.422   0.789   3.057  0.00  0.00    +0.241 C 
ATOM     12  O   UNL     1       1.303   1.507   2.632  0.00  0.00    -0.273 OA
BRANCH  11  13
ATOM     13  C   UNL     1      -0.031   0.920   4.488  0.00  0.00    +0.173 C 
ATOM     14  C   UNL     1       0.656  -0.188   5.321  0.00  0.00    +0.103 C 
ATOM     15  S   UNL     1       1.904   0.820   6.243  0.00  0.00    -0.133 S 
ATOM     16  C   UNL     1       0.911   2.371   6.262  0.00  0.00    +0.082 C 
ATOM     17  N   UNL     1       0.245   2.288   4.938  0.00  0.00    -0.275 N 
ATOM     18  C   UNL     1       0.106   3.558   4.471  0.00  0.00    +0.217 C 
ATOM     19  O   UNL     1      -0.623   3.883   3.558  0.00  0.00    -0.276 OA
ATOM     20  C   UNL     1       0.987   4.508   5.249  0.00  0.00    +0.099 C 
ATOM     21  C   UNL     1       1.835   3.594   6.149  0.00  0.00    +0.046 C 
ATOM     22  C   UNL     1      -0.053   2.455   7.447  0.00  0.00    +0.044 C 
ENDBRANCH  11  13
BRANCH  10  23
ATOM     23  C   UNL     1       0.352  -0.318   0.886  0.00  0.00    +0.117 C 
BRANCH  23  25
ATOM     24  C   UNL     1      -0.257   2.009   0.208  0.00  0.00    +0.009 C 
ATOM     25  C   UNL     1      -0.477   0.524  -0.087  0.00  0.00    +0.001 C 
ATOM     26  C   UNL     1      -0.044   0.220  -1.522  0.00  0.00    +0.009 C 
ENDBRANCH  23  25
ENDBRANCH  10  23
ENDBRANCH   1  10
BRANCH   2  27
ATOM     27  N   UNL     1       0.096  -2.882   2.628  0.00  0.00    -0.343 N 
ATOM     28  H   UNL     1       0.878  -2.354   2.404  0.00  0.00    +0.144 HD
ATOM     29  H   UNL     1       0.158  -3.850   2.662  0.00  0.00    +0.144 HD
ENDBRANCH   2  27
BRANCH   3  30
ATOM     30  C   UNL     1      -2.044  -4.433   3.554  0.00  0.00    +0.163 C 
BRANCH  30  31
ATOM     31  C   UNL     1      -1.581  -4.706   4.962  0.00  0.00    -0.028 A 
ATOM     32  C   UNL     1      -0.230  -4.773   5.245  0.00  0.00    +0.005 A 
ATOM     33  C   UNL     1       0.195  -5.024   6.536  0.00  0.00    +0.000 A 
ATOM     34  C   UNL     1      -0.732  -5.207   7.545  0.00  0.00    +0.000 A 
ATOM     35  C   UNL     1      -2.084  -5.138   7.263  0.00  0.00    +0.000 A 
ATOM     36  C   UNL     1      -2.508  -4.883   5.972  0.00  0.00    +0.005 A 
ENDBRANCH  30  31
ENDBRANCH   3  30
TORSDOF 7
