REMARK  Name = ZINC39232111
REMARK  5 active torsions:
REMARK  status: ('A' for Active; 'I' for Inactive)
REMARK    1  A    between atoms: C_4  and  N_7
REMARK    2  A    between atoms: C_8  and  S_13
REMARK    3  A    between atoms: S_13  and  C_14
REMARK    4  A    between atoms: C_14  and  C_15
REMARK    5  A    between atoms: N_17  and  C_21
REMARK                            x       y       z     vdW  Elec       q    Type
REMARK                         _______ _______ _______ _____ _____    ______ ____
ROOT
ATOM      1  N   UNL     1       3.620  -0.649  -0.036  0.00  0.00    -0.254 N 
ATOM      2  C   UNL     1       3.797  -2.111  -0.052  0.00  0.00    +0.202 C 
ATOM      3  N   UNL     1       5.262  -2.338  -0.109  0.00  0.00    -0.320 NA
ATOM      4  N   UNL     1       5.766  -1.063  -0.650  0.00  0.00    +0.411 N 
ATOM      5  N   UNL     1       4.868  -0.073  -0.046  0.00  0.00    -0.265 NA
ATOM      6  H   UNL     1       5.638  -2.514   0.811  0.00  0.00    +0.106 HD
ATOM      7  H   UNL     1       6.720  -0.905  -0.362  0.00  0.00    -0.031 HD
ATOM      8  H   UNL     1       4.866   0.785  -0.577  0.00  0.00    +0.125 HD
ATOM      9  H   UNL     1       5.686  -1.045  -1.656  0.00  0.00    -0.031 HD
ENDROOT
BRANCH   1  13
ATOM     10  C   UNL     1      -0.017   1.379   0.010  0.00  0.00    +0.000 A 
ATOM     11  C   UNL     1       1.169   2.089   0.002  0.00  0.00    +0.002 A 
ATOM     12  C   UNL     1       2.377   1.420  -0.013  0.00  0.00    +0.024 A 
ATOM     13  C   UNL     1       2.400   0.031  -0.021  0.00  0.00    +0.045 A 
ATOM     14  C   UNL     1       1.206  -0.680  -0.013  0.00  0.00    +0.024 A 
ATOM     15  C   UNL     1       0.002  -0.004   0.002  0.00  0.00    +0.002 A 
ENDBRANCH   1  13
BRANCH   2  16
ATOM     16  S   UNL     1       3.107  -2.842   1.458  0.00  0.00    -0.117 S 
BRANCH  16  17
ATOM     17  C   UNL     1       4.053  -2.061   2.795  0.00  0.00    +0.125 C 
BRANCH  17  18
ATOM     18  C   UNL     1       3.574  -2.587   4.123  0.00  0.00    +0.056 C 
ATOM     19  N   UNL     1       2.653  -3.451   4.308  0.00  0.00    -0.180 NA
ATOM     20  N   UNL     1       2.433  -3.738   5.652  0.00  0.00    -0.161 N 
ATOM     21  C   UNL     1       3.260  -3.022   6.443  0.00  0.00    +0.245 C 
ATOM     22  O   UNL     1       3.321  -3.041   7.655  0.00  0.00    -0.273 OA
ATOM     23  C   UNL     1       4.099  -2.195   5.489  0.00  0.00    +0.151 C 
BRANCH  20  24
ATOM     24  C   UNL     1       1.480  -4.649   6.121  0.00  0.00    +0.060 A 
ATOM     25  C   UNL     1       1.333  -4.862   7.486  0.00  0.00    +0.027 A 
ATOM     26  C   UNL     1       0.391  -5.761   7.946  0.00  0.00    +0.022 A 
ATOM     27  C   UNL     1      -0.406  -6.450   7.049  0.00  0.00    +0.041 A 
ATOM     28  C   UNL     1      -0.262  -6.240   5.689  0.00  0.00    +0.022 A 
ATOM     29  C   UNL     1       0.675  -5.338   5.223  0.00  0.00    +0.027 A 
ATOM     30 CL   UNL     1      -1.589  -7.580   7.631  0.00  0.00    -0.084 Cl
ENDBRANCH  20  24
ENDBRANCH  17  18
ENDBRANCH  16  17
ENDBRANCH   2  16
TORSDOF 5
