REMARK  Name = ZINC36698847
REMARK  12 active torsions:
REMARK  status: ('A' for Active; 'I' for Inactive)
REMARK    1  A    between atoms: C_1  and  C_2
REMARK    2  A    between atoms: C_7  and  C_8
REMARK    3  A    between atoms: N_12  and  C_13
REMARK    4  A    between atoms: C_13  and  C_14
REMARK    5  A    between atoms: C_14  and  N_15
REMARK    6  A    between atoms: N_15  and  C_16
REMARK    7  A    between atoms: N_15  and  C_17
REMARK    8  A    between atoms: C_18  and  C_20
REMARK    9  A    between atoms: C_23  and  S_26
REMARK   10  A    between atoms: S_26  and  N_29
REMARK   11  A    between atoms: C_31  and  C_38
REMARK   12  A    between atoms: C_34  and  C_37
REMARK                            x       y       z     vdW  Elec       q    Type
REMARK                         _______ _______ _______ _____ _____    ______ ____
ROOT
ATOM      1  C   UNL     1      -1.195   1.505  -0.580  0.00  0.00    +0.044 C 
ATOM      2  C   UNL     1      -0.809   0.051  -0.485  0.00  0.00    -0.045 A 
ATOM      3  C   UNL     1      -0.917  -0.745  -1.595  0.00  0.00    +0.032 A 
ATOM      4  C   UNL     1      -0.565  -2.112  -1.540  0.00  0.00    +0.081 A 
ATOM      5  C   UNL     1      -0.104  -2.589  -0.291  0.00  0.00    +0.041 A 
ATOM      6  C   UNL     1       0.001  -1.784   0.815  0.00  0.00    +0.021 A 
ATOM      7  C   UNL     1      -0.348  -0.449   0.724  0.00  0.00    -0.046 A 
ATOM      8  C   UNL     1      -0.235   0.451   1.927  0.00  0.00    +0.044 C 
ATOM      9  S   UNL     1       0.224  -4.301  -0.637  0.00  0.00    -0.052 S 
ATOM     10  C   UNL     1      -0.254  -4.277  -2.359  0.00  0.00    +0.168 A 
ATOM     11  N   UNL     1      -0.611  -3.026  -2.534  0.00  0.00    -0.224 NA
ATOM     12  N   UNL     1      -0.249  -5.315  -3.276  0.00  0.00    -0.248 N 
ATOM     13  C   UNL     1       0.158  -6.544  -2.900  0.00  0.00    +0.252 C 
ATOM     14  O   UNL     1       0.462  -6.756  -1.742  0.00  0.00    -0.270 OA
ENDROOT
BRANCH  13  15
ATOM     15  C   UNL     1       0.236  -7.633  -3.896  0.00  0.00    +0.037 A 
ATOM     16  C   UNL     1       0.386  -7.334  -5.251  0.00  0.00    +0.015 A 
ATOM     17  C   UNL     1       0.458  -8.356  -6.176  0.00  0.00    +0.029 A 
ATOM     18  C   UNL     1       0.382  -9.674  -5.762  0.00  0.00    +0.106 A 
ATOM     19  C   UNL     1       0.232  -9.977  -4.420  0.00  0.00    +0.029 A 
ATOM     20  C   UNL     1       0.165  -8.965  -3.485  0.00  0.00    +0.015 A 
BRANCH  18  21
ATOM     21  S   UNL     1       0.474 -10.973  -6.949  0.00  0.00    +0.061 S 
ATOM     22  O   UNL     1      -0.169 -12.099  -6.370  0.00  0.00    -0.153 OA
ATOM     23  O   UNL     1       0.065 -10.417  -8.191  0.00  0.00    -0.153 OA
BRANCH  21  24
ATOM     24  N   UNL     1       2.073 -11.372  -7.114  0.00  0.00    -0.176 NA
ATOM     25  C   UNL     1       2.916 -10.695  -8.108  0.00  0.00    +0.112 C 
ATOM     26  C   UNL     1       4.155 -10.134  -7.405  0.00  0.00    +0.002 C 
ATOM     27  C   UNL     1       4.861 -11.262  -6.647  0.00  0.00    +0.009 C 
ATOM     28  C   UNL     1       3.918 -11.831  -5.584  0.00  0.00    +0.002 C 
ATOM     29  C   UNL     1       2.677 -12.407  -6.263  0.00  0.00    +0.112 C 
ATOM     30  C   UNL     1       3.500 -10.717  -4.622  0.00  0.00    +0.009 C 
ATOM     31  C   UNL     1       5.109  -9.543  -8.445  0.00  0.00    +0.009 C 
ENDBRANCH  21  24
ENDBRANCH  18  21
ENDBRANCH  13  15
BRANCH  12  32
ATOM     32  C   UNL     1      -0.685  -5.077  -4.654  0.00  0.00    +0.097 C 
BRANCH  32  33
ATOM     33  C   UNL     1       0.384  -4.274  -5.396  0.00  0.00    -0.060 C 
BRANCH  33  34
ATOM     34  N   UNL     1      -0.109  -3.922  -6.734  0.00  0.00    +0.377 N 
ATOM     35  C   UNL     1       0.855  -3.030  -7.393  0.00  0.00    -0.097 C 
ATOM     36  C   UNL     1      -0.271  -5.144  -7.533  0.00  0.00    -0.097 C 
ATOM     37  H   UNL     1      -0.999  -3.453  -6.652  0.00  0.00    -0.083 HD
ENDBRANCH  33  34
ENDBRANCH  32  33
ENDBRANCH  12  32
TORSDOF 6
