REMARK  Name = ZINC01590758
REMARK  13 active torsions:
REMARK  status: ('A' for Active; 'I' for Inactive)
REMARK    1  A    between atoms: C_1  and  C_2
REMARK    2  A    between atoms: C_2  and  N_3
REMARK    3  A    between atoms: N_3  and  C_4
REMARK    4  A    between atoms: C_4  and  C_5
REMARK    5  A    between atoms: C_6  and  C_8
REMARK    6  A    between atoms: C_11  and  C_36
REMARK    7  A    between atoms: C_16  and  C_29
REMARK    8  A    between atoms: C_19  and  C_22
REMARK    9  A    between atoms: C_26  and  C_28
REMARK   10  A    between atoms: N_31  and  C_32
REMARK   11  A    between atoms: N_31  and  C_34
REMARK   12  A    between atoms: C_32  and  C_33
REMARK   13  A    between atoms: C_34  and  C_35
REMARK                            x       y       z     vdW  Elec       q    Type
REMARK                         _______ _______ _______ _____ _____    ______ ____
ROOT
ATOM      1  C   UNL     1       3.563   2.107   0.287  0.00  0.00    +0.062 A 
ATOM      2  C   UNL     1       3.564   3.470  -0.032  0.00  0.00    +0.015 A 
ATOM      3  C   UNL     1       2.381   4.105  -0.333  0.00  0.00    +0.008 A 
ATOM      4  C   UNL     1       1.184   3.406  -0.325  0.00  0.00    -0.006 A 
ATOM      5  C   UNL     1       1.162   2.058  -0.011  0.00  0.00    +0.153 A 
ATOM      6  C   UNL     1       2.355   1.403   0.294  0.00  0.00    +0.087 A 
ATOM      7  N   UNL     1       2.329   0.044   0.604  0.00  0.00    -0.308 N 
ATOM      8  C   UNL     1       1.171  -0.672   0.309  0.00  0.00    +0.089 A 
ATOM      9  C   UNL     1       1.183  -2.064   0.317  0.00  0.00    +0.090 A 
ATOM     10  C   UNL     1      -0.006  -2.773   0.005  0.00  0.00    +0.121 A 
ATOM     11  C   UNL     1      -1.175  -2.063  -0.304  0.00  0.00    +0.164 A 
ATOM     12  C   UNL     1      -1.161  -0.669  -0.303  0.00  0.00    +0.038 A 
ATOM     13  C   UNL     1      -0.006   0.025  -0.000  0.00  0.00    +0.157 A 
ATOM     14  O   UNL     1      -0.015   1.382  -0.002  0.00  0.00    -0.452 OA
ATOM     15  C   UNL     1      -2.421   0.088  -0.636  0.00  0.00    +0.051 C 
ATOM     16  O   UNL     1      -2.321  -2.712  -0.605  0.00  0.00    -0.419 OA
ATOM     17  C   UNL     1      -2.313  -4.054  -0.600  0.00  0.00    +0.359 A 
ATOM     18  O   UNL     1      -3.330  -4.668  -0.866  0.00  0.00    -0.243 OA
ATOM     19  C   UNL     1      -1.085  -4.782  -0.275  0.00  0.00    +0.123 A 
ATOM     20  N   UNL     1       0.002  -4.118   0.011  0.00  0.00    -0.241 NA
ATOM     21  C   UNL     1      -1.077  -6.289  -0.269  0.00  0.00    +0.073 C 
ATOM     22  C   UNL     1      -0.102   4.119  -0.657  0.00  0.00    +0.047 C 
ATOM     23  H   UNL     1       3.095  -0.390   1.013  0.00  0.00    +0.152 HD
ENDROOT
BRANCH   1  25
ATOM     24  N   UNL     1       5.618   1.892   1.594  0.00  0.00    -0.298 N 
ATOM     25  C   UNL     1       4.826   1.419   0.612  0.00  0.00    +0.249 C 
ATOM     26  O   UNL     1       5.154   0.425  -0.007  0.00  0.00    -0.270 OA
BRANCH  24  28
ATOM     27  C   UNL     1       7.986   1.996   0.991  0.00  0.00    +0.024 C 
ATOM     28  C   UNL     1       6.928   1.283   1.836  0.00  0.00    +0.104 C 
ENDBRANCH  24  28
BRANCH  24  29
ATOM     29  C   UNL     1       5.168   3.015   2.420  0.00  0.00    +0.104 C 
ATOM     30  C   UNL     1       4.519   2.481   3.699  0.00  0.00    +0.024 C 
ENDBRANCH  24  29
ENDBRANCH   1  25
BRANCH   9  31
ATOM     31  C   UNL     1       2.418  -2.793   0.646  0.00  0.00    +0.251 C 
ATOM     32  O   UNL     1       3.197  -3.099  -0.237  0.00  0.00    -0.270 OA
ATOM     33  N   UNL     1       2.685  -3.123   1.925  0.00  0.00    -0.298 N 
BRANCH  33  34
ATOM     34  C   UNL     1       3.914  -3.850   2.252  0.00  0.00    +0.104 C 
ATOM     35  C   UNL     1       5.035  -2.850   2.545  0.00  0.00    +0.024 C 
ENDBRANCH  33  34
BRANCH  33  36
ATOM     36  C   UNL     1       1.746  -2.756   2.988  0.00  0.00    +0.104 C 
ATOM     37  C   UNL     1       0.727  -3.881   3.179  0.00  0.00    +0.024 C 
ENDBRANCH  33  36
ENDBRANCH   9  31
TORSDOF 6
