REMARK  Name = ZINC04969799
REMARK  8 active torsions:
REMARK  status: ('A' for Active; 'I' for Inactive)
REMARK    1  A    between atoms: C_1  and  C_2
REMARK    2  A    between atoms: C_4  and  N_26
REMARK    3  A    between atoms: C_8  and  N_11
REMARK    4  A    between atoms: N_11  and  C_12
REMARK    5  A    between atoms: C_12  and  N_14
REMARK    6  A    between atoms: N_14  and  C_15
REMARK    7  A    between atoms: C_20  and  C_25
REMARK    8  A    between atoms: C_22  and  C_24
REMARK                            x       y       z     vdW  Elec       q    Type
REMARK                         _______ _______ _______ _____ _____    ______ ____
ROOT
ATOM      1  C   UNL     1       0.092   1.903  -0.121  0.00  0.00    +0.044 C 
ATOM      2  C   UNL     1      -0.650   2.109   1.175  0.00  0.00    -0.038 A 
ATOM      3  C   UNL     1      -1.996   2.322   1.183  0.00  0.00    +0.045 A 
ATOM      4  C   UNL     1      -2.665   2.507   2.401  0.00  0.00    +0.100 A 
ATOM      5  C   UNL     1      -0.700   2.289   3.605  0.00  0.00    +0.048 A 
ATOM      6  C   UNL     1       0.032   2.092   2.409  0.00  0.00    +0.003 A 
ATOM      7  C   UNL     1       1.419   1.884   2.469  0.00  0.00    +0.033 A 
ATOM      8  C   UNL     1       2.050   1.873   3.694  0.00  0.00    +0.033 A 
ATOM      9  C   UNL     1       1.320   2.069   4.872  0.00  0.00    +0.025 A 
ATOM     10  C   UNL     1      -0.024   2.273   4.837  0.00  0.00    +0.028 A 
ATOM     11  N   UNL     1      -2.062   2.500   3.616  0.00  0.00    -0.343 N 
ATOM     12  H   UNL     1      -2.586   2.642   4.487  0.00  0.00    +0.167 HD
ENDROOT
BRANCH   4  13
ATOM     13  N   UNL     1      -4.037   2.717   2.395  0.00  0.00    -0.312 N 
ATOM     14  C   UNL     1      -4.389   3.871   1.555  0.00  0.00    +0.134 C 
ATOM     15  C   UNL     1      -5.911   4.031   1.528  0.00  0.00    +0.178 C 
ATOM     16  O   UNL     1      -6.394   4.169   2.867  0.00  0.00    -0.377 OA
ATOM     17  C   UNL     1      -6.070   3.062   3.713  0.00  0.00    +0.178 C 
ATOM     18  C   UNL     1      -4.549   2.893   3.762  0.00  0.00    +0.134 C 
ENDBRANCH   4  13
BRANCH   8  19
ATOM     19  N   UNL     1       3.432   1.664   3.760  0.00  0.00    -0.297 N 
ATOM     20  H   UNL     1       4.019   2.101   3.124  0.00  0.00    +0.154 HD
BRANCH  19  21
ATOM     21  C   UNL     1       3.947   0.857   4.709  0.00  0.00    +0.135 C 
ATOM     22  S   UNL     1       2.904  -0.024   5.742  0.00  0.00    -0.019 S 
BRANCH  21  23
ATOM     23  N   UNL     1       5.283   0.744   4.845  0.00  0.00    -0.323 N 
ATOM     24  H   UNL     1       5.874   1.243   4.259  0.00  0.00    +0.148 HD
BRANCH  23  25
ATOM     25  C   UNL     1       5.843  -0.134   5.876  0.00  0.00    +0.075 C 
ATOM     26  C   UNL     1       5.923  -1.565   5.340  0.00  0.00    +0.022 C 
ATOM     27  C   UNL     1       6.508  -2.481   6.416  0.00  0.00    +0.002 C 
ATOM     28  C   UNL     1       7.910  -1.997   6.791  0.00  0.00    +0.003 C 
ATOM     29  C   UNL     1       7.830  -0.567   7.327  0.00  0.00    -0.009 C 
ATOM     30  C   UNL     1       7.245   0.350   6.250  0.00  0.00    +0.009 C 
ATOM     31  C   UNL     1       7.165   1.780   6.786  0.00  0.00    +0.009 C 
ATOM     32  C   UNL     1       9.232  -0.083   7.702  0.00  0.00    +0.008 C 
ENDBRANCH  23  25
ENDBRANCH  21  23
ENDBRANCH  19  21
ENDBRANCH   8  19
TORSDOF 5
