REMARK  Name = ZINC28048782
REMARK  5 active torsions:
REMARK  status: ('A' for Active; 'I' for Inactive)
REMARK    1  A    between atoms: C_1  and  C_2
REMARK    2  A    between atoms: C_5  and  N_9
REMARK    3  A    between atoms: N_12  and  C_13
REMARK    4  A    between atoms: C_22  and  O_23
REMARK    5  A    between atoms: N_24  and  C_25
REMARK                            x       y       z     vdW  Elec       q    Type
REMARK                         _______ _______ _______ _____ _____    ______ ____
ROOT
ATOM      1  C   UNL     1       2.308   5.308  -0.101  0.00  0.00    +0.140 A 
ATOM      2  C   UNL     1       2.370   4.054  -0.683  0.00  0.00    +0.074 A 
ATOM      3  C   UNL     1       1.137   3.251  -0.718  0.00  0.00    +0.042 A 
ATOM      4  C   UNL     1       1.126   1.977  -1.290  0.00  0.00    +0.013 A 
ATOM      5  C   UNL     1      -0.043   1.249  -1.307  0.00  0.00    +0.001 A 
ATOM      6  C   UNL     1      -1.205   1.778  -0.765  0.00  0.00    +0.004 A 
ATOM      7  C   UNL     1      -1.206   3.033  -0.193  0.00  0.00    +0.047 A 
ATOM      8  C   UNL     1      -0.038   3.784  -0.165  0.00  0.00    +0.141 A 
ATOM      9  O   UNL     1      -0.025   5.016   0.388  0.00  0.00    -0.424 OA
ATOM     10  C   UNL     1       1.088   5.765   0.429  0.00  0.00    +0.309 A 
ATOM     11  N   UNL     1       3.551   3.572  -1.215  0.00  0.00    -0.385 N 
ATOM     12  C   UNL     1       4.038   4.444  -2.292  0.00  0.00    +0.139 C 
ATOM     13  H   UNL     1       3.994   2.647  -0.819  0.00  0.00    +0.159 HD
ENDROOT
BRANCH   1  17
ATOM     14  N   UNL     1       4.516   8.149  -0.493  0.00  0.00    -0.268 N 
ATOM     15  C   UNL     1       3.393   7.406  -0.437  0.00  0.00    +0.308 C 
ATOM     16  O   UNL     1       2.323   7.896  -0.744  0.00  0.00    -0.252 OA
ATOM     17  N   UNL     1       3.456   6.119  -0.041  0.00  0.00    -0.262 N 
ATOM     18  H   UNL     1       5.494   7.684  -0.299  0.00  0.00    +0.156 HD
ATOM     19  H   UNL     1       4.404   5.703   0.330  0.00  0.00    +0.157 HD
BRANCH  14  24
ATOM     20  C   UNL     1       4.197  13.679  -1.727  0.00  0.00    +0.044 C 
ATOM     21  C   UNL     1       4.283  12.210  -1.400  0.00  0.00    -0.049 A 
ATOM     22  C   UNL     1       3.378  11.325  -1.956  0.00  0.00    +0.005 A 
ATOM     23  C   UNL     1       3.452   9.979  -1.658  0.00  0.00    +0.025 A 
ATOM     24  C   UNL     1       4.438   9.513  -0.798  0.00  0.00    +0.053 A 
ATOM     25  C   UNL     1       5.343  10.405  -0.235  0.00  0.00    +0.062 A 
ATOM     26  C   UNL     1       5.266  11.751  -0.542  0.00  0.00    +0.025 A 
ATOM     27 CL   UNL     1       6.573   9.830   0.846  0.00  0.00    -0.082 Cl
ENDBRANCH  14  24
ENDBRANCH   1  17
BRANCH  10  28
ATOM     28  O   UNL     1       1.041   6.870   0.941  0.00  0.00    -0.479 OA
ATOM     29  H   UNL     1       0.094   7.242   1.361  0.00  0.00    +0.295 HD
ENDBRANCH  10  28
TORSDOF 3
