REMARK  Name = ZINC12881552
REMARK  8 active torsions:
REMARK  status: ('A' for Active; 'I' for Inactive)
REMARK    1  A    between atoms: C_1  and  C_2
REMARK    2  A    between atoms: C_7  and  C_8
REMARK    3  A    between atoms: C_17  and  C_19
REMARK    4  A    between atoms: C_19  and  C_21
REMARK    5  A    between atoms: C_19  and  O_22
REMARK    6  A    between atoms: N_25  and  C_28
REMARK    7  A    between atoms: C_28  and  C_29
REMARK    8  A    between atoms: C_29  and  C_30
REMARK                            x       y       z     vdW  Elec       q    Type
REMARK                         _______ _______ _______ _____ _____    ______ ____
ROOT
ATOM      1  C   UNL     1      -1.734   9.819  -1.484  0.00  0.00    +0.044 C 
ATOM      2  C   UNL     1      -1.647   8.318  -1.375  0.00  0.00    -0.046 A 
ATOM      3  C   UNL     1      -2.474   7.643  -0.496  0.00  0.00    +0.004 A 
ATOM      4  C   UNL     1      -2.395   6.265  -0.396  0.00  0.00    +0.005 A 
ATOM      5  C   UNL     1      -1.494   5.569  -1.171  0.00  0.00    -0.027 A 
ATOM      6  C   UNL     1      -0.656   6.237  -2.058  0.00  0.00    +0.039 A 
ATOM      7  C   UNL     1      -0.743   7.624  -2.153  0.00  0.00    -0.026 A 
ATOM      8  C   UNL     1       0.153   8.370  -3.108  0.00  0.00    +0.046 C 
ATOM      9  N   UNL     1       0.165   5.327  -2.726  0.00  0.00    -0.286 N 
ATOM     10  C   UNL     1      -0.065   4.057  -2.340  0.00  0.00    +0.211 C 
ATOM     11  O   UNL     1       0.499   3.063  -2.746  0.00  0.00    -0.277 OA
ATOM     12  C   UNL     1      -1.157   4.111  -1.306  0.00  0.00    +0.050 C 
ATOM     13  C   UNL     1      -0.698   3.514   0.028  0.00  0.00    +0.088 C 
ATOM     14  C   UNL     1      -1.260   2.065   0.019  0.00  0.00    +0.075 C 
ATOM     15  C   UNL     1      -1.987   1.927  -1.331  0.00  0.00    -0.028 C 
ATOM     16  C   UNL     1      -0.014   1.208   0.009  0.00  0.00    +0.224 C 
ATOM     17  O   UNL     1       0.002  -0.004   0.002  0.00  0.00    -0.275 OA
ATOM     18  N   UNL     1       1.067   1.996   0.003  0.00  0.00    -0.241 N 
ATOM     19  C   UNL     1       0.799   3.307   0.010  0.00  0.00    +0.225 C 
ATOM     20  O   UNL     1       1.629   4.191   0.003  0.00  0.00    -0.275 OA
ATOM     21  H   UNL     1       0.824   5.579  -3.392  0.00  0.00    +0.155 HD
ATOM     22  N   UNL     1      -2.300   3.308  -1.706  0.00  0.00    +0.396 N 
ATOM     23  H   UNL     1      -2.445   3.376  -2.720  0.00  0.00    -0.083 HD
ATOM     24  H   UNL     1      -3.145   3.626  -1.217  0.00  0.00    -0.083 HD
ENDROOT
BRANCH  15  25
ATOM     25  C   UNL     1      -3.258   1.090  -1.173  0.00  0.00    +0.098 C 
ATOM     26  C   UNL     1      -3.999   1.032  -2.510  0.00  0.00    +0.036 C 
BRANCH  25  27
ATOM     27  O   UNL     1      -4.102   1.686  -0.186  0.00  0.00    -0.394 OA
ATOM     28  H   UNL     1      -4.379   2.587  -0.398  0.00  0.00    +0.210 HD
ENDBRANCH  25  27
ENDBRANCH  15  25
BRANCH  18  29
ATOM     29  C   UNL     1       2.433   1.466  -0.012  0.00  0.00    +0.121 C 
BRANCH  29  30
ATOM     30  C   UNL     1       2.896   1.288  -1.459  0.00  0.00    +0.054 C 
BRANCH  30  31
ATOM     31  C   UNL     1       4.301   0.743  -1.474  0.00  0.00    -0.046 A 
ATOM     32  C   UNL     1       5.378   1.609  -1.486  0.00  0.00    +0.004 A 
ATOM     33  C   UNL     1       6.667   1.109  -1.494  0.00  0.00    +0.000 A 
ATOM     34  C   UNL     1       6.878  -0.257  -1.502  0.00  0.00    +0.000 A 
ATOM     35  C   UNL     1       5.801  -1.123  -1.495  0.00  0.00    +0.000 A 
ATOM     36  C   UNL     1       4.512  -0.623  -1.481  0.00  0.00    +0.004 A 
ENDBRANCH  30  31
ENDBRANCH  29  30
ENDBRANCH  18  29
TORSDOF 5
