REMARK  Name = ZINC64507982
REMARK  6 active torsions:
REMARK  status: ('A' for Active; 'I' for Inactive)
REMARK    1  A    between atoms: C_7  and  C_11
REMARK    2  A    between atoms: N_13  and  C_14
REMARK    3  A    between atoms: C_19  and  C_20
REMARK    4  A    between atoms: N_22  and  C_23
REMARK    5  A    between atoms: C_23  and  C_24
REMARK    6  A    between atoms: C_24  and  C_25
REMARK                            x       y       z     vdW  Elec       q    Type
REMARK                         _______ _______ _______ _____ _____    ______ ____
ROOT
ATOM      1  C   UNL     1      -1.847  -3.553  -1.226  0.00  0.00    +0.046 A 
ATOM      2  C   UNL     1      -1.491  -3.956  -2.506  0.00  0.00    +0.024 A 
ATOM      3  C   UNL     1      -2.446  -4.471  -3.359  0.00  0.00    +0.002 A 
ATOM      4  C   UNL     1      -3.763  -4.592  -2.947  0.00  0.00    +0.001 A 
ATOM      5  C   UNL     1      -4.134  -4.199  -1.680  0.00  0.00    +0.015 A 
ATOM      6  C   UNL     1      -3.179  -3.680  -0.803  0.00  0.00    +0.058 A 
ENDROOT
BRANCH   1   9
ATOM      7  C   UNL     1       0.412  -3.362  -0.522  0.00  0.00    +0.240 C 
ATOM      8  O   UNL     1       0.730  -4.189  -1.350  0.00  0.00    -0.273 OA
ATOM      9  N   UNL     1      -0.886  -3.032  -0.363  0.00  0.00    -0.283 N 
ATOM     10  H   UNL     1      -1.150  -2.432   0.352  0.00  0.00    +0.155 HD
BRANCH   7  17
ATOM     11  C   UNL     1       1.313   0.803  -1.242  0.00  0.00    +0.000 A 
ATOM     12  C   UNL     1       2.649   1.155  -1.166  0.00  0.00    +0.001 A 
ATOM     13  C   UNL     1       3.554   0.255  -0.635  0.00  0.00    +0.016 A 
ATOM     14  C   UNL     1       3.116  -0.974  -0.187  0.00  0.00    +0.028 A 
ATOM     15  C   UNL     1       1.772  -1.343  -0.241  0.00  0.00    -0.006 A 
ATOM     16  C   UNL     1       0.878  -0.423  -0.790  0.00  0.00    +0.007 A 
ATOM     17  C   UNL     1       1.466  -2.703   0.330  0.00  0.00    +0.182 C 
ATOM     18  N   UNL     1       2.655  -3.586   0.381  0.00  0.00    -0.243 NA
ATOM     19  S   UNL     1       3.961  -2.368   0.521  0.00  0.00    -0.043 S 
ATOM     20  H   UNL     1       2.628  -4.182   1.194  0.00  0.00    +0.137 HD
ENDBRANCH   7  17
ENDBRANCH   1   9
BRANCH   6  21
ATOM     21  C   UNL     1      -3.568  -3.262   0.557  0.00  0.00    +0.246 C 
ATOM     22  O   UNL     1      -2.756  -2.724   1.284  0.00  0.00    -0.270 OA
ATOM     23  N   UNL     1      -4.825  -3.477   0.993  0.00  0.00    -0.311 N 
ATOM     24  H   UNL     1      -5.473  -3.906   0.413  0.00  0.00    +0.149 HD
BRANCH  23  25
ATOM     25  C   UNL     1      -5.212  -3.062   2.344  0.00  0.00    +0.109 C 
BRANCH  25  26
ATOM     26  C   UNL     1      -6.680  -3.419   2.586  0.00  0.00    +0.052 C 
BRANCH  26  27
ATOM     27  C   UNL     1      -7.079  -2.992   3.976  0.00  0.00    -0.040 C 
ATOM     28  C   UNL     1      -7.682  -1.835   4.329  0.00  0.00    -0.001 A 
ATOM     29  C   UNL     1      -8.130  -0.670   3.556  0.00  0.00    +0.010 A 
ATOM     30  C   UNL     1      -8.715   0.362   4.204  0.00  0.00    +0.001 A 
ATOM     31  C   UNL     1      -8.902   0.349   5.593  0.00  0.00    +0.002 A 
ATOM     32  C   UNL     1      -8.517  -0.684   6.371  0.00  0.00    +0.026 A 
ATOM     33  C   UNL     1      -7.892  -1.824   5.794  0.00  0.00    +0.043 A 
ATOM     34  N   UNL     1      -7.436  -2.932   6.326  0.00  0.00    -0.380 N 
ATOM     35  C   UNL     1      -6.890  -3.775   5.256  0.00  0.00    +0.144 C 
ATOM     36  H   UNL     1      -7.459  -3.159   7.269  0.00  0.00    +0.160 HD
ENDBRANCH  26  27
ENDBRANCH  25  26
ENDBRANCH  23  25
ENDBRANCH   6  21
TORSDOF 6
