REMARK  Name = ZINC63492388
REMARK  3 active torsions:
REMARK  status: ('A' for Active; 'I' for Inactive)
REMARK    1  A    between atoms: C_1  and  S_2
REMARK    2  A    between atoms: S_2  and  C_3
REMARK    3  A    between atoms: C_7  and  C_11
REMARK                            x       y       z     vdW  Elec       q    Type
REMARK                         _______ _______ _______ _____ _____    ______ ____
ROOT
ATOM      1  C   UNL     1      -0.660   7.633  -0.904  0.00  0.00    +0.121 C 
ATOM      2  C   UNL     1       0.269   8.221  -1.968  0.00  0.00    +0.128 C 
ATOM      3  C   UNL     1      -0.412   7.975  -3.310  0.00  0.00    -0.035 C 
ATOM      4  C   UNL     1       0.472   7.343  -4.069  0.00  0.00    +0.001 A 
ATOM      5  C   UNL     1       0.432   6.919  -5.478  0.00  0.00    +0.030 A 
ATOM      6  C   UNL     1       1.532   6.267  -5.941  0.00  0.00    +0.042 A 
ATOM      7  C   UNL     1       2.656   5.998  -5.151  0.00  0.00    +0.022 A 
ATOM      8  C   UNL     1       2.781   6.357  -3.848  0.00  0.00    +0.027 A 
ATOM      9  C   UNL     1       1.690   7.053  -3.251  0.00  0.00    +0.043 A 
ATOM     10  N   UNL     1       1.559   7.535  -2.030  0.00  0.00    -0.376 N 
ATOM     11 CL   UNL     1       1.544   5.741  -7.595  0.00  0.00    -0.084 Cl
ATOM     12  C   UNL     1      -1.856   8.345  -3.545  0.00  0.00    +0.048 C 
ATOM     13  C   UNL     1      -2.642   7.797  -2.340  0.00  0.00    +0.086 C 
ATOM     14  N   UNL     1      -2.001   8.211  -1.088  0.00  0.00    -0.307 NA
ATOM     15  H   UNL     1      -2.592   8.013  -0.295  0.00  0.00    +0.123 HD
ATOM     16  H   UNL     1       2.193   7.452  -1.301  0.00  0.00    +0.160 HD
ENDROOT
BRANCH   1  21
ATOM     17  C   UNL     1      -0.859   3.449  -1.372  0.00  0.00    +0.172 A 
ATOM     18  N   UNL     1      -0.486   3.957  -0.164  0.00  0.00    -0.302 N 
ATOM     19  C   UNL     1      -0.414   5.293   0.014  0.00  0.00    +0.261 A 
ATOM     20  O   UNL     1      -0.080   5.758   1.092  0.00  0.00    -0.267 OA
ATOM     21  C   UNL     1      -0.727   6.135  -1.059  0.00  0.00    +0.102 A 
ATOM     22  C   UNL     1      -1.101   5.567  -2.265  0.00  0.00    +0.282 A 
ATOM     23  N   UNL     1      -1.150   4.238  -2.386  0.00  0.00    -0.185 NA
ATOM     24  O   UNL     1      -1.410   6.357  -3.320  0.00  0.00    -0.265 OA
ATOM     25  H   UNL     1      -0.273   3.358   0.568  0.00  0.00    +0.171 HD
BRANCH  17  27
ATOM     26  C   UNL     1      -1.472   1.495  -3.308  0.00  0.00    +0.093 C 
ATOM     27  S   UNL     1      -0.947   1.702  -1.584  0.00  0.00    -0.091 S 
ENDBRANCH  17  27
ENDBRANCH   1  21
TORSDOF 2
