REMARK  Name = ZINC35047413
REMARK  7 active torsions:
REMARK  status: ('A' for Active; 'I' for Inactive)
REMARK    1  A    between atoms: C_1  and  C_2
REMARK    2  A    between atoms: C_2  and  C_4
REMARK    3  A    between atoms: C_2  and  N_7
REMARK    4  A    between atoms: N_7  and  C_8
REMARK    5  A    between atoms: C_8  and  C_9
REMARK    6  A    between atoms: C_14  and  O_15
REMARK    7  A    between atoms: O_15  and  C_16
REMARK                            x       y       z     vdW  Elec       q    Type
REMARK                         _______ _______ _______ _____ _____    ______ ____
ROOT
ATOM      1  C   UNL     1      -2.050  -0.126  -1.234  0.00  0.00    -0.042 C 
ENDROOT
BRANCH   1   2
ATOM      2  C   UNL     1      -3.464  -0.648  -1.224  0.00  0.00    -0.021 A 
ATOM      3  C   UNL     1      -3.779  -1.806  -1.909  0.00  0.00    +0.020 A 
ATOM      4  C   UNL     1      -5.076  -2.285  -1.899  0.00  0.00    +0.019 A 
ATOM      5  C   UNL     1      -6.062  -1.607  -1.205  0.00  0.00    +0.034 A 
ATOM      6  C   UNL     1      -5.751  -0.448  -0.519  0.00  0.00    +0.061 A 
ATOM      7  C   UNL     1      -4.449   0.031  -0.522  0.00  0.00    +0.135 A 
ATOM      8 BR   UNL     1      -7.099   0.480   0.430  0.00  0.00    -0.046 Br
ATOM      9 BR   UNL     1      -5.503  -3.870  -2.838  0.00  0.00    -0.050 Br
BRANCH   7  10
ATOM     10  O   UNL     1      -4.139   1.167   0.157  0.00  0.00    -0.494 OA
ATOM     11  C   UNL     1      -4.254   2.401  -0.555  0.00  0.00    +0.277 C 
ENDBRANCH   7  10
ENDBRANCH   1   2
BRANCH   1  12
ATOM     12  N   UNL     1      -1.376  -0.512   0.012  0.00  0.00    +0.389 N 
ATOM     13  H   UNL     1      -1.363  -1.518   0.090  0.00  0.00    -0.084 HD
ATOM     14  H   UNL     1      -1.873  -0.121   0.799  0.00  0.00    -0.084 HD
BRANCH  12  16
ATOM     15  C   UNL     1      -0.019   1.526   0.010  0.00  0.00    -0.004 C 
ATOM     16  C   UNL     1       0.002  -0.004   0.002  0.00  0.00    +0.013 C 
BRANCH  16  17
ATOM     17  C   UNL     1       0.731  -0.503   1.223  0.00  0.00    +0.196 C 
ATOM     18  O   UNL     1       0.159  -1.213   2.023  0.00  0.00    -0.278 OA
ATOM     19  N   UNL     1       2.019  -0.161   1.426  0.00  0.00    -0.331 N 
ATOM     20  H   UNL     1       2.476   0.406   0.786  0.00  0.00    +0.145 HD
ATOM     21  H   UNL     1       2.488  -0.483   2.212  0.00  0.00    +0.145 HD
ENDBRANCH  16  17
ENDBRANCH  12  16
ENDBRANCH   1  12
TORSDOF 5
