REMARK  Name = ZINC05319262
REMARK  6 active torsions:
REMARK  status: ('A' for Active; 'I' for Inactive)
REMARK    1  A    between atoms: C_1  and  O_2
REMARK    2  A    between atoms: O_2  and  C_3
REMARK    3  A    between atoms: C_8  and  O_9
REMARK    4  A    between atoms: O_9  and  C_10
REMARK    5  A    between atoms: C_15  and  C_17
REMARK    6  A    between atoms: C_20  and  N_23
REMARK                            x       y       z     vdW  Elec       q    Type
REMARK                         _______ _______ _______ _____ _____    ______ ____
ROOT
ATOM      1  C   UNL     1      -2.689   1.575   2.470  0.00  0.00    +0.162 A 
ATOM      2  C   UNL     1      -4.008   1.184   2.631  0.00  0.00    +0.053 A 
ATOM      3  C   UNL     1      -4.616   0.383   1.680  0.00  0.00    -0.034 A 
ATOM      4  C   UNL     1      -3.904  -0.031   0.568  0.00  0.00    -0.054 A 
ATOM      5  C   UNL     1      -2.591   0.365   0.397  0.00  0.00    +0.051 A 
ATOM      6  C   UNL     1      -1.976   1.163   1.348  0.00  0.00    +0.162 A 
ATOM      7  C   UNL     1      -4.792  -0.907  -0.305  0.00  0.00    -0.036 C 
ATOM      8  C   UNL     1      -6.212  -0.546   0.132  0.00  0.00    -0.009 C 
ATOM      9  C   UNL     1      -6.029  -0.165   1.611  0.00  0.00    +0.051 C 
ATOM     10  C   UNL     1      -7.249  -1.607  -0.072  0.00  0.00    +0.001 C 
ATOM     11  C   UNL     1      -6.757  -3.030   0.100  0.00  0.00    -0.019 C 
ATOM     12  C   UNL     1      -5.410  -3.217  -0.596  0.00  0.00    -0.082 C 
ATOM     13  N   UNL     1      -4.437  -2.286   0.004  0.00  0.00    +0.384 N 
ATOM     14  H   UNL     1      -4.432  -2.414   1.023  0.00  0.00    -0.085 HD
ATOM     15  H   UNL     1      -3.502  -2.486  -0.370  0.00  0.00    -0.085 HD
ENDROOT
BRANCH   9  16
ATOM     16  C   UNL     1      -7.026   0.893   2.011  0.00  0.00    -0.040 A 
ATOM     17  C   UNL     1      -7.081   2.087   1.316  0.00  0.00    +0.006 A 
ATOM     18  C   UNL     1      -7.997   3.056   1.676  0.00  0.00    +0.023 A 
ATOM     19  C   UNL     1      -8.855   2.834   2.745  0.00  0.00    +0.025 A 
ATOM     20  C   UNL     1      -8.793   1.636   3.445  0.00  0.00    +0.023 A 
ATOM     21  C   UNL     1      -7.879   0.669   3.076  0.00  0.00    +0.006 A 
BRANCH  19  22
ATOM     22  N   UNL     1      -9.779   3.814   3.115  0.00  0.00    -0.358 N 
ATOM     23  H   UNL     1     -10.378   3.659   3.862  0.00  0.00    +0.142 HD
ATOM     24  H   UNL     1      -9.822   4.651   2.626  0.00  0.00    +0.142 HD
ENDBRANCH  19  22
ENDBRANCH   9  16
BRANCH   1  26
ATOM     25  C   UNL     1      -2.885   2.744   4.532  0.00  0.00    +0.277 C 
ATOM     26  O   UNL     1      -2.092   2.360   3.407  0.00  0.00    -0.491 OA
ENDBRANCH   1  26
BRANCH   6  27
ATOM     27  O   UNL     1      -0.682   1.547   1.184  0.00  0.00    -0.491 OA
ATOM     28  C   UNL     1      -0.013   1.086   0.008  0.00  0.00    +0.277 C 
ENDBRANCH   6  27
TORSDOF 4
