REMARK  Name = ZINC50200933
REMARK  7 active torsions:
REMARK  status: ('A' for Active; 'I' for Inactive)
REMARK    1  A    between atoms: C_1  and  C_2
REMARK    2  A    between atoms: C_6  and  N_8
REMARK    3  A    between atoms: C_9  and  C_11
REMARK    4  A    between atoms: N_13  and  C_14
REMARK    5  A    between atoms: C_14  and  C_15
REMARK    6  A    between atoms: N_20  and  C_22
REMARK    7  A    between atoms: C_22  and  C_23
REMARK                            x       y       z     vdW  Elec       q    Type
REMARK                         _______ _______ _______ _____ _____    ______ ____
ROOT
ATOM      1  C   UNL     1       0.278  -2.890   4.843  0.00  0.00    +0.299 C 
ATOM      2  O   UNL     1       0.293  -4.104   4.831  0.00  0.00    -0.265 OA
ATOM      3  N   UNL     1       0.377  -2.227   6.012  0.00  0.00    -0.307 N 
ATOM      4  H   UNL     1       0.364  -1.257   6.022  0.00  0.00    +0.149 HD
ENDROOT
BRANCH   1   6
ATOM      5  N   UNL     1       0.051  -2.796   2.394  0.00  0.00    -0.275 N 
ATOM      6  C   UNL     1       0.149  -2.132   3.563  0.00  0.00    +0.303 C 
ATOM      7  O   UNL     1       0.134  -0.919   3.575  0.00  0.00    -0.265 OA
ATOM      8  H   UNL     1      -0.002  -3.764   2.389  0.00  0.00    +0.155 HD
BRANCH   5  14
ATOM      9  C   UNL     1      -1.306   1.190  -0.144  0.00  0.00    +0.044 C 
ATOM     10  C   UNL     1      -0.626  -0.153  -0.071  0.00  0.00    -0.049 A 
ATOM     11  C   UNL     1      -0.028  -0.686  -1.199  0.00  0.00    +0.006 A 
ATOM     12  C   UNL     1       0.597  -1.918  -1.137  0.00  0.00    +0.040 A 
ATOM     13  C   UNL     1       0.625  -2.622   0.053  0.00  0.00    +0.145 A 
ATOM     14  C   UNL     1       0.025  -2.088   1.188  0.00  0.00    +0.070 A 
ATOM     15  C   UNL     1      -0.597  -0.848   1.122  0.00  0.00    +0.029 A 
ATOM     16  F   UNL     1       1.235  -3.826   0.113  0.00  0.00    -0.204 F 
ENDBRANCH   5  14
ENDBRANCH   1   6
BRANCH   3  17
ATOM     17  C   UNL     1       0.502  -2.971   7.268  0.00  0.00    +0.106 C 
BRANCH  17  18
ATOM     18  C   UNL     1       0.597  -1.987   8.436  0.00  0.00    -0.011 C 
ATOM     19  C   UNL     1      -0.718  -1.210   8.558  0.00  0.00    +0.001 C 
ATOM     20  C   UNL     1      -0.642  -0.286   9.776  0.00  0.00    -0.018 C 
ATOM     21  C   UNL     1      -0.343  -1.119  11.024  0.00  0.00    -0.078 C 
ATOM     22  N   UNL     1       0.938  -1.816  10.856  0.00  0.00    +0.383 N 
ATOM     23  C   UNL     1       0.851  -2.757   9.733  0.00  0.00    -0.073 C 
ATOM     24  H   UNL     1       1.665  -1.141  10.672  0.00  0.00    -0.081 HD
BRANCH  22  25
ATOM     25  C   UNL     1       1.258  -2.552  12.087  0.00  0.00    -0.036 C 
BRANCH  25  26
ATOM     26  C   UNL     1       1.479  -1.576  13.213  0.00  0.00    -0.027 A 
ATOM     27  C   UNL     1       0.581  -1.072  14.095  0.00  0.00    +0.009 A 
ATOM     28  C   UNL     1       1.015  -0.179  15.057  0.00  0.00    +0.008 A 
ATOM     29  C   UNL     1       2.325   0.165  15.091  0.00  0.00    +0.045 A 
ATOM     30  S   UNL     1       2.993  -0.789  13.738  0.00  0.00    -0.103 S 
ENDBRANCH  25  26
ENDBRANCH  22  25
ENDBRANCH  17  18
ENDBRANCH   3  17
TORSDOF 6
