REMARK  Name = ZINC22051909
REMARK  7 active torsions:
REMARK  status: ('A' for Active; 'I' for Inactive)
REMARK    1  A    between atoms: C_1  and  C_2
REMARK    2  A    between atoms: C_4  and  O_5
REMARK    3  A    between atoms: C_14  and  C_16
REMARK    4  A    between atoms: C_16  and  C_17
REMARK    5  A    between atoms: C_17  and  C_18
REMARK    6  A    between atoms: C_18  and  C_19
REMARK    7  A    between atoms: C_19  and  C_20
REMARK                            x       y       z     vdW  Elec       q    Type
REMARK                         _______ _______ _______ _____ _____    ______ ____
ROOT
ATOM      1  C   UNL     1       2.517  -0.089  -0.637  0.00  0.00    +0.045 C 
ATOM      2  C   UNL     1       1.298  -0.686   0.019  0.00  0.00    -0.033 A 
ATOM      3  C   UNL     1       1.357  -1.900   0.625  0.00  0.00    +0.091 A 
ATOM      4  C   UNL     1       0.203  -2.437   1.231  0.00  0.00    +0.285 A 
ATOM      5  O   UNL     1      -0.967  -1.779   1.228  0.00  0.00    -0.425 OA
ATOM      6  C   UNL     1      -1.093  -0.568   0.643  0.00  0.00    +0.141 A 
ATOM      7  C   UNL     1       0.019   0.027   0.019  0.00  0.00    +0.021 A 
ATOM      8  C   UNL     1      -0.106   1.282  -0.589  0.00  0.00    +0.013 A 
ATOM      9  C   UNL     1      -1.309   1.925  -0.575  0.00  0.00    +0.024 A 
ATOM     10  C   UNL     1      -2.415   1.341   0.042  0.00  0.00    +0.037 A 
ATOM     11  C   UNL     1      -2.309   0.096   0.644  0.00  0.00    +0.070 A 
ATOM     12  N   UNL     1      -3.639   2.011   0.048  0.00  0.00    -0.285 N 
ATOM     13  C   UNL     1      -4.789   1.315  -0.045  0.00  0.00    +0.217 C 
ATOM     14  O   UNL     1      -4.765   0.102  -0.052  0.00  0.00    -0.275 OA
ATOM     15  H   UNL     1      -3.665   3.108   0.129  0.00  0.00    +0.155 HD
ENDROOT
BRANCH   4  16
ATOM     16  O   UNL     1       0.269  -3.527   1.772  0.00  0.00    -0.480 OA
ATOM     17  H   UNL     1      -0.623  -3.959   2.249  0.00  0.00    +0.295 HD
ENDBRANCH   4  16
BRANCH  13  18
ATOM     18  C   UNL     1      -6.105   2.043  -0.142  0.00  0.00    +0.096 C 
BRANCH  18  19
ATOM     19  C   UNL     1      -7.245   1.026  -0.237  0.00  0.00    +0.009 C 
BRANCH  19  20
ATOM     20  C   UNL     1      -8.581   1.766  -0.335  0.00  0.00    +0.002 C 
BRANCH  20  21
ATOM     21  C   UNL     1      -9.720   0.749  -0.430  0.00  0.00    +0.016 C 
BRANCH  21  22
ATOM     22  C   UNL     1     -11.056   1.488  -0.528  0.00  0.00    +0.069 C 
ATOM     23  C   UNL     1     -12.236   0.520  -0.502  0.00  0.00    +0.108 C 
ATOM     24  C   UNL     1     -13.455   1.337  -1.031  0.00  0.00    +0.105 C 
ATOM     25  C   UNL     1     -13.126   1.850  -2.410  0.00  0.00    +0.093 C 
ATOM     26  S   UNL     1     -11.317   2.203  -2.221  0.00  0.00    -0.154 S 
ATOM     27  N   UNL     1     -14.536   0.466  -0.677  0.00  0.00    -0.294 N 
ATOM     28  C   UNL     1     -14.135  -0.145   0.479  0.00  0.00    +0.300 C 
ATOM     29  O   UNL     1     -14.882  -0.776   1.202  0.00  0.00    -0.253 OA
ATOM     30  N   UNL     1     -12.819   0.048   0.734  0.00  0.00    -0.294 N 
ATOM     31  H   UNL     1     -15.434   0.418  -1.312  0.00  0.00    +0.151 HD
ATOM     32  H   UNL     1     -12.189  -0.079   1.626  0.00  0.00    +0.151 HD
ENDBRANCH  21  22
ENDBRANCH  20  21
ENDBRANCH  19  20
ENDBRANCH  18  19
ENDBRANCH  13  18
TORSDOF 6
