REMARK  Name = ZINC63795096
REMARK  7 active torsions:
REMARK  status: ('A' for Active; 'I' for Inactive)
REMARK    1  A    between atoms: C_7  and  C_10
REMARK    2  A    between atoms: C_10  and  C_11
REMARK    3  A    between atoms: C_11  and  N_12
REMARK    4  A    between atoms: C_13  and  C_15
REMARK    5  A    between atoms: C_18  and  C_22
REMARK    6  A    between atoms: C_22  and  C_23
REMARK    7  A    between atoms: N_25  and  C_26
REMARK                            x       y       z     vdW  Elec       q    Type
REMARK                         _______ _______ _______ _____ _____    ______ ____
ROOT
ATOM      1  C   UNL     1      -1.738  -6.585  -2.653  0.00  0.00    +0.297 C 
ATOM      2  N   UNL     1      -1.085  -7.770  -2.039  0.00  0.00    -0.265 NA
ATOM      3  C   UNL     1      -2.246  -8.578  -1.577  0.00  0.00    +0.158 C 
ATOM      4  N   UNL     1      -3.219  -7.558  -1.119  0.00  0.00    -0.181 NA
ATOM      5  O   UNL     1      -2.870  -6.306  -1.809  0.00  0.00    -0.270 OA
ATOM      6  H   UNL     1      -0.541  -8.277  -2.721  0.00  0.00    +0.126 HD
ATOM      7  H   UNL     1      -3.179  -7.444  -0.117  0.00  0.00    +0.156 HD
ENDROOT
BRANCH   1   9
ATOM      8  N   UNL     1      -0.431  -4.825  -1.506  0.00  0.00    -0.312 N 
ATOM      9  C   UNL     1      -0.790  -5.412  -2.664  0.00  0.00    +0.259 C 
ATOM     10  O   UNL     1      -0.351  -4.998  -3.716  0.00  0.00    -0.271 OA
ATOM     11  H   UNL     1      -0.783  -5.156  -0.664  0.00  0.00    +0.149 HD
BRANCH   8  12
ATOM     12  C   UNL     1       0.489  -3.685  -1.517  0.00  0.00    +0.108 C 
BRANCH  12  13
ATOM     13  C   UNL     1       0.730  -3.210  -0.082  0.00  0.00    +0.052 C 
BRANCH  13  20
ATOM     14  C   UNL     1       0.047   1.327  -0.074  0.00  0.00    +0.001 A 
ATOM     15  C   UNL     1       1.233   2.074  -0.089  0.00  0.00    +0.002 A 
ATOM     16  C   UNL     1       2.455   1.502  -0.104  0.00  0.00    +0.026 A 
ATOM     17  C   UNL     1       2.585   0.085  -0.105  0.00  0.00    +0.043 A 
ATOM     18  N   UNL     1       3.639  -0.694  -0.119  0.00  0.00    -0.380 N 
ATOM     19  C   UNL     1       3.188  -2.090  -0.113  0.00  0.00    +0.144 C 
ATOM     20  C   UNL     1       1.677  -2.038  -0.094  0.00  0.00    -0.040 C 
ATOM     21  C   UNL     1       1.347  -0.726  -0.089  0.00  0.00    -0.001 A 
ATOM     22  C   UNL     1       0.058  -0.025  -0.073  0.00  0.00    +0.010 A 
ATOM     23  H   UNL     1       4.563  -0.398  -0.131  0.00  0.00    +0.160 HD
ENDBRANCH  13  20
ENDBRANCH  12  13
ENDBRANCH   8  12
ENDBRANCH   1   9
BRANCH   3  24
ATOM     24  C   UNL     1      -1.839  -9.494  -0.421  0.00  0.00    +0.132 C 
BRANCH  24  25
ATOM     25  C   UNL     1      -2.997 -10.386  -0.055  0.00  0.00    +0.220 C 
ATOM     26  O   UNL     1      -4.045 -10.297  -0.658  0.00  0.00    -0.275 OA
ATOM     27  N   UNL     1      -2.868 -11.282   0.944  0.00  0.00    -0.283 N 
ATOM     28  H   UNL     1      -2.011 -11.398   1.383  0.00  0.00    +0.155 HD
BRANCH  27  29
ATOM     29  C   UNL     1      -3.972 -12.046   1.347  0.00  0.00    +0.069 A 
ATOM     30  C   UNL     1      -4.911 -12.458   0.411  0.00  0.00    +0.029 A 
ATOM     31  C   UNL     1      -5.998 -13.210   0.810  0.00  0.00    +0.040 A 
ATOM     32  C   UNL     1      -6.153 -13.554   2.143  0.00  0.00    +0.126 A 
ATOM     33  C   UNL     1      -5.219 -13.144   3.079  0.00  0.00    +0.078 A 
ATOM     34  C   UNL     1      -4.125 -12.396   2.683  0.00  0.00    +0.147 A 
ATOM     35  F   UNL     1      -3.210 -12.001   3.595  0.00  0.00    -0.203 F 
ATOM     36  F   UNL     1      -7.218 -14.290   2.530  0.00  0.00    -0.205 F 
ENDBRANCH  27  29
ENDBRANCH  24  25
ENDBRANCH   3  24
TORSDOF 7
