REMARK  Name = ZINC12782199
REMARK  8 active torsions:
REMARK  status: ('A' for Active; 'I' for Inactive)
REMARK    1  A    between atoms: C_1  and  C_2
REMARK    2  A    between atoms: C_2  and  C_4
REMARK    3  A    between atoms: C_2  and  N_48
REMARK    4  A    between atoms: N_6  and  C_7
REMARK    5  A    between atoms: C_8  and  C_15
REMARK    6  A    between atoms: C_18  and  N_48
REMARK    7  A    between atoms: C_19  and  C_20
REMARK    8  A    between atoms: C_19  and  N_48
REMARK                            x       y       z     vdW  Elec       q    Type
REMARK                         _______ _______ _______ _____ _____    ______ ____
ROOT
ATOM      1  C   UNL     1       1.164  -4.660  -2.906  0.00  0.00    +0.204 C 
ATOM      2  O   UNL     1       1.498  -3.861  -3.755  0.00  0.00    -0.277 OA
ATOM      3  N   UNL     1       0.936  -5.945  -3.242  0.00  0.00    -0.281 N 
ATOM      4  H   UNL     1       0.669  -6.584  -2.563  0.00  0.00    +0.155 HD
ENDROOT
BRANCH   3   5
ATOM      5  C   UNL     1       1.083  -6.353  -4.559  0.00  0.00    +0.084 A 
ATOM      6  C   UNL     1       0.902  -7.618  -5.092  0.00  0.00    +0.068 A 
ATOM      7  C   UNL     1       1.120  -7.784  -6.529  0.00  0.00    -0.023 A 
ATOM      8  C   UNL     1       1.489  -6.668  -7.183  0.00  0.00    -0.004 A 
ATOM      9  S   UNL     1       1.546  -5.409  -5.933  0.00  0.00    -0.077 S 
ATOM     10  C   UNL     1       1.697  -6.919  -8.653  0.00  0.00    +0.043 C 
ATOM     11  C   UNL     1       0.987  -8.264  -8.922  0.00  0.00    +0.010 C 
ATOM     12  C   UNL     1       1.046  -8.934  -7.535  0.00  0.00    +0.037 C 
BRANCH   6  13
ATOM     13  C   UNL     1       0.501  -8.748  -4.249  0.00  0.00    +0.244 C 
ATOM     14  O   UNL     1      -0.679  -8.995  -4.082  0.00  0.00    -0.270 OA
ATOM     15  N   UNL     1       1.440  -9.514  -3.659  0.00  0.00    -0.325 N 
ATOM     16  H   UNL     1       2.381  -9.317  -3.792  0.00  0.00    +0.145 HD
ATOM     17  H   UNL     1       1.175 -10.262  -3.100  0.00  0.00    +0.145 HD
ENDBRANCH   6  13
ENDBRANCH   3   5
BRANCH   1  19
ATOM     18  C   UNL     1      -0.485  -4.134  -1.129  0.00  0.00    -0.004 C 
ATOM     19  C   UNL     1       1.004  -4.215  -1.475  0.00  0.00    +0.016 C 
BRANCH  19  21
ATOM     20  C   UNL     1       1.832  -2.594   0.122  0.00  0.00    -0.095 C 
ATOM     21  N   UNL     1       1.645  -2.894  -1.313  0.00  0.00    +0.388 N 
ATOM     22  H   UNL     1       2.563  -2.910  -1.772  0.00  0.00    -0.081 HD
BRANCH  21  23
ATOM     23  C   UNL     1       0.812  -1.847  -1.943  0.00  0.00    -0.042 C 
BRANCH  23  24
ATOM     24  C   UNL     1       1.587  -0.555  -1.960  0.00  0.00    -0.064 A 
ATOM     25  C   UNL     1       2.408  -0.255  -3.030  0.00  0.00    +0.003 A 
ATOM     26  C   UNL     1       3.118   0.931  -3.046  0.00  0.00    +0.015 A 
ATOM     27  C   UNL     1       3.006   1.818  -1.991  0.00  0.00    +0.018 A 
ATOM     28  C   UNL     1       2.185   1.517  -0.919  0.00  0.00    +0.015 A 
ATOM     29  C   UNL     1       1.475   0.331  -0.904  0.00  0.00    +0.003 A 
ATOM     30 BR   UNL     1       3.977   3.441  -2.012  0.00  0.00    -0.050 Br
ENDBRANCH  23  24
ENDBRANCH  21  23
ENDBRANCH  19  21
ENDBRANCH   1  19
TORSDOF 6
