REMARK  Name = ZINC66214454
REMARK  11 active torsions:
REMARK  status: ('A' for Active; 'I' for Inactive)
REMARK    1  A    between atoms: C_1  and  C_2
REMARK    2  A    between atoms: C_2  and  C_3
REMARK    3  A    between atoms: C_3  and  C_5
REMARK    4  A    between atoms: C_3  and  N_6
REMARK    5  A    between atoms: C_7  and  C_9
REMARK    6  A    between atoms: C_13  and  N_15
REMARK    7  A    between atoms: C_16  and  C_18
REMARK    8  A    between atoms: C_18  and  N_19
REMARK    9  A    between atoms: N_19  and  C_20
REMARK   10  A    between atoms: C_20  and  C_21
REMARK   11  A    between atoms: C_21  and  C_22
REMARK                            x       y       z     vdW  Elec       q    Type
REMARK                         _______ _______ _______ _____ _____    ______ ____
ROOT
ATOM      1  N   UNL     1       0.308   1.064  -8.416  0.00  0.00    -0.287 N 
ATOM      2  C   UNL     1      -0.423   1.317  -9.519  0.00  0.00    +0.200 C 
ATOM      3  O   UNL     1      -1.617   1.512  -9.424  0.00  0.00    -0.278 OA
ATOM      4  H   UNL     1       1.272   0.984  -8.481  0.00  0.00    +0.155 HD
ENDROOT
BRANCH   1   9
ATOM      5  C   UNL     1      -2.215   0.205  -5.869  0.00  0.00    +0.038 A 
ATOM      6  C   UNL     1      -1.563   0.626  -4.708  0.00  0.00    +0.013 A 
ATOM      7  C   UNL     1      -0.304   1.186  -4.788  0.00  0.00    +0.003 A 
ATOM      8  C   UNL     1       0.316   1.331  -6.016  0.00  0.00    +0.023 A 
ATOM      9  C   UNL     1      -0.324   0.914  -7.176  0.00  0.00    +0.034 A 
ATOM     10  C   UNL     1      -1.587   0.346  -7.106  0.00  0.00    +0.036 A 
BRANCH   5  12
ATOM     11  N   UNL     1      -4.168  -0.531  -4.589  0.00  0.00    -0.309 N 
ATOM     12  C   UNL     1      -3.563  -0.395  -5.786  0.00  0.00    +0.244 C 
ATOM     13  O   UNL     1      -4.127  -0.766  -6.797  0.00  0.00    -0.270 OA
ATOM     14  H   UNL     1      -3.719  -0.235  -3.782  0.00  0.00    +0.149 HD
BRANCH  11  15
ATOM     15  C   UNL     1      -5.505  -1.125  -4.507  0.00  0.00    +0.070 C 
ATOM     16  C   UNL     1      -6.559  -0.044  -4.753  0.00  0.00    +0.028 C 
BRANCH  15  18
ATOM     17  C   UNL     1      -4.736  -2.894  -2.918  0.00  0.00    +0.005 C 
ATOM     18  C   UNL     1      -5.709  -1.730  -3.116  0.00  0.00    +0.018 C 
ENDBRANCH  15  18
ENDBRANCH  11  15
ENDBRANCH   5  12
ENDBRANCH   1   9
BRANCH   2  19
ATOM     19  C   UNL     1       0.241   1.360 -10.871  0.00  0.00    +0.015 C 
BRANCH  19  20
ATOM     20  N   UNL     1      -0.763   1.653 -11.902  0.00  0.00    +0.385 N 
ATOM     21  H   UNL     1      -1.470   0.932 -11.897  0.00  0.00    -0.085 HD
ATOM     22  H   UNL     1      -1.192   2.546 -11.710  0.00  0.00    -0.085 HD
BRANCH  20  23
ATOM     23  C   UNL     1      -0.115   1.695 -13.220  0.00  0.00    -0.078 C 
BRANCH  23  24
ATOM     24  C   UNL     1      -1.161   1.999 -14.293  0.00  0.00    +0.011 C 
BRANCH  24  25
ATOM     25  C   UNL     1      -0.496   2.042 -15.645  0.00  0.00    -0.075 C 
ATOM     26  C   UNL     1      -0.513   0.966 -16.364  0.00  0.00    -0.028 C 
ATOM     27  C   UNL     1       0.115   0.852 -17.722  0.00  0.00    +0.027 C 
ATOM     28  C   UNL     1       0.382   2.245 -18.298  0.00  0.00    +0.004 C 
ATOM     29  C   UNL     1       1.108   3.078 -17.235  0.00  0.00    +0.005 C 
ATOM     30  C   UNL     1       0.138   3.332 -16.076  0.00  0.00    +0.030 C 
ENDBRANCH  24  25
ENDBRANCH  23  24
ENDBRANCH  20  23
ENDBRANCH  19  20
ENDBRANCH   2  19
TORSDOF 9
