REMARK  Name = ZINC11804716
REMARK  9 active torsions:
REMARK  status: ('A' for Active; 'I' for Inactive)
REMARK    1  A    between atoms: C_4  and  O_19
REMARK    2  A    between atoms: C_5  and  C_7
REMARK    3  A    between atoms: C_7  and  N_8
REMARK    4  A    between atoms: N_8  and  S_9
REMARK    5  A    between atoms: S_9  and  C_12
REMARK    6  A    between atoms: C_15  and  N_18
REMARK    7  A    between atoms: O_19  and  C_20
REMARK    8  A    between atoms: C_20  and  C_21
REMARK    9  A    between atoms: C_21  and  N_54
REMARK                            x       y       z     vdW  Elec       q    Type
REMARK                         _______ _______ _______ _____ _____    ______ ____
ROOT
ATOM      1  C   UNL     1       2.767   6.904   4.795  0.00  0.00    +0.001 A 
ATOM      2  C   UNL     1       2.054   6.464   5.896  0.00  0.00    +0.004 A 
ATOM      3  C   UNL     1       1.322   5.295   5.824  0.00  0.00    +0.046 A 
ATOM      4  C   UNL     1       1.302   4.562   4.646  0.00  0.00    +0.125 A 
ATOM      5  C   UNL     1       2.017   5.005   3.544  0.00  0.00    +0.010 A 
ATOM      6  C   UNL     1       2.752   6.172   3.622  0.00  0.00    +0.008 A 
ENDROOT
BRANCH   5   7
ATOM      7  C   UNL     1       1.998   4.210   2.263  0.00  0.00    +0.144 C 
BRANCH   7   8
ATOM      8  N   UNL     1       0.762   4.496   1.530  0.00  0.00    -0.186 NA
ATOM      9  H   UNL     1       0.023   4.936   1.978  0.00  0.00    +0.148 HD
BRANCH   8  10
ATOM     10  S   UNL     1       0.627   4.067  -0.064  0.00  0.00    +0.059 S 
ATOM     11  O   UNL     1       1.800   4.539  -0.712  0.00  0.00    -0.153 OA
ATOM     12  O   UNL     1      -0.678   4.448  -0.478  0.00  0.00    -0.153 OA
BRANCH  10  13
ATOM     13  C   UNL     1       0.685   2.308  -0.136  0.00  0.00    +0.105 A 
ATOM     14  C   UNL     1      -0.485   1.575  -0.052  0.00  0.00    +0.030 A 
ATOM     15  C   UNL     1      -0.443   0.196  -0.109  0.00  0.00    +0.024 A 
ATOM     16  C   UNL     1       0.776  -0.456  -0.251  0.00  0.00    +0.025 A 
ATOM     17  C   UNL     1       1.949   0.283  -0.336  0.00  0.00    +0.024 A 
ATOM     18  C   UNL     1       1.900   1.662  -0.278  0.00  0.00    +0.030 A 
BRANCH  16  19
ATOM     19  N   UNL     1       0.821  -1.851  -0.309  0.00  0.00    -0.358 N 
ATOM     20  H   UNL     1       0.002  -2.365  -0.249  0.00  0.00    +0.142 HD
ATOM     21  H   UNL     1       1.673  -2.304  -0.408  0.00  0.00    +0.142 HD
ENDBRANCH  16  19
ENDBRANCH  10  13
ENDBRANCH   8  10
ENDBRANCH   7   8
ENDBRANCH   5   7
BRANCH   4  22
ATOM     22  O   UNL     1       0.582   3.411   4.574  0.00  0.00    -0.493 OA
BRANCH  22  23
ATOM     23  C   UNL     1      -0.130   3.016   5.748  0.00  0.00    +0.210 C 
BRANCH  23  24
ATOM     24  C   UNL     1      -0.875   1.707   5.476  0.00  0.00    -0.037 C 
BRANCH  24  30
ATOM     25  C   UNL     1      -0.528  -0.489   4.519  0.00  0.00    -0.079 C 
ATOM     26  C   UNL     1       0.541  -1.522   4.155  0.00  0.00    -0.019 C 
ATOM     27  C   UNL     1       1.219  -2.020   5.434  0.00  0.00    -0.004 C 
ATOM     28  C   UNL     1       1.819  -0.827   6.183  0.00  0.00    -0.019 C 
ATOM     29  C   UNL     1       0.713   0.186   6.488  0.00  0.00    -0.079 C 
ATOM     30  N   UNL     1       0.118   0.644   5.215  0.00  0.00    +0.382 N 
ATOM     31  H   UNL     1       0.861   1.022   4.616  0.00  0.00    -0.082 HD
ENDBRANCH  24  30
ENDBRANCH  23  24
ENDBRANCH  22  23
ENDBRANCH   4  22
TORSDOF 9
