REMARK  Name = ZINC42953720
REMARK  14 active torsions:
REMARK  status: ('A' for Active; 'I' for Inactive)
REMARK    1  A    between atoms: C_1  and  C_2
REMARK    2  A    between atoms: C_2  and  C_3
REMARK    3  A    between atoms: C_3  and  C_5
REMARK    4  A    between atoms: C_3  and  N_23
REMARK    5  A    between atoms: C_5  and  C_7
REMARK    6  A    between atoms: C_5  and  N_14
REMARK    7  A    between atoms: N_14  and  C_15
REMARK    8  A    between atoms: N_14  and  C_19
REMARK    9  A    between atoms: C_15  and  C_16
REMARK   10  A    between atoms: C_16  and  O_17
REMARK   11  A    between atoms: O_17  and  C_18
REMARK   12  A    between atoms: C_19  and  C_20
REMARK   13  A    between atoms: C_20  and  O_21
REMARK   14  A    between atoms: O_21  and  C_22
REMARK                            x       y       z     vdW  Elec       q    Type
REMARK                         _______ _______ _______ _____ _____    ______ ____
ROOT
ATOM      1  C   UNL     1      -1.449  -2.159   0.065  0.00  0.00    -0.052 C 
ENDROOT
BRANCH   1   2
ATOM      2  C   UNL     1      -0.723  -2.543  -1.199  0.00  0.00    -0.062 A 
ATOM      3  C   UNL     1       0.611  -2.218  -1.356  0.00  0.00    +0.003 A 
ATOM      4  C   UNL     1       1.277  -2.571  -2.514  0.00  0.00    +0.015 A 
ATOM      5  C   UNL     1       0.608  -3.249  -3.517  0.00  0.00    +0.018 A 
ATOM      6  C   UNL     1      -0.727  -3.575  -3.360  0.00  0.00    +0.015 A 
ATOM      7  C   UNL     1      -1.391  -3.226  -2.198  0.00  0.00    +0.003 A 
ATOM      8 BR   UNL     1       1.519  -3.732  -5.103  0.00  0.00    -0.050 Br
ENDBRANCH   1   2
BRANCH   1   9
ATOM      9  N   UNL     1      -0.589  -2.429   1.225  0.00  0.00    +0.386 N 
ATOM     10  H   UNL     1       0.220  -1.827   1.192  0.00  0.00    -0.081 HD
BRANCH   9  11
ATOM     11  C   UNL     1      -1.340  -2.174   2.461  0.00  0.00    -0.050 C 
BRANCH  11  12
ATOM     12  C   UNL     1      -0.421  -2.376   3.667  0.00  0.00    +0.141 C 
BRANCH  12  13
ATOM     13  O   UNL     1       0.616  -1.393   3.645  0.00  0.00    -0.385 OA
ATOM     14  C   UNL     1       1.535  -1.493   4.735  0.00  0.00    +0.193 C 
ENDBRANCH  12  13
ENDBRANCH  11  12
ENDBRANCH   9  11
BRANCH   9  15
ATOM     15  C   UNL     1      -0.156  -3.833   1.196  0.00  0.00    -0.050 C 
BRANCH  15  16
ATOM     16  C   UNL     1      -1.367  -4.745   1.401  0.00  0.00    +0.141 C 
BRANCH  16  17
ATOM     17  O   UNL     1      -2.231  -4.650   0.267  0.00  0.00    -0.385 OA
ATOM     18  C   UNL     1      -3.452  -5.380   0.405  0.00  0.00    +0.193 C 
ENDBRANCH  16  17
ENDBRANCH  15  16
ENDBRANCH   9  15
ENDBRANCH   1   9
BRANCH   1  19
ATOM     19  C   UNL     1      -1.793  -0.669   0.022  0.00  0.00    -0.085 C 
BRANCH  19  20
ATOM     20  N   UNL     1      -2.553  -0.377  -1.202  0.00  0.00    +0.379 N 
ATOM     21  H   UNL     1      -1.996  -0.617  -2.008  0.00  0.00    -0.090 HD
ATOM     22  H   UNL     1      -3.403  -0.919  -1.207  0.00  0.00    -0.090 HD
ATOM     23  H   UNL     1      -2.780   0.606  -1.230  0.00  0.00    -0.090 HD
ENDBRANCH  19  20
BRANCH  19  25
ATOM     24  C   UNL     1      -0.847   1.642   0.113  0.00  0.00    +0.002 C 
ATOM     25  C   UNL     1      -0.503   0.153   0.030  0.00  0.00    -0.021 C 
ENDBRANCH  19  25
ENDBRANCH   1  19
TORSDOF 11
