REMARK  Name = ZINC40720726
REMARK  13 active torsions:
REMARK  status: ('A' for Active; 'I' for Inactive)
REMARK    1  A    between atoms: C_1  and  C_2
REMARK    2  A    between atoms: C_2  and  C_3
REMARK    3  A    between atoms: C_2  and  O_4
REMARK    4  A    between atoms: O_4  and  C_5
REMARK    5  A    between atoms: C_6  and  C_13
REMARK    6  A    between atoms: C_13  and  N_14
REMARK    7  A    between atoms: N_14  and  C_15
REMARK    8  A    between atoms: C_15  and  C_16
REMARK    9  A    between atoms: C_16  and  C_17
REMARK   10  A    between atoms: C_17  and  N_18
REMARK   11  A    between atoms: N_18  and  C_19
REMARK   12  A    between atoms: C_19  and  C_20
REMARK   13  A    between atoms: C_20  and  O_21
REMARK                            x       y       z     vdW  Elec       q    Type
REMARK                         _______ _______ _______ _____ _____    ______ ____
ROOT
ATOM      1  C   UNL     1      -1.865  -0.246  -2.752  0.00  0.00    -0.043 C 
ENDROOT
BRANCH   1   3
ATOM      2  C   UNL     1      -1.542  -1.646  -0.697  0.00  0.00    +0.136 A 
ATOM      3  C   UNL     1      -1.845  -1.579  -2.049  0.00  0.00    -0.021 A 
ATOM      4  C   UNL     1      -2.130  -2.734  -2.751  0.00  0.00    +0.020 A 
ATOM      5  C   UNL     1      -2.113  -3.959  -2.106  0.00  0.00    +0.019 A 
ATOM      6  C   UNL     1      -1.811  -4.029  -0.758  0.00  0.00    +0.034 A 
ATOM      7  C   UNL     1      -1.520  -2.876  -0.053  0.00  0.00    +0.061 A 
ATOM      8 BR   UNL     1      -1.100  -2.973   1.788  0.00  0.00    -0.046 Br
ATOM      9 BR   UNL     1      -2.503  -5.538  -3.070  0.00  0.00    -0.050 Br
BRANCH   2  10
ATOM     10  O   UNL     1      -1.261  -0.511  -0.005  0.00  0.00    -0.488 OA
BRANCH  10  12
ATOM     11  C   UNL     1       0.128   1.466  -0.066  0.00  0.00    +0.051 C 
ATOM     12  C   UNL     1       0.096  -0.063  -0.016  0.00  0.00    +0.167 C 
ATOM     13  C   UNL     1       0.803  -0.546   1.252  0.00  0.00    +0.051 C 
ENDBRANCH  10  12
ENDBRANCH   2  10
ENDBRANCH   1   3
BRANCH   1  14
ATOM     14  N   UNL     1      -0.497   0.121  -3.144  0.00  0.00    +0.382 N 
ATOM     15  H   UNL     1       0.062   0.265  -2.317  0.00  0.00    -0.085 HD
ATOM     16  H   UNL     1      -0.096  -0.621  -3.697  0.00  0.00    -0.085 HD
BRANCH  14  17
ATOM     17  C   UNL     1      -0.530   1.359  -3.934  0.00  0.00    -0.084 C 
BRANCH  17  18
ATOM     18  C   UNL     1       0.894   1.740  -4.343  0.00  0.00    -0.038 C 
BRANCH  18  19
ATOM     19  C   UNL     1       0.860   3.030  -5.166  0.00  0.00    -0.084 C 
BRANCH  19  20
ATOM     20  N   UNL     1       2.227   3.396  -5.558  0.00  0.00    +0.380 N 
ATOM     21  H   UNL     1       2.787   3.540  -4.731  0.00  0.00    -0.086 HD
ATOM     22  H   UNL     1       2.629   2.654  -6.112  0.00  0.00    -0.086 HD
BRANCH  20  23
ATOM     23  C   UNL     1       2.195   4.634  -6.349  0.00  0.00    -0.054 C 
BRANCH  23  24
ATOM     24  C   UNL     1       3.619   5.016  -6.758  0.00  0.00    +0.137 C 
BRANCH  24  25
ATOM     25  O   UNL     1       4.146   4.020  -7.636  0.00  0.00    -0.397 OA
ATOM     26  H   UNL     1       5.048   4.197  -7.936  0.00  0.00    +0.209 HD
ENDBRANCH  24  25
ENDBRANCH  23  24
ENDBRANCH  20  23
ENDBRANCH  19  20
ENDBRANCH  18  19
ENDBRANCH  17  18
ENDBRANCH  14  17
ENDBRANCH   1  14
TORSDOF 11
