REMARK  Name = ZINC52854312
REMARK  6 active torsions:
REMARK  status: ('A' for Active; 'I' for Inactive)
REMARK    1  A    between atoms: C_1  and  C_2
REMARK    2  A    between atoms: C_2  and  C_3
REMARK    3  A    between atoms: C_2  and  C_4
REMARK    4  A    between atoms: C_8  and  N_21
REMARK    5  A    between atoms: N_12  and  C_13
REMARK    6  A    between atoms: C_13  and  C_20
REMARK                            x       y       z     vdW  Elec       q    Type
REMARK                         _______ _______ _______ _____ _____    ______ ____
ROOT
ATOM      1  C   UNL     1      -1.478  -0.814   0.222  0.00  0.00    +0.091 A 
ATOM      2  N   UNL     1      -2.533  -0.230   0.711  0.00  0.00    -0.343 N 
ATOM      3  C   UNL     1      -3.651  -0.856   0.263  0.00  0.00    +0.066 A 
ATOM      4  C   UNL     1      -5.018  -0.648   0.470  0.00  0.00    +0.050 A 
ATOM      5  C   UNL     1      -5.937  -1.478  -0.144  0.00  0.00    +0.027 A 
ATOM      6  C   UNL     1      -5.508  -2.518  -0.967  0.00  0.00    +0.025 A 
ATOM      7  C   UNL     1      -4.164  -2.731  -1.178  0.00  0.00    +0.030 A 
ATOM      8  C   UNL     1      -3.228  -1.906  -0.569  0.00  0.00    +0.067 A 
ATOM      9  N   UNL     1      -1.846  -1.850  -0.579  0.00  0.00    -0.321 N 
ATOM     10  H   UNL     1      -2.522   0.536   1.307  0.00  0.00    +0.167 HD
ENDROOT
BRANCH   9  11
ATOM     11  C   UNL     1      -0.946  -2.743  -1.312  0.00  0.00    +0.065 C 
ATOM     12  C   UNL     1      -1.759  -3.916  -1.859  0.00  0.00    +0.052 C 
ATOM     13  C   UNL     1      -2.297  -3.584  -3.279  0.00  0.00    +0.168 C 
ATOM     14  S   UNL     1      -0.826  -2.706  -3.967  0.00  0.00    -0.029 S 
ATOM     15  O   UNL     1      -1.263  -1.688  -4.857  0.00  0.00    -0.174 OA
ATOM     16  O   UNL     1       0.127  -3.663  -4.409  0.00  0.00    -0.174 OA
ATOM     17  C   UNL     1      -0.229  -1.930  -2.408  0.00  0.00    +0.194 C 
ATOM     18  C   UNL     1       0.102  -3.288  -0.340  0.00  0.00    +0.036 C 
ENDBRANCH   9  11
BRANCH   1  20
ATOM     19  C   UNL     1       0.021   1.127   0.591  0.00  0.00    +0.015 C 
ATOM     20  C   UNL     1      -0.056  -0.399   0.496  0.00  0.00    +0.047 C 
ATOM     21  C   UNL     1       0.410  -1.016   1.816  0.00  0.00    +0.015 C 
ENDBRANCH   1  20
BRANCH   5  22
ATOM     22  N   UNL     1      -7.306  -1.273   0.062  0.00  0.00    -0.358 N 
ATOM     23  H   UNL     1      -7.607  -0.550   0.634  0.00  0.00    +0.142 HD
ATOM     24  H   UNL     1      -7.953  -1.853  -0.368  0.00  0.00    +0.142 HD
ENDBRANCH   5  22
TORSDOF 3
