REMARK  Name = ZINC21077419
REMARK  7 active torsions:
REMARK  status: ('A' for Active; 'I' for Inactive)
REMARK    1  A    between atoms: C_4  and  N_7
REMARK    2  A    between atoms: N_7  and  C_8
REMARK    3  A    between atoms: C_14  and  C_16
REMARK    4  A    between atoms: C_16  and  S_17
REMARK    5  A    between atoms: S_17  and  C_18
REMARK    6  A    between atoms: N_23  and  N_24
REMARK    7  A    between atoms: C_25  and  C_26
REMARK                            x       y       z     vdW  Elec       q    Type
REMARK                         _______ _______ _______ _____ _____    ______ ____
ROOT
ATOM      1  S   UNL     1      -2.287   2.412   0.209  0.00  0.00    -0.075 S 
ENDROOT
BRANCH   1   2
ATOM      2  C   UNL     1      -1.112   1.121  -0.028  0.00  0.00    +0.211 A 
ATOM      3  N   UNL     1      -1.371  -0.220   0.023  0.00  0.00    -0.186 NA
ATOM      4  C   UNL     1      -0.201  -0.885  -0.217  0.00  0.00    +0.232 A 
ATOM      5  N   UNL     1       0.740   0.006  -0.409  0.00  0.00    -0.245 N 
ATOM      6  N   UNL     1       0.164   1.277  -0.289  0.00  0.00    -0.144 NA
ATOM      7  N   UNL     1      -0.040  -2.263  -0.253  0.00  0.00    -0.205 N 
ATOM      8  H   UNL     1      -0.902  -2.923  -0.076  0.00  0.00    +0.177 HD
ATOM      9  H   UNL     1       1.770  -0.318  -0.621  0.00  0.00    +0.192 HD
BRANCH   7  10
ATOM     10  N   UNL     1       1.222  -2.814  -0.512  0.00  0.00    -0.187 NA
ATOM     11  C   UNL     1       1.374  -4.103  -0.545  0.00  0.00    +0.141 C 
BRANCH  11  12
ATOM     12  C   UNL     1       2.701  -4.682  -0.818  0.00  0.00    +0.030 A 
ATOM     13  C   UNL     1       2.870  -6.069  -0.849  0.00  0.00    +0.012 A 
ATOM     14  C   UNL     1       4.114  -6.604  -1.110  0.00  0.00    +0.001 A 
ATOM     15  C   UNL     1       5.197  -5.772  -1.332  0.00  0.00    +0.003 A 
ATOM     16  C   UNL     1       5.042  -4.398  -1.298  0.00  0.00    +0.039 A 
ATOM     17  C   UNL     1       3.801  -3.846  -1.043  0.00  0.00    +0.132 A 
ATOM     18  F   UNL     1       3.650  -2.504  -1.010  0.00  0.00    -0.205 F 
ENDBRANCH  11  12
ENDBRANCH   7  10
ENDBRANCH   1   2
BRANCH   1  19
ATOM     19  C   UNL     1      -1.315   3.931   0.015  0.00  0.00    +0.174 C 
BRANCH  19  21
ATOM     20  N   UNL     1      -1.694   6.372   0.147  0.00  0.00    -0.240 N 
ATOM     21  C   UNL     1      -2.212   5.128   0.195  0.00  0.00    +0.234 C 
ATOM     22  O   UNL     1      -3.400   4.973   0.384  0.00  0.00    -0.274 OA
BRANCH  20  26
ATOM     23  C   UNL     1      -4.108   9.668   0.970  0.00  0.00    +0.000 A 
ATOM     24  C   UNL     1      -3.084   9.329   1.835  0.00  0.00    +0.002 A 
ATOM     25  C   UNL     1      -2.282   8.237   1.566  0.00  0.00    +0.024 A 
ATOM     26  C   UNL     1      -2.505   7.479   0.423  0.00  0.00    +0.041 A 
ATOM     27  C   UNL     1      -3.531   7.825  -0.447  0.00  0.00    +0.024 A 
ATOM     28  C   UNL     1      -4.332   8.915  -0.168  0.00  0.00    +0.002 A 
ENDBRANCH  20  26
BRANCH  20  29
ATOM     29  C   UNL     1      -0.345   6.556  -0.180  0.00  0.00    +0.041 A 
ATOM     30  C   UNL     1       0.646   6.167   0.711  0.00  0.00    +0.024 A 
ATOM     31  C   UNL     1       1.976   6.346   0.383  0.00  0.00    +0.002 A 
ATOM     32  C   UNL     1       2.320   6.921  -0.827  0.00  0.00    +0.000 A 
ATOM     33  C   UNL     1       1.335   7.315  -1.714  0.00  0.00    +0.002 A 
ATOM     34  C   UNL     1       0.004   7.134  -1.394  0.00  0.00    +0.024 A 
ENDBRANCH  20  29
ENDBRANCH  19  21
ENDBRANCH   1  19
TORSDOF 7
