REMARK  Name = ZINC38547678
REMARK  12 active torsions:
REMARK  status: ('A' for Active; 'I' for Inactive)
REMARK    1  A    between atoms: C_1  and  C_2
REMARK    2  A    between atoms: N_8  and  C_9
REMARK    3  A    between atoms: C_9  and  C_11
REMARK    4  A    between atoms: C_9  and  C_21
REMARK    5  A    between atoms: C_14  and  O_19
REMARK    6  A    between atoms: C_16  and  O_17
REMARK    7  A    between atoms: O_17  and  C_18
REMARK    8  A    between atoms: O_19  and  C_20
REMARK    9  A    between atoms: C_22  and  C_35
REMARK   10  A    between atoms: C_23  and  C_34
REMARK   11  A    between atoms: C_25  and  N_26
REMARK   12  A    between atoms: C_27  and  C_29
REMARK                            x       y       z     vdW  Elec       q    Type
REMARK                         _______ _______ _______ _____ _____    ______ ____
ROOT
ATOM      1  C   UNL     1      -0.109  -1.995   3.588  0.00  0.00    +0.138 C 
ENDROOT
BRANCH   1   9
ATOM      2  C   UNL     1      -2.952  -6.226   4.137  0.00  0.00    +0.044 C 
ATOM      3  C   UNL     1      -2.117  -5.638   3.029  0.00  0.00    -0.046 A 
ATOM      4  C   UNL     1      -1.968  -6.307   1.821  0.00  0.00    +0.021 A 
ATOM      5  C   UNL     1      -1.197  -5.741   0.826  0.00  0.00    +0.084 A 
ATOM      6  N   UNL     1      -0.602  -4.577   1.009  0.00  0.00    -0.350 N 
ATOM      7  C   UNL     1      -0.720  -3.909   2.146  0.00  0.00    +0.097 A 
ATOM      8  C   UNL     1      -1.487  -4.418   3.190  0.00  0.00    +0.045 A 
ATOM      9  N   UNL     1      -0.076  -2.686   2.297  0.00  0.00    -0.319 N 
ATOM     10  H   UNL     1       0.395  -2.291   1.546  0.00  0.00    +0.148 HD
ATOM     11  H   UNL     1      -0.066  -4.202   0.293  0.00  0.00    +0.166 HD
ENDBRANCH   1   9
BRANCH   1  12
ATOM     12  C   UNL     1       1.044  -1.029   3.670  0.00  0.00    +0.009 A 
ATOM     13  C   UNL     1       1.868  -1.008   4.780  0.00  0.00    -0.033 A 
ATOM     14  C   UNL     1       2.897  -0.127   4.821  0.00  0.00    -0.008 A 
ATOM     15  S   UNL     1       2.726   0.718   3.258  0.00  0.00    -0.078 S 
ATOM     16  C   UNL     1       1.298  -0.163   2.649  0.00  0.00    +0.078 A 
ATOM     17  C   UNL     1       3.920   0.085   5.907  0.00  0.00    +0.052 C 
ATOM     18  C   UNL     1       1.626  -1.953   5.929  0.00  0.00    +0.045 C 
BRANCH  16  19
ATOM     19  N   UNL     1       0.616  -0.004   1.440  0.00  0.00    -0.273 N 
ATOM     20  C   UNL     1       1.085   0.850   0.509  0.00  0.00    +0.284 C 
ATOM     21  O   UNL     1       2.151   1.412   0.681  0.00  0.00    -0.266 OA
ATOM     22  H   UNL     1      -0.196  -0.507   1.272  0.00  0.00    +0.156 HD
BRANCH  20  23
ATOM     23  C   UNL     1       0.312   1.101  -0.711  0.00  0.00    +0.189 A 
ATOM     24  C   UNL     1       0.713   1.861  -1.773  0.00  0.00    +0.054 A 
ATOM     25  C   UNL     1      -0.331   1.826  -2.711  0.00  0.00    +0.042 A 
ATOM     26  C   UNL     1      -1.311   1.057  -2.187  0.00  0.00    +0.196 A 
ATOM     27  O   UNL     1      -0.918   0.618  -0.984  0.00  0.00    -0.458 OA
ENDBRANCH  20  23
ENDBRANCH  16  19
ENDBRANCH   1  12
BRANCH   1  28
ATOM     28  C   UNL     1      -1.407  -1.241   3.721  0.00  0.00    +0.019 A 
ATOM     29  C   UNL     1      -2.147  -0.936   2.594  0.00  0.00    +0.013 A 
ATOM     30  C   UNL     1      -3.337  -0.245   2.713  0.00  0.00    +0.046 A 
ATOM     31  C   UNL     1      -3.792   0.146   3.965  0.00  0.00    +0.124 A 
ATOM     32  C   UNL     1      -3.052  -0.158   5.096  0.00  0.00    +0.091 A 
ATOM     33  C   UNL     1      -1.861  -0.857   4.975  0.00  0.00    +0.129 A 
BRANCH  33  34
ATOM     34  O   UNL     1      -1.135  -1.162   6.083  0.00  0.00    -0.495 OA
ATOM     35  C   UNL     1      -1.662  -0.736   7.341  0.00  0.00    +0.277 C 
ENDBRANCH  33  34
BRANCH  31  36
ATOM     36  O   UNL     1      -4.963   0.826   4.080  0.00  0.00    -0.495 OA
ATOM     37  C   UNL     1      -5.674   1.106   2.873  0.00  0.00    +0.277 C 
ENDBRANCH  31  36
ENDBRANCH   1  28
TORSDOF 7
