REMARK  Name = ZINC50389809
REMARK  7 active torsions:
REMARK  status: ('A' for Active; 'I' for Inactive)
REMARK    1  A    between atoms: C_1  and  C_2
REMARK    2  A    between atoms: C_2  and  C_4
REMARK    3  A    between atoms: C_2  and  N_9
REMARK    4  A    between atoms: C_4  and  C_5
REMARK    5  A    between atoms: N_6  and  O_7
REMARK    6  A    between atoms: N_9  and  S_10
REMARK    7  A    between atoms: S_10  and  C_13
REMARK                            x       y       z     vdW  Elec       q    Type
REMARK                         _______ _______ _______ _____ _____    ______ ____
ROOT
ATOM      1  N   UNL     1       0.086  -0.040  -1.261  0.00  0.00    -0.187 NA
ATOM      2  H   UNL     1      -0.280   0.224  -2.120  0.00  0.00    +0.148 HD
ENDROOT
BRANCH   1   3
ATOM      3  S   UNL     1       1.677  -0.482  -1.140  0.00  0.00    +0.061 S 
ATOM      4  O   UNL     1       2.215  -0.429  -2.454  0.00  0.00    -0.153 OA
ATOM      5  O   UNL     1       2.225   0.264  -0.062  0.00  0.00    -0.153 OA
BRANCH   3   6
ATOM      6  C   UNL     1       1.712  -2.174  -0.650  0.00  0.00    +0.142 A 
ATOM      7  C   UNL     1       1.704  -2.506   0.693  0.00  0.00    +0.070 A 
ATOM      8  C   UNL     1       1.730  -3.834   1.078  0.00  0.00    +0.037 A 
ATOM      9  C   UNL     1       1.765  -4.831   0.120  0.00  0.00    +0.021 A 
ATOM     10  C   UNL     1       1.773  -4.500  -1.223  0.00  0.00    +0.037 A 
ATOM     11  C   UNL     1       1.741  -3.171  -1.608  0.00  0.00    +0.070 A 
ATOM     12 CL   UNL     1       1.743  -2.756  -3.294  0.00  0.00    -0.081 Cl
ATOM     13 BR   UNL     1       1.802  -6.647   0.645  0.00  0.00    -0.050 Br
ATOM     14 CL   UNL     1       1.661  -1.255   1.896  0.00  0.00    -0.081 Cl
ENDBRANCH   3   6
ENDBRANCH   1   3
BRANCH   1  16
ATOM     15  C   UNL     1      -0.707   1.320   0.611  0.00  0.00    +0.026 C 
ATOM     16  C   UNL     1      -0.769  -0.048  -0.072  0.00  0.00    +0.081 C 
BRANCH  16  17
ATOM     17  C   UNL     1      -2.213  -0.347  -0.483  0.00  0.00    +0.094 C 
BRANCH  17  18
ATOM     18  C   UNL     1      -2.301  -1.753  -1.017  0.00  0.00    +0.133 C 
ATOM     19  N   UNL     1      -1.272  -2.531  -0.963  0.00  0.00    -0.077 NA
ATOM     20  N   UNL     1      -3.481  -2.209  -1.563  0.00  0.00    -0.344 N 
ATOM     21  H   UNL     1      -4.254  -1.625  -1.604  0.00  0.00    +0.144 HD
ATOM     22  H   UNL     1      -3.538  -3.114  -1.907  0.00  0.00    +0.144 HD
BRANCH  19  23
ATOM     23  O   UNL     1      -1.387  -3.887  -1.355  0.00  0.00    -0.408 OA
ATOM     24  H   UNL     1      -0.585  -4.407  -1.211  0.00  0.00    +0.328 HD
ENDBRANCH  19  23
ENDBRANCH  17  18
ENDBRANCH  16  17
ENDBRANCH   1  16
TORSDOF 6
