REMARK  Name = ZINC09963356
REMARK  10 active torsions:
REMARK  status: ('A' for Active; 'I' for Inactive)
REMARK    1  A    between atoms: C_1  and  C_2
REMARK    2  A    between atoms: C_7  and  C_37
REMARK    3  A    between atoms: C_9  and  C_10
REMARK    4  A    between atoms: C_9  and  N_76
REMARK    5  A    between atoms: C_10  and  C_11
REMARK    6  A    between atoms: C_11  and  N_12
REMARK    7  A    between atoms: C_13  and  C_15
REMARK    8  A    between atoms: C_15  and  N_16
REMARK    9  A    between atoms: C_19  and  S_27
REMARK   10  A    between atoms: S_27  and  N_30
REMARK                            x       y       z     vdW  Elec       q    Type
REMARK                         _______ _______ _______ _____ _____    ______ ____
ROOT
ATOM      1  N   UNL     1      -0.291  -4.304   2.339  0.00  0.00    -0.256 N 
ATOM      2  C   UNL     1      -0.462  -3.278   1.399  0.00  0.00    +0.081 A 
ATOM      3  C   UNL     1      -1.643  -2.556   1.345  0.00  0.00    +0.055 A 
ATOM      4  C   UNL     1      -1.792  -1.549   0.410  0.00  0.00    +0.107 A 
ATOM      5  C   UNL     1      -0.767  -1.264  -0.474  0.00  0.00    +0.032 A 
ATOM      6  C   UNL     1       0.417  -1.977  -0.421  0.00  0.00    +0.049 A 
ATOM      7  C   UNL     1       0.573  -2.987   0.512  0.00  0.00    +0.143 A 
ATOM      8  O   UNL     1       1.728  -3.701   0.574  0.00  0.00    -0.481 OA
ATOM      9  C   UNL     1       2.132  -4.158   1.867  0.00  0.00    +0.325 C 
ATOM     10  C   UNL     1       0.953  -4.771   2.580  0.00  0.00    +0.258 C 
ATOM     11  O   UNL     1       1.121  -5.678   3.367  0.00  0.00    -0.271 OA
ENDROOT
BRANCH   4  12
ATOM     12  S   UNL     1      -3.294  -0.630   0.339  0.00  0.00    +0.061 S 
ATOM     13  O   UNL     1      -4.302  -1.455   0.907  0.00  0.00    -0.153 OA
ATOM     14  O   UNL     1      -3.389  -0.109  -0.980  0.00  0.00    -0.153 OA
BRANCH  12  15
ATOM     15  N   UNL     1      -3.121   0.670   1.350  0.00  0.00    -0.177 NA
ATOM     16  C   UNL     1      -2.592   1.909   0.860  0.00  0.00    +0.109 C 
ATOM     17  C   UNL     1      -1.051   2.061   0.913  0.00  0.00    +0.017 C 
ATOM     18  C   UNL     1      -0.506   1.493   2.246  0.00  0.00    +0.001 C 
ATOM     19  C   UNL     1      -1.426   1.828   3.384  0.00  0.00    +0.001 C 
ATOM     20  C   UNL     1      -2.286   0.586   3.589  0.00  0.00    +0.017 C 
ATOM     21  C   UNL     1      -3.514   0.569   2.796  0.00  0.00    +0.109 C 
ENDBRANCH  12  15
ENDBRANCH   4  12
BRANCH   1  22
ATOM     22  C   UNL     1      -1.445  -4.861   3.050  0.00  0.00    +0.209 C 
BRANCH  22  24
ATOM     23  N   UNL     1      -3.078  -6.692   2.732  0.00  0.00    -0.314 N 
ATOM     24  C   UNL     1      -2.006  -6.020   2.267  0.00  0.00    +0.231 C 
ATOM     25  O   UNL     1      -1.492  -6.348   1.219  0.00  0.00    -0.274 OA
ATOM     26  H   UNL     1      -3.488  -6.429   3.571  0.00  0.00    +0.149 HD
BRANCH  23  27
ATOM     27  C   UNL     1      -3.623  -7.819   1.971  0.00  0.00    +0.102 C 
BRANCH  27  28
ATOM     28  C   UNL     1      -4.827  -8.400   2.713  0.00  0.00    +0.000 C 
BRANCH  28  29
ATOM     29  C   UNL     1      -5.397  -9.577   1.919  0.00  0.00    -0.077 C 
BRANCH  29  37
ATOM     30  C   UNL     1      -5.627 -12.382   1.947  0.00  0.00    -0.013 C 
ATOM     31  C   UNL     1      -6.865 -11.494   2.091  0.00  0.00    -0.071 C 
ATOM     32  C   UNL     1      -7.888 -12.188   2.993  0.00  0.00    -0.016 C 
ATOM     33  C   UNL     1      -9.117 -11.289   3.150  0.00  0.00    -0.003 C 
ATOM     34  C   UNL     1      -8.680  -9.938   3.725  0.00  0.00    -0.016 C 
ATOM     35  C   UNL     1      -7.634  -9.309   2.802  0.00  0.00    -0.071 C 
ATOM     36  C   UNL     1      -8.246  -9.083   1.418  0.00  0.00    -0.013 C 
ATOM     37  N   UNL     1      -6.468 -10.213   2.713  0.00  0.00    +0.383 N 
ATOM     38  H   UNL     1      -6.116 -10.398   3.660  0.00  0.00    -0.081 HD
ENDBRANCH  29  37
ENDBRANCH  28  29
ENDBRANCH  27  28
ENDBRANCH  23  27
ENDBRANCH  22  24
ENDBRANCH   1  22
TORSDOF 8
