REMARK  Name = ZINC20588973
REMARK  10 active torsions:
REMARK  status: ('A' for Active; 'I' for Inactive)
REMARK    1  A    between atoms: C_1  and  C_2
REMARK    2  A    between atoms: C_2  and  O_3
REMARK    3  A    between atoms: O_3  and  C_4
REMARK    4  A    between atoms: C_7  and  C_10
REMARK    5  A    between atoms: N_12  and  C_13
REMARK    6  A    between atoms: C_13  and  C_15
REMARK    7  A    between atoms: C_13  and  C_19
REMARK    8  A    between atoms: C_15  and  C_16
REMARK    9  A    between atoms: C_16  and  S_17
REMARK   10  A    between atoms: S_17  and  C_18
REMARK                            x       y       z     vdW  Elec       q    Type
REMARK                         _______ _______ _______ _____ _____    ______ ____
ROOT
ATOM      1  C   UNL     1       3.017  -8.179  -4.028  0.00  0.00    +0.236 C 
ATOM      2  O   UNL     1       3.481  -7.244  -4.645  0.00  0.00    -0.274 OA
ATOM      3  N   UNL     1       3.546  -9.410  -4.173  0.00  0.00    -0.300 N 
ATOM      4  C   UNL     1       2.923 -10.573  -3.526  0.00  0.00    +0.110 C 
ATOM      5  C   UNL     1       3.983 -11.299  -2.691  0.00  0.00    +0.047 C 
ATOM      6  C   UNL     1       5.181 -11.638  -3.579  0.00  0.00    +0.064 C 
ATOM      7  C   UNL     1       5.796 -10.352  -4.131  0.00  0.00    +0.047 C 
ATOM      8  C   UNL     1       4.753  -9.616  -4.985  0.00  0.00    +0.110 C 
ATOM      9  C   UNL     1       6.210 -12.390  -2.775  0.00  0.00    +0.057 A 
ATOM     10  C   UNL     1       6.390 -13.728  -2.868  0.00  0.00    +0.039 A 
ATOM     11  N   UNL     1       7.392 -14.058  -2.012  0.00  0.00    -0.349 N 
ATOM     12  H   UNL     1       7.749 -14.947  -1.857  0.00  0.00    +0.166 HD
ATOM     13  C   UNL     1       7.797 -12.912  -1.416  0.00  0.00    +0.171 A 
ATOM     14  N   UNL     1       7.082 -11.920  -1.881  0.00  0.00    -0.348 N 
ATOM     15  C   UNL     1       5.581 -14.613  -3.780  0.00  0.00    +0.070 C 
ATOM     16  C   UNL     1       4.340 -13.826  -4.222  0.00  0.00    +0.088 C 
ATOM     17  N   UNL     1       4.743 -12.493  -4.693  0.00  0.00    -0.305 NA
ATOM     18  H   UNL     1       3.999 -12.054  -5.215  0.00  0.00    +0.123 HD
ATOM     19  H   UNL     1       7.171 -10.990  -1.618  0.00  0.00    +0.166 HD
ENDROOT
BRANCH   1  20
ATOM     20  C   UNL     1       1.848  -7.965  -3.101  0.00  0.00    +0.160 C 
BRANCH  20  23
ATOM     21  C   UNL     1       1.217  -6.222  -1.519  0.00  0.00    +0.245 C 
ATOM     22  O   UNL     1       0.718  -7.080  -0.818  0.00  0.00    -0.270 OA
ATOM     23  N   UNL     1       1.808  -6.562  -2.682  0.00  0.00    -0.300 N 
ATOM     24  H   UNL     1       2.207  -5.877  -3.241  0.00  0.00    +0.150 HD
BRANCH  21  28
ATOM     25  C   UNL     1       1.102  -2.155  -0.304  0.00  0.00    +0.121 A 
ATOM     26  C   UNL     1       0.529  -3.134   0.498  0.00  0.00    +0.046 A 
ATOM     27  C   UNL     1       0.565  -4.454   0.108  0.00  0.00    +0.016 A 
ATOM     28  C   UNL     1       1.177  -4.808  -1.097  0.00  0.00    +0.037 A 
ATOM     29  C   UNL     1       1.751  -3.821  -1.902  0.00  0.00    +0.016 A 
ATOM     30  C   UNL     1       1.707  -2.502  -1.507  0.00  0.00    +0.046 A 
BRANCH  25  31
ATOM     31  O   UNL     1       1.065  -0.855   0.084  0.00  0.00    -0.492 OA
BRANCH  31  33
ATOM     32  C   UNL     1       0.484   0.938   1.597  0.00  0.00    +0.048 C 
ATOM     33  C   UNL     1       0.428  -0.568   1.330  0.00  0.00    +0.225 C 
ENDBRANCH  31  33
ENDBRANCH  25  31
ENDBRANCH  21  28
ENDBRANCH  20  23
BRANCH  20  34
ATOM     34  C   UNL     1       0.549  -8.318  -3.827  0.00  0.00    +0.042 C 
BRANCH  34  35
ATOM     35  C   UNL     1      -0.622  -8.237  -2.846  0.00  0.00    +0.071 C 
BRANCH  35  36
ATOM     36  S   UNL     1      -2.163  -8.655  -3.708  0.00  0.00    -0.164 S 
ATOM     37  C   UNL     1      -3.436  -8.514  -2.423  0.00  0.00    +0.084 C 
ENDBRANCH  35  36
ENDBRANCH  34  35
ENDBRANCH  20  34
ENDBRANCH   1  20
TORSDOF 8
