REMARK  Name = ZINC62257662
REMARK  6 active torsions:
REMARK  status: ('A' for Active; 'I' for Inactive)
REMARK    1  A    between atoms: C_3  and  C_6
REMARK    2  A    between atoms: C_8  and  C_11
REMARK    3  A    between atoms: C_11  and  N_12
REMARK    4  A    between atoms: N_12  and  C_13
REMARK    5  A    between atoms: N_17  and  C_19
REMARK    6  A    between atoms: C_19  and  C_20
REMARK                            x       y       z     vdW  Elec       q    Type
REMARK                         _______ _______ _______ _____ _____    ______ ____
ROOT
ATOM      1  N   UNL     1       6.802  -1.956   1.293  0.00  0.00    -0.310 NA
ATOM      2  H   UNL     1       7.169  -1.222   1.880  0.00  0.00    +0.122 HD
ENDROOT
BRANCH   1   3
ATOM      3  C   UNL     1       7.681  -3.134   1.312  0.00  0.00    +0.037 C 
ATOM      4  C   UNL     1       9.143  -2.680   1.322  0.00  0.00    +0.015 C 
ATOM      5  C   UNL     1      10.048  -3.912   1.421  0.00  0.00    -0.017 C 
ATOM      6  C   UNL     1       9.680  -4.710   2.673  0.00  0.00    -0.078 C 
ATOM      7  N   UNL     1       8.278  -5.137   2.591  0.00  0.00    +0.386 N 
ATOM      8  C   UNL     1       7.400  -3.961   2.568  0.00  0.00    -0.059 C 
ATOM      9  H   UNL     1       8.140  -5.674   1.748  0.00  0.00    -0.081 HD
BRANCH   7  10
ATOM     10  C   UNL     1       7.951  -5.968   3.757  0.00  0.00    +0.018 C 
BRANCH  10  11
ATOM     11  C   UNL     1       8.759  -7.239   3.710  0.00  0.00    +0.194 C 
ATOM     12  O   UNL     1       9.531  -7.434   2.795  0.00  0.00    -0.278 OA
ATOM     13  N   UNL     1       8.624  -8.160   4.685  0.00  0.00    -0.331 N 
ATOM     14  H   UNL     1       8.007  -8.004   5.417  0.00  0.00    +0.145 HD
ATOM     15  H   UNL     1       9.144  -8.978   4.655  0.00  0.00    +0.145 HD
ENDBRANCH  10  11
ENDBRANCH   7  10
ENDBRANCH   1   3
BRANCH   1  16
ATOM     16  C   UNL     1       6.592  -1.478  -0.080  0.00  0.00    +0.137 C 
BRANCH  16  19
ATOM     17  C   UNL     1       3.567   0.618  -0.029  0.00  0.00    +0.144 A 
ATOM     18  N   UNL     1       4.385  -0.428  -0.048  0.00  0.00    -0.240 NA
ATOM     19  C   UNL     1       5.689  -0.272  -0.059  0.00  0.00    +0.063 A 
ATOM     20  C   UNL     1       6.222   0.978  -0.051  0.00  0.00    +0.072 A 
ATOM     21  S   UNL     1       4.735   1.972  -0.034  0.00  0.00    -0.072 S 
BRANCH  17  24
ATOM     22  C   UNL     1      -0.016   1.344   0.009  0.00  0.00    +0.042 A 
ATOM     23  C   UNL     1       1.324   1.776  -0.001  0.00  0.00    +0.052 A 
ATOM     24  C   UNL     1       2.097   0.654  -0.015  0.00  0.00    +0.160 A 
ATOM     25  O   UNL     1       1.279  -0.418  -0.012  0.00  0.00    -0.461 OA
ATOM     26  C   UNL     1       0.002  -0.004   0.002  0.00  0.00    +0.196 A 
ENDBRANCH  17  24
ENDBRANCH  16  19
ENDBRANCH   1  16
TORSDOF 6
