REMARK  Name = ZINC12583390
REMARK  8 active torsions:
REMARK  status: ('A' for Active; 'I' for Inactive)
REMARK    1  A    between atoms: C_1  and  C_2
REMARK    2  A    between atoms: N_10  and  N_11
REMARK    3  A    between atoms: C_12  and  C_14
REMARK    4  A    between atoms: C_18  and  S_20
REMARK    5  A    between atoms: S_20  and  N_23
REMARK    6  A    between atoms: N_23  and  C_24
REMARK    7  A    between atoms: C_29  and  O_30
REMARK    8  A    between atoms: O_30  and  C_31
REMARK                            x       y       z     vdW  Elec       q    Type
REMARK                         _______ _______ _______ _____ _____    ______ ____
ROOT
ATOM      1  C   UNL     1      -7.587   1.699  -0.236  0.00  0.00    +0.040 A 
ATOM      2  C   UNL     1      -7.301   3.065  -0.235  0.00  0.00    +0.013 A 
ATOM      3  C   UNL     1      -8.330   3.981  -0.162  0.00  0.00    +0.003 A 
ATOM      4  C   UNL     1      -9.641   3.548  -0.079  0.00  0.00    +0.029 A 
ATOM      5  C   UNL     1      -9.931   2.196  -0.074  0.00  0.00    +0.109 A 
ATOM      6  C   UNL     1      -8.912   1.269  -0.152  0.00  0.00    +0.042 A 
ENDROOT
BRANCH   1   8
ATOM      7  N   UNL     1      -5.211   1.129  -0.401  0.00  0.00    -0.229 N 
ATOM      8  C   UNL     1      -6.489   0.711  -0.320  0.00  0.00    +0.260 C 
ATOM      9  O   UNL     1      -6.741  -0.478  -0.316  0.00  0.00    -0.269 OA
ATOM     10  H   UNL     1      -5.010   2.079  -0.404  0.00  0.00    +0.173 HD
BRANCH   7  20
ATOM     11  C   UNL     1       2.356   2.116  -0.909  0.00  0.00    +0.089 C 
ATOM     12  C   UNL     1       0.887   2.437  -0.800  0.00  0.00    +0.136 A 
ATOM     13  C   UNL     1      -0.131   1.549  -0.735  0.00  0.00    +0.091 A 
ATOM     14  C   UNL     1      -1.291   2.364  -0.649  0.00  0.00    +0.169 A 
ATOM     15  N   UNL     1      -0.869   3.601  -0.661  0.00  0.00    -0.063 NA
ATOM     16  O   UNL     1       0.336   3.658  -0.748  0.00  0.00    -0.358 OA
ATOM     17  N   UNL     1      -2.614   1.931  -0.566  0.00  0.00    -0.250 N 
ATOM     18  C   UNL     1      -2.893   0.612  -0.561  0.00  0.00    +0.321 C 
ATOM     19  O   UNL     1      -1.990  -0.200  -0.630  0.00  0.00    -0.251 OA
ATOM     20  N   UNL     1      -4.171   0.194  -0.480  0.00  0.00    -0.218 N 
ATOM     21  H   UNL     1      -3.334   2.579  -0.510  0.00  0.00    +0.158 HD
ATOM     22  H   UNL     1      -4.372  -0.755  -0.477  0.00  0.00    +0.174 HD
ENDBRANCH   7  20
ENDBRANCH   1   8
BRANCH   5  23
ATOM     23  S   UNL     1     -11.604   1.655   0.032  0.00  0.00    +0.072 S 
ATOM     24  O   UNL     1     -12.407   2.721  -0.455  0.00  0.00    -0.150 OA
ATOM     25  O   UNL     1     -11.646   0.351  -0.531  0.00  0.00    -0.150 OA
BRANCH  23  26
ATOM     26  N   UNL     1     -11.964   1.488   1.640  0.00  0.00    -0.213 N 
ATOM     27  H   UNL     1     -12.229   0.623   1.990  0.00  0.00    +0.174 HD
BRANCH  26  28
ATOM     28  C   UNL     1     -11.885   2.595   2.493  0.00  0.00    +0.090 A 
ATOM     29  C   UNL     1     -12.237   3.855   2.032  0.00  0.00    +0.028 A 
ATOM     30  C   UNL     1     -12.163   4.946   2.878  0.00  0.00    +0.002 A 
ATOM     31  C   UNL     1     -11.729   4.786   4.181  0.00  0.00    +0.004 A 
ATOM     32  C   UNL     1     -11.371   3.534   4.646  0.00  0.00    +0.047 A 
ATOM     33  C   UNL     1     -11.447   2.435   3.806  0.00  0.00    +0.142 A 
BRANCH  33  34
ATOM     34  O   UNL     1     -11.094   1.203   4.262  0.00  0.00    -0.493 OA
ATOM     35  C   UNL     1     -10.655   1.115   5.618  0.00  0.00    +0.277 C 
ENDBRANCH  33  34
ENDBRANCH  26  28
ENDBRANCH  23  26
ENDBRANCH   5  23
TORSDOF 6
