REMARK  Name = ZINC06628974
REMARK  2 active torsions:
REMARK  status: ('A' for Active; 'I' for Inactive)
REMARK    1  A    between atoms: N_9  and  S_10
REMARK    2  A    between atoms: S_10  and  C_13
REMARK                            x       y       z     vdW  Elec       q    Type
REMARK                         _______ _______ _______ _____ _____    ______ ____
ROOT
ATOM      1  S   UNL     1       2.672   4.070  -0.002  0.00  0.00    +0.088 S 
ATOM      2  O   UNL     1       3.470   3.514  -1.038  0.00  0.00    -0.147 OA
ATOM      3  O   UNL     1       2.325   5.448   0.035  0.00  0.00    -0.147 OA
ENDROOT
BRANCH   1  12
ATOM      4  C   UNL     1       2.724   4.443   5.419  0.00  0.00    +0.002 A 
ATOM      5  C   UNL     1       1.759   4.920   4.543  0.00  0.00    +0.002 A 
ATOM      6  C   UNL     1       1.899   4.741   3.184  0.00  0.00    +0.030 A 
ATOM      7  C   UNL     1       3.017   4.082   2.688  0.00  0.00    +0.092 A 
ATOM      8  C   UNL     1       3.990   3.594   3.576  0.00  0.00    +0.091 A 
ATOM      9  C   UNL     1       3.827   3.787   4.950  0.00  0.00    +0.030 A 
ATOM     10  N   UNL     1       4.950   2.998   2.822  0.00  0.00    -0.234 NA
ATOM     11  C   UNL     1       4.632   3.084   1.563  0.00  0.00    +0.223 A 
ATOM     12  N   UNL     1       3.448   3.739   1.423  0.00  0.00    -0.199 N 
ENDBRANCH   1  12
BRANCH   1  13
ATOM     13  C   UNL     1       1.158   3.169   0.007  0.00  0.00    +0.149 A 
ATOM     14  C   UNL     1      -0.048   3.843   0.022  0.00  0.00    +0.070 A 
ATOM     15  C   UNL     1      -1.237   3.135   0.029  0.00  0.00    +0.125 A 
ATOM     16  C   UNL     1      -1.218   1.750   0.017  0.00  0.00    +0.041 A 
ATOM     17  C   UNL     1      -0.013   1.076   0.008  0.00  0.00    +0.043 A 
ATOM     18  C   UNL     1       1.177   1.784   0.000  0.00  0.00    +0.150 A 
ATOM     19  F   UNL     1       2.356   1.125  -0.013  0.00  0.00    -0.203 F 
ATOM     20  F   UNL     1      -2.416   3.794   0.042  0.00  0.00    -0.205 F 
ENDBRANCH   1  13
TORSDOF 2
