REMARK  Name = ZINC05192493
REMARK  8 active torsions:
REMARK  status: ('A' for Active; 'I' for Inactive)
REMARK    1  A    between atoms: C_1  and  C_2
REMARK    2  A    between atoms: C_2  and  C_3
REMARK    3  A    between atoms: C_3  and  N_49
REMARK    4  A    between atoms: C_9  and  N_14
REMARK    5  A    between atoms: C_10  and  C_11
REMARK    6  A    between atoms: C_15  and  C_17
REMARK    7  A    between atoms: C_17  and  S_18
REMARK    8  A    between atoms: S_18  and  C_19
REMARK                            x       y       z     vdW  Elec       q    Type
REMARK                         _______ _______ _______ _____ _____    ______ ____
ROOT
ATOM      1  C   UNL     1       5.981  12.335  -0.433  0.00  0.00    -0.074 C 
ATOM      2  C   UNL     1       6.530  10.971  -0.006  0.00  0.00    +0.018 C 
ATOM      3  C   UNL     1       5.375   9.976   0.002  0.00  0.00    -0.027 A 
ATOM      4  C   UNL     1       4.097  10.419   0.017  0.00  0.00    -0.021 A 
ATOM      5  S   UNL     1       3.111   8.952   0.019  0.00  0.00    -0.079 S 
ATOM      6  C   UNL     1       4.374   7.765   0.001  0.00  0.00    +0.084 A 
ATOM      7  C   UNL     1       5.530   8.534  -0.001  0.00  0.00    +0.068 A 
ATOM      8  C   UNL     1       3.653  11.848   0.031  0.00  0.00    -0.035 C 
ATOM      9  N   UNL     1       4.819  12.682   0.411  0.00  0.00    +0.383 N 
ATOM     10  H   UNL     1       5.054  12.500   1.394  0.00  0.00    -0.081 HD
ENDROOT
BRANCH   7  11
ATOM     11  C   UNL     1       6.858   7.911  -0.009  0.00  0.00    +0.244 C 
ATOM     12  O   UNL     1       7.405   7.658  -1.066  0.00  0.00    -0.270 OA
ATOM     13  N   UNL     1       7.473   7.619   1.155  0.00  0.00    -0.325 N 
ATOM     14  H   UNL     1       7.037   7.821   1.998  0.00  0.00    +0.145 HD
ATOM     15  H   UNL     1       8.351   7.207   1.150  0.00  0.00    +0.145 HD
ENDBRANCH   7  11
BRANCH   6  16
ATOM     16  N   UNL     1       4.258   6.383  -0.005  0.00  0.00    -0.279 N 
ATOM     17  C   UNL     1       3.038   5.810   0.003  0.00  0.00    +0.228 C 
ATOM     18  O   UNL     1       2.042   6.502   0.016  0.00  0.00    -0.275 OA
ATOM     19  H   UNL     1       5.054   5.830  -0.015  0.00  0.00    +0.155 HD
BRANCH  17  20
ATOM     20  C   UNL     1       2.912   4.308  -0.003  0.00  0.00    +0.170 C 
BRANCH  20  21
ATOM     21  S   UNL     1       1.157   3.849   0.011  0.00  0.00    -0.116 S 
BRANCH  21  22
ATOM     22  C   UNL     1       1.178   2.087   0.002  0.00  0.00    +0.009 A 
ATOM     23  C   UNL     1      -0.017   1.377   0.010  0.00  0.00    +0.017 A 
ATOM     24  C   UNL     1       0.002  -0.004   0.002  0.00  0.00    +0.039 A 
ATOM     25  C   UNL     1       1.210  -0.681  -0.013  0.00  0.00    +0.123 A 
ATOM     26  C   UNL     1       2.402   0.024  -0.021  0.00  0.00    +0.039 A 
ATOM     27  C   UNL     1       2.388   1.405  -0.013  0.00  0.00    +0.017 A 
ATOM     28  F   UNL     1       1.226  -2.032  -0.020  0.00  0.00    -0.205 F 
ENDBRANCH  21  22
ENDBRANCH  20  21
ENDBRANCH  17  20
ENDBRANCH   6  16
BRANCH   9  29
ATOM     29  C   UNL     1       4.489  14.115   0.254  0.00  0.00    -0.079 C 
BRANCH  29  31
ATOM     30  C   UNL     1       3.900  15.933  -1.355  0.00  0.00    +0.002 C 
ATOM     31  C   UNL     1       4.237  14.447  -1.218  0.00  0.00    -0.022 C 
ENDBRANCH  29  31
ENDBRANCH   9  29
TORSDOF 7
