REMARK  Name = ZINC67517419
REMARK  3 active torsions:
REMARK  status: ('A' for Active; 'I' for Inactive)
REMARK    1  A    between atoms: C_1  and  C_2
REMARK    2  A    between atoms: C_15  and  C_17
REMARK    3  A    between atoms: C_23  and  C_25
REMARK                            x       y       z     vdW  Elec       q    Type
REMARK                         _______ _______ _______ _____ _____    ______ ____
ROOT
ATOM      1  C   UNL     1       0.132   1.852   0.719  0.00  0.00    +0.007 C 
ATOM      2  C   UNL     1       0.173   0.341   0.481  0.00  0.00    -0.014 C 
ATOM      3  C   UNL     1      -1.251  -0.186   0.292  0.00  0.00    +0.005 C 
ATOM      4  C   UNL     1      -1.200  -1.694   0.039  0.00  0.00    +0.023 C 
ATOM      5  C   UNL     1      -0.549  -2.398   1.225  0.00  0.00    +0.079 C 
ATOM      6  C   UNL     1       0.861  -1.849   1.460  0.00  0.00    +0.010 C 
ATOM      7  C   UNL     1       0.811  -0.348   1.688  0.00  0.00    +0.008 C 
ATOM      8  C   UNL     1       1.450  -2.523   2.705  0.00  0.00    +0.007 C 
ATOM      9  C   UNL     1       0.591  -2.174   3.923  0.00  0.00    +0.019 C 
ATOM     10  C   UNL     1      -0.831  -2.703   3.715  0.00  0.00    +0.108 C 
ATOM     11  N   UNL     1      -1.340  -2.177   2.441  0.00  0.00    -0.297 N 
ATOM     12  C   UNL     1      -2.516  -1.520   2.389  0.00  0.00    +0.236 C 
ATOM     13  O   UNL     1      -2.975  -1.183   1.318  0.00  0.00    -0.274 OA
ENDROOT
BRANCH  12  14
ATOM     14  C   UNL     1      -3.260  -1.205   3.661  0.00  0.00    +0.162 C 
ATOM     15  C   UNL     1      -4.036  -2.451   4.137  0.00  0.00    +0.033 C 
ATOM     16  C   UNL     1      -5.363  -1.851   4.673  0.00  0.00    +0.021 C 
ATOM     17  C   UNL     1      -5.594  -0.679   3.686  0.00  0.00    +0.109 C 
ATOM     18  N   UNL     1      -4.245  -0.142   3.413  0.00  0.00    -0.283 N 
ATOM     19  C   UNL     1      -3.962   1.111   3.005  0.00  0.00    +0.283 C 
ATOM     20  O   UNL     1      -2.808   1.442   2.811  0.00  0.00    -0.267 OA
BRANCH  19  21
ATOM     21  C   UNL     1      -5.047   2.076   2.796  0.00  0.00    +0.189 A 
ATOM     22  C   UNL     1      -4.901   3.369   2.381  0.00  0.00    +0.054 A 
ATOM     23  C   UNL     1      -6.191   3.920   2.317  0.00  0.00    +0.042 A 
ATOM     24  C   UNL     1      -7.056   2.951   2.691  0.00  0.00    +0.196 A 
ATOM     25  O   UNL     1      -6.363   1.841   2.974  0.00  0.00    -0.458 OA
ENDBRANCH  19  21
ENDBRANCH  12  14
TORSDOF 2
