REMARK  Name = ZINC47028896
REMARK  6 active torsions:
REMARK  status: ('A' for Active; 'I' for Inactive)
REMARK    1  A    between atoms: C_1  and  C_2
REMARK    2  A    between atoms: C_2  and  C_4
REMARK    3  A    between atoms: C_2  and  N_10
REMARK    4  A    between atoms: C_4  and  N_5
REMARK    5  A    between atoms: N_13  and  N_14
REMARK    6  A    between atoms: C_15  and  C_17
REMARK                            x       y       z     vdW  Elec       q    Type
REMARK                         _______ _______ _______ _____ _____    ______ ____
ROOT
ATOM      1  N   UNL     1       0.711  -0.489   1.189  0.00  0.00    -0.294 N 
ATOM      2  C   UNL     1       0.051  -0.633   2.355  0.00  0.00    +0.316 C 
ATOM      3  O   UNL     1      -1.132  -0.361   2.423  0.00  0.00    -0.251 OA
ATOM      4  N   UNL     1       0.703  -1.080   3.447  0.00  0.00    -0.218 N 
ATOM      5  H   UNL     1       1.654  -0.707   1.135  0.00  0.00    +0.151 HD
ATOM      6  H   UNL     1       0.229  -1.184   4.287  0.00  0.00    +0.174 HD
ENDROOT
BRANCH   4   7
ATOM      7  N   UNL     1       2.066  -1.394   3.370  0.00  0.00    -0.229 N 
ATOM      8  C   UNL     1       2.718  -1.841   4.462  0.00  0.00    +0.267 C 
ATOM      9  O   UNL     1       2.123  -1.971   5.515  0.00  0.00    -0.268 OA
ATOM     10  H   UNL     1       2.541  -1.290   2.530  0.00  0.00    +0.173 HD
BRANCH   8  11
ATOM     11  C   UNL     1       4.144  -2.170   4.380  0.00  0.00    +0.076 A 
ATOM     12  C   UNL     1       4.987  -2.640   5.363  0.00  0.00    +0.024 A 
ATOM     13  C   UNL     1       6.324  -2.845   5.008  0.00  0.00    -0.036 A 
ATOM     14  C   UNL     1       6.677  -2.525   3.749  0.00  0.00    -0.006 A 
ATOM     15  S   UNL     1       5.244  -2.074   2.984  0.00  0.00    -0.088 S 
ATOM     16  C   UNL     1       8.013  -2.450   3.053  0.00  0.00    +0.043 C 
ATOM     17  C   UNL     1       9.174  -2.795   3.986  0.00  0.00    +0.005 C 
ATOM     18  C   UNL     1       9.310  -4.300   4.151  0.00  0.00    +0.000 C 
ATOM     19  C   UNL     1       7.972  -5.009   4.214  0.00  0.00    +0.000 C 
ATOM     20  C   UNL     1       7.494  -4.927   5.668  0.00  0.00    +0.005 C 
ATOM     21  C   UNL     1       7.267  -3.460   6.032  0.00  0.00    +0.036 C 
ENDBRANCH   8  11
ENDBRANCH   4   7
BRANCH   1  23
ATOM     22  C   UNL     1      -0.019   1.526   0.010  0.00  0.00    +0.029 C 
ATOM     23  C   UNL     1       0.002  -0.004   0.002  0.00  0.00    +0.091 C 
BRANCH  23  24
ATOM     24  C   UNL     1       0.718  -0.497  -1.257  0.00  0.00    +0.144 C 
BRANCH  24  25
ATOM     25  N   UNL     1       0.634  -1.958  -1.325  0.00  0.00    -0.337 N 
ATOM     26  C   UNL     1       1.525  -2.849  -0.791  0.00  0.00    +0.104 A 
ATOM     27  C   UNL     1       1.068  -4.082  -1.085  0.00  0.00    +0.101 A 
ATOM     28  N   UNL     1      -0.072  -3.947  -1.779  0.00  0.00    -0.352 N 
ATOM     29  C   UNL     1      -0.341  -2.678  -1.923  0.00  0.00    +0.173 A 
ATOM     30  H   UNL     1      -0.613  -4.677  -2.118  0.00  0.00    +0.166 HD
ENDBRANCH  24  25
ENDBRANCH  23  24
ENDBRANCH   1  23
TORSDOF 5
