REMARK  Name = ZINC09219432
REMARK  8 active torsions:
REMARK  status: ('A' for Active; 'I' for Inactive)
REMARK    1  A    between atoms: C_4  and  N_16
REMARK    2  A    between atoms: C_5  and  C_7
REMARK    3  A    between atoms: N_9  and  C_10
REMARK    4  A    between atoms: C_10  and  C_11
REMARK    5  A    between atoms: C_17  and  C_19
REMARK    6  A    between atoms: C_19  and  N_58
REMARK    7  A    between atoms: N_22  and  C_25
REMARK    8  A    between atoms: C_28  and  C_30
REMARK                            x       y       z     vdW  Elec       q    Type
REMARK                         _______ _______ _______ _____ _____    ______ ____
ROOT
ATOM      1  N   UNL     1      -1.191   1.867   0.017  0.00  0.00    -0.286 N 
ATOM      2  C   UNL     1      -0.015   1.209   0.013  0.00  0.00    +0.201 C 
ATOM      3  O   UNL     1       0.002  -0.004   0.020  0.00  0.00    -0.278 OA
ATOM      4  H   UNL     1      -1.205   2.834   0.092  0.00  0.00    +0.155 HD
ENDROOT
BRANCH   1   8
ATOM      5  C   UNL     1      -4.767  -0.255  -0.292  0.00  0.00    +0.001 A 
ATOM      6  C   UNL     1      -3.591  -0.790  -0.794  0.00  0.00    +0.002 A 
ATOM      7  C   UNL     1      -2.407  -0.088  -0.698  0.00  0.00    +0.024 A 
ATOM      8  C   UNL     1      -2.386   1.159  -0.086  0.00  0.00    +0.045 A 
ATOM      9  C   UNL     1      -3.574   1.703   0.423  0.00  0.00    +0.058 A 
ATOM     10  C   UNL     1      -4.766   0.982   0.314  0.00  0.00    +0.015 A 
BRANCH   9  11
ATOM     11  C   UNL     1      -3.565   3.029   1.070  0.00  0.00    +0.246 C 
ATOM     12  O   UNL     1      -2.546   3.692   1.083  0.00  0.00    -0.270 OA
ATOM     13  N   UNL     1      -4.687   3.505   1.647  0.00  0.00    -0.304 N 
ATOM     14  H   UNL     1      -5.499   2.975   1.636  0.00  0.00    +0.149 HD
BRANCH  13  15
ATOM     15  C   UNL     1      -4.678   4.821   2.289  0.00  0.00    +0.179 C 
BRANCH  15  16
ATOM     16  C   UNL     1      -6.045   5.115   2.852  0.00  0.00    +0.122 A 
ATOM     17  C   UNL     1      -6.469   4.805   4.090  0.00  0.00    +0.046 A 
ATOM     18  C   UNL     1      -7.804   5.260   4.191  0.00  0.00    +0.041 A 
ATOM     19  C   UNL     1      -8.116   5.821   3.009  0.00  0.00    +0.195 A 
ATOM     20  O   UNL     1      -7.044   5.735   2.203  0.00  0.00    -0.466 OA
ENDBRANCH  15  16
ENDBRANCH  13  15
ENDBRANCH   9  11
ENDBRANCH   1   8
BRANCH   2  21
ATOM     21  C   UNL     1       1.280   1.979  -0.008  0.00  0.00    +0.019 C 
BRANCH  21  27
ATOM     22  C   UNL     1       2.476   0.285   1.243  0.00  0.00    -0.059 C 
ATOM     23  C   UNL     1       3.613  -0.736   1.164  0.00  0.00    +0.088 C 
ATOM     24  N   UNL     1       4.879  -0.035   0.905  0.00  0.00    -0.320 N 
ATOM     25  C   UNL     1       4.813   0.719  -0.354  0.00  0.00    +0.088 C 
ATOM     26  C   UNL     1       3.675   1.740  -0.275  0.00  0.00    -0.059 C 
ATOM     27  N   UNL     1       2.406   1.021  -0.037  0.00  0.00    +0.387 N 
ATOM     28  H   UNL     1       2.254   0.351  -0.799  0.00  0.00    -0.081 HD
BRANCH  24  29
ATOM     29  C   UNL     1       5.948  -0.924   0.898  0.00  0.00    +0.099 A 
ATOM     30  C   UNL     1       6.183  -1.729   2.008  0.00  0.00    +0.042 A 
ATOM     31  C   UNL     1       7.246  -2.614   1.985  0.00  0.00    +0.017 A 
ATOM     32  C   UNL     1       8.048  -2.656   0.852  0.00  0.00    +0.071 A 
ATOM     33  C   UNL     1       7.761  -1.824  -0.211  0.00  0.00    +0.096 A 
ATOM     34  N   UNL     1       6.721  -0.947  -0.226  0.00  0.00    -0.349 N 
ATOM     35  H   UNL     1       6.530  -0.340  -1.032  0.00  0.00    +0.167 HD
BRANCH  32  36
ATOM     36  C   UNL     1       9.221  -3.600   0.784  0.00  0.00    +0.419 C 
ATOM     37  F   UNL     1       9.866  -3.455  -0.449  0.00  0.00    -0.166 F 
ATOM     38  F   UNL     1      10.117  -3.305   1.817  0.00  0.00    -0.166 F 
ATOM     39  F   UNL     1       8.768  -4.916   0.922  0.00  0.00    -0.166 F 
ENDBRANCH  32  36
ENDBRANCH  24  29
ENDBRANCH  21  27
ENDBRANCH   2  21
TORSDOF 8
