REMARK  Name = ZINC03978081
REMARK  15 active torsions:
REMARK  status: ('A' for Active; 'I' for Inactive)
REMARK    1  A    between atoms: C_1  and  C_2
REMARK    2  A    between atoms: C_2  and  C_3
REMARK    3  A    between atoms: C_3  and  C_4
REMARK    4  A    between atoms: C_7  and  C_11
REMARK    5  A    between atoms: C_10  and  N_61
REMARK    6  A    between atoms: N_13  and  C_14
REMARK    7  A    between atoms: C_14  and  C_16
REMARK    8  A    between atoms: C_14  and  C_32
REMARK    9  A    between atoms: C_18  and  O_31
REMARK   10  A    between atoms: C_20  and  O_30
REMARK   11  A    between atoms: C_22  and  O_29
REMARK   12  A    between atoms: C_24  and  S_27
REMARK   13  A    between atoms: S_27  and  C_28
REMARK   14  A    between atoms: C_32  and  C_34
REMARK   15  A    between atoms: C_32  and  O_35
REMARK                            x       y       z     vdW  Elec       q    Type
REMARK                         _______ _______ _______ _____ _____    ______ ____
ROOT
ATOM      1  C   UNL     1       1.448   1.611   0.004  0.00  0.00    +0.132 C 
ENDROOT
BRANCH   1   2
ATOM      2  C   UNL     1       2.193   1.017  -1.194  0.00  0.00    +0.173 C 
ATOM      3  C   UNL     1       3.665   1.433  -1.137  0.00  0.00    +0.176 C 
ATOM      4  C   UNL     1       3.761   2.958  -1.240  0.00  0.00    +0.177 C 
ATOM      5  C   UNL     1       3.077   3.416  -2.532  0.00  0.00    +0.184 C 
ATOM      6  C   UNL     1       1.627   2.923  -2.535  0.00  0.00    +0.207 C 
ATOM      7  O   UNL     1       1.609   1.500  -2.405  0.00  0.00    -0.356 OA
BRANCH   6   8
ATOM      8  S   UNL     1       0.829   3.400  -4.093  0.00  0.00    -0.131 S 
ATOM      9  C   UNL     1      -0.925   3.026  -3.820  0.00  0.00    +0.087 C 
ENDBRANCH   6   8
BRANCH   5  10
ATOM     10  O   UNL     1       3.097   4.843  -2.604  0.00  0.00    -0.386 OA
ATOM     11  H   UNL     1       2.680   5.203  -3.398  0.00  0.00    +0.210 HD
ENDBRANCH   5  10
BRANCH   4  12
ATOM     12  O   UNL     1       5.135   3.350  -1.260  0.00  0.00    -0.386 OA
ATOM     13  H   UNL     1       5.270   4.306  -1.324  0.00  0.00    +0.210 HD
ENDBRANCH   4  12
BRANCH   3  14
ATOM     14  O   UNL     1       4.236   0.999   0.099  0.00  0.00    -0.387 OA
ATOM     15  H   UNL     1       5.170   1.230   0.203  0.00  0.00    +0.210 HD
ENDBRANCH   3  14
ENDBRANCH   1   2
BRANCH   1  18
ATOM     16  C   UNL     1       1.861   1.695   2.404  0.00  0.00    +0.200 C 
ATOM     17  O   UNL     1       1.340   2.790   2.425  0.00  0.00    -0.278 OA
ATOM     18  N   UNL     1       1.965   1.021   1.241  0.00  0.00    -0.309 N 
ATOM     19  H   UNL     1       2.382   0.145   1.224  0.00  0.00    +0.149 HD
BRANCH  16  22
ATOM     20  C   UNL     1       1.465   0.276   5.793  0.00  0.00    -0.029 C 
ATOM     21  C   UNL     1       1.372   0.091   4.265  0.00  0.00    -0.005 C 
ATOM     22  C   UNL     1       2.393   1.088   3.676  0.00  0.00    +0.019 C 
ATOM     23  C   UNL     1       2.535   1.370   6.000  0.00  0.00    -0.075 C 
ATOM     24  C   UNL     1       3.809   2.863   4.555  0.00  0.00    -0.095 C 
ATOM     25  N   UNL     1       2.534   2.097   4.732  0.00  0.00    +0.386 N 
ATOM     26  H   UNL     1       1.742   2.750   4.702  0.00  0.00    -0.081 HD
BRANCH  20  27
ATOM     27  C   UNL     1       1.901  -1.029   6.462  0.00  0.00    +0.001 C 
BRANCH  27  29
ATOM     28  C   UNL     1       2.303  -2.166   8.650  0.00  0.00    +0.004 C 
ATOM     29  C   UNL     1       1.867  -0.860   7.982  0.00  0.00    -0.003 C 
ENDBRANCH  27  29
ENDBRANCH  20  27
ENDBRANCH  16  22
ENDBRANCH   1  18
BRANCH   1  30
ATOM     30  C   UNL     1      -0.046   1.305  -0.122  0.00  0.00    +0.134 C 
ATOM     31  C   UNL     1      -0.268  -0.205  -0.016  0.00  0.00    +0.039 C 
BRANCH  30  32
ATOM     32  O   UNL     1      -0.757   1.966   0.927  0.00  0.00    -0.390 OA
ATOM     33  H   UNL     1      -0.729   2.931   0.873  0.00  0.00    +0.210 HD
ENDBRANCH  30  32
ENDBRANCH   1  30
TORSDOF 11
