REMARK  Name = ZINC35033109
REMARK  9 active torsions:
REMARK  status: ('A' for Active; 'I' for Inactive)
REMARK    1  A    between atoms: C_1  and  C_2
REMARK    2  A    between atoms: N_5  and  C_15
REMARK    3  A    between atoms: C_9  and  C_11
REMARK    4  A    between atoms: C_11  and  C_12
REMARK    5  A    between atoms: C_11  and  C_13
REMARK    6  A    between atoms: C_11  and  C_14
REMARK    7  A    between atoms: C_15  and  C_17
REMARK    8  A    between atoms: C_15  and  C_18
REMARK    9  A    between atoms: N_28  and  C_29
REMARK                            x       y       z     vdW  Elec       q    Type
REMARK                         _______ _______ _______ _____ _____    ______ ____
ROOT
ATOM      1  C   UNL     1       1.171  -3.611  -2.171  0.00  0.00    +0.120 C 
ATOM      2  C   UNL     1       2.700  -3.561  -2.137  0.00  0.00    +0.032 C 
ENDROOT
BRANCH   1   3
ATOM      3  C   UNL     1       0.710  -5.028  -1.945  0.00  0.00    +0.130 A 
ATOM      4  N   UNL     1       1.573  -5.894  -1.507  0.00  0.00    -0.232 NA
ATOM      5  C   UNL     1       1.230  -7.187  -1.280  0.00  0.00    +0.078 A 
ATOM      6  C   UNL     1       2.157  -8.119  -0.809  0.00  0.00    +0.028 A 
ATOM      7  C   UNL     1       1.766  -9.421  -0.593  0.00  0.00    +0.002 A 
ATOM      8  C   UNL     1       0.459  -9.821  -0.837  0.00  0.00    +0.001 A 
ATOM      9  C   UNL     1      -0.474  -8.920  -1.302  0.00  0.00    +0.015 A 
ATOM     10  C   UNL     1      -0.099  -7.597  -1.528  0.00  0.00    +0.065 A 
ATOM     11  C   UNL     1      -1.050  -6.592  -2.023  0.00  0.00    +0.262 A 
ATOM     12  O   UNL     1      -2.210  -6.880  -2.256  0.00  0.00    -0.267 OA
ATOM     13  N   UNL     1      -0.589  -5.333  -2.204  0.00  0.00    -0.298 N 
ATOM     14  C   UNL     1      -1.496  -4.290  -2.690  0.00  0.00    +0.154 C 
ENDBRANCH   1   3
BRANCH   1  18
ATOM     15  C   UNL     1       0.483   1.012  -0.624  0.00  0.00    +0.029 C 
ATOM     16  C   UNL     1       0.122  -0.458  -0.402  0.00  0.00    +0.087 C 
ATOM     17  C   UNL     1       0.856  -1.329  -1.428  0.00  0.00    +0.107 C 
ATOM     18  N   UNL     1       0.629  -2.746  -1.115  0.00  0.00    -0.290 NA
ATOM     19  C   UNL     1       1.190  -3.099   0.195  0.00  0.00    +0.104 C 
ATOM     20  C   UNL     1       0.470  -2.301   1.288  0.00  0.00    +0.123 C 
ATOM     21  N   UNL     1       0.536  -0.871   0.947  0.00  0.00    -0.296 N 
ATOM     22  C   UNL     1       0.967   0.036   1.846  0.00  0.00    +0.221 C 
ATOM     23  O   UNL     1       0.920   1.219   1.585  0.00  0.00    -0.275 OA
BRANCH  22  24
ATOM     24  C   UNL     1       1.510  -0.420   3.176  0.00  0.00    +0.039 C 
ATOM     25  C   UNL     1       1.946   0.797   3.994  0.00  0.00    +0.020 C 
ATOM     26  C   UNL     1       0.422  -1.182   3.936  0.00  0.00    +0.020 C 
ATOM     27  C   UNL     1       2.711  -1.340   2.949  0.00  0.00    +0.020 C 
ENDBRANCH  22  24
ENDBRANCH   1  18
TORSDOF 3
