REMARK  Name = ZINC15322851
REMARK  8 active torsions:
REMARK  status: ('A' for Active; 'I' for Inactive)
REMARK    1  A    between atoms: C_1  and  N_59
REMARK    2  A    between atoms: C_2  and  C_3
REMARK    3  A    between atoms: C_2  and  N_59
REMARK    4  A    between atoms: C_8  and  N_9
REMARK    5  A    between atoms: N_9  and  C_10
REMARK    6  A    between atoms: C_10  and  C_11
REMARK    7  A    between atoms: N_16  and  C_17
REMARK    8  A    between atoms: C_24  and  N_59
REMARK                            x       y       z     vdW  Elec       q    Type
REMARK                         _______ _______ _______ _____ _____    ______ ____
ROOT
ATOM      1  N   UNL     1      -0.676   1.596   1.213  0.00  0.00    -0.335 N 
ATOM      2  H   UNL     1      -1.475   2.140   1.134  0.00  0.00    +0.147 HD
ENDROOT
BRANCH   1   8
ATOM      3  C   UNL     1      -0.822   1.721   3.619  0.00  0.00    -0.043 A 
ATOM      4  C   UNL     1      -0.325   1.394   4.865  0.00  0.00    +0.003 A 
ATOM      5  C   UNL     1       0.814   0.619   4.976  0.00  0.00    +0.000 A 
ATOM      6  C   UNL     1       1.460   0.167   3.840  0.00  0.00    +0.002 A 
ATOM      7  C   UNL     1       0.966   0.485   2.590  0.00  0.00    +0.023 A 
ATOM      8  C   UNL     1      -0.176   1.268   2.475  0.00  0.00    +0.029 A 
BRANCH   3   9
ATOM      9  C   UNL     1      -2.063   2.567   3.499  0.00  0.00    -0.041 C 
BRANCH   9  11
ATOM     10  C   UNL     1      -3.502   0.829   4.379  0.00  0.00    -0.095 C 
ATOM     11  N   UNL     1      -3.214   1.686   3.209  0.00  0.00    +0.382 N 
ATOM     12  H   UNL     1      -2.983   1.088   2.407  0.00  0.00    -0.081 HD
BRANCH  11  13
ATOM     13  C   UNL     1      -4.402   2.500   2.875  0.00  0.00    -0.069 C 
ATOM     14  C   UNL     1      -4.824   3.351   4.074  0.00  0.00    -0.015 C 
ATOM     15  C   UNL     1      -6.054   4.182   3.703  0.00  0.00    -0.002 C 
ATOM     16  C   UNL     1      -7.200   3.248   3.311  0.00  0.00    -0.000 C 
ATOM     17  C   UNL     1      -6.778   2.397   2.112  0.00  0.00    -0.002 C 
ATOM     18  C   UNL     1      -5.548   1.566   2.483  0.00  0.00    -0.015 C 
ENDBRANCH  11  13
ENDBRANCH   9  11
ENDBRANCH   3   9
ENDBRANCH   1   8
BRANCH   1  19
ATOM     19  C   UNL     1       0.007   1.118   0.008  0.00  0.00    +0.198 C 
BRANCH  19  20
ATOM     20  C   UNL     1      -0.728   1.607  -1.213  0.00  0.00    +0.237 C 
ATOM     21  O   UNL     1      -1.724   2.287  -1.089  0.00  0.00    -0.274 OA
ATOM     22  N   UNL     1      -0.279   1.288  -2.443  0.00  0.00    -0.239 N 
ATOM     23  C   UNL     1      -0.937   1.725  -3.535  0.00  0.00    +0.310 C 
ATOM     24  O   UNL     1      -1.935   2.407  -3.411  0.00  0.00    -0.252 OA
ATOM     25  N   UNL     1      -0.487   1.406  -4.765  0.00  0.00    -0.267 N 
ATOM     26  H   UNL     1       0.518   0.744  -2.542  0.00  0.00    +0.159 HD
ATOM     27  H   UNL     1       0.344   0.917  -4.866  0.00  0.00    +0.156 HD
BRANCH  25  28
ATOM     28  C   UNL     1      -1.221   1.780  -5.898  0.00  0.00    +0.070 A 
ATOM     29  C   UNL     1      -1.922   2.979  -5.908  0.00  0.00    +0.026 A 
ATOM     30  C   UNL     1      -2.641   3.348  -7.028  0.00  0.00    +0.002 A 
ATOM     31  C   UNL     1      -2.672   2.521  -8.136  0.00  0.00    +0.003 A 
ATOM     32  C   UNL     1      -1.980   1.324  -8.129  0.00  0.00    +0.040 A 
ATOM     33  C   UNL     1      -1.254   0.950  -7.013  0.00  0.00    +0.145 A 
ATOM     34  F   UNL     1      -0.579  -0.220  -7.005  0.00  0.00    -0.204 F 
ENDBRANCH  25  28
ENDBRANCH  19  20
ENDBRANCH   1  19
TORSDOF 7
