REMARK  Name = ZINC35427167
REMARK  5 active torsions:
REMARK  status: ('A' for Active; 'I' for Inactive)
REMARK    1  A    between atoms: C_1  and  N_2
REMARK    2  A    between atoms: C_16  and  C_30
REMARK    3  A    between atoms: N_22  and  C_23
REMARK    4  A    between atoms: C_33  and  O_36
REMARK    5  A    between atoms: O_36  and  C_37
REMARK                            x       y       z     vdW  Elec       q    Type
REMARK                         _______ _______ _______ _____ _____    ______ ____
ROOT
ATOM      1  C   UNL     1      -0.451   1.312  -1.406  0.00  0.00    -0.096 C 
ATOM      2  N   UNL     1      -0.365  -0.133  -1.156  0.00  0.00    +0.381 N 
ATOM      3  C   UNL     1      -1.706  -0.725  -1.243  0.00  0.00    -0.074 C 
ATOM      4  C   UNL     1      -1.611  -2.252  -1.304  0.00  0.00    +0.018 C 
ATOM      5  C   UNL     1      -0.755  -2.718  -0.128  0.00  0.00    -0.034 A 
ATOM      6  C   UNL     1      -0.745  -4.048   0.334  0.00  0.00    +0.004 A 
ATOM      7  C   UNL     1       0.074  -4.323   1.386  0.00  0.00    +0.090 A 
ATOM      8  S   UNL     1       0.826  -2.773   1.781  0.00  0.00    -0.077 S 
ATOM      9  C   UNL     1       0.038  -1.817   0.513  0.00  0.00    -0.021 A 
ATOM     10  C   UNL     1       0.188  -0.367   0.192  0.00  0.00    -0.036 C 
ATOM     11  N   UNL     1       0.227  -5.586   1.945  0.00  0.00    -0.312 N 
ATOM     12  C   UNL     1       0.246  -5.999   3.233  0.00  0.00    +0.092 A 
ATOM     13  C   UNL     1       0.354  -7.347   3.238  0.00  0.00    +0.020 A 
ATOM     14  C   UNL     1       0.423  -7.774   1.894  0.00  0.00    +0.025 A 
ATOM     15  C   UNL     1       0.368  -6.679   1.122  0.00  0.00    +0.049 A 
ATOM     16  C   UNL     1       0.480  -6.558  -0.369  0.00  0.00    +0.155 C 
ATOM     17  N   UNL     1      -0.806  -6.154  -0.987  0.00  0.00    -0.268 N 
ATOM     18  C   UNL     1      -1.599  -5.140  -0.269  0.00  0.00    +0.148 C 
ATOM     19  C   UNL     1      -1.229  -6.687  -2.150  0.00  0.00    +0.308 C 
ATOM     20  O   UNL     1      -0.551  -7.521  -2.718  0.00  0.00    -0.252 OA
ATOM     21  N   UNL     1      -2.404  -6.296  -2.683  0.00  0.00    -0.269 N 
ATOM     22  H   UNL     1      -2.909  -5.579  -2.270  0.00  0.00    +0.156 HD
ATOM     23  H   UNL     1       0.237  -0.558  -1.845  0.00  0.00    -0.082 HD
ENDROOT
BRANCH  21  24
ATOM     24  C   UNL     1      -2.894  -6.926  -3.835  0.00  0.00    +0.035 A 
ATOM     25  C   UNL     1      -3.620  -6.199  -4.768  0.00  0.00    +0.026 A 
ATOM     26  C   UNL     1      -4.103  -6.821  -5.903  0.00  0.00    +0.040 A 
ATOM     27  C   UNL     1      -3.862  -8.168  -6.110  0.00  0.00    +0.124 A 
ATOM     28  C   UNL     1      -3.138  -8.895  -5.180  0.00  0.00    +0.040 A 
ATOM     29  C   UNL     1      -2.649  -8.276  -4.047  0.00  0.00    +0.026 A 
ATOM     30  F   UNL     1      -4.335  -8.775  -7.221  0.00  0.00    -0.205 F 
ENDBRANCH  21  24
BRANCH  16  31
ATOM     31  C   UNL     1       1.527  -5.527  -0.700  0.00  0.00    -0.021 A 
ATOM     32  C   UNL     1       2.626  -5.369   0.124  0.00  0.00    +0.009 A 
ATOM     33  C   UNL     1       3.587  -4.424  -0.177  0.00  0.00    +0.046 A 
ATOM     34  C   UNL     1       3.450  -3.633  -1.309  0.00  0.00    +0.120 A 
ATOM     35  C   UNL     1       2.348  -3.794  -2.135  0.00  0.00    +0.046 A 
ATOM     36  C   UNL     1       1.391  -4.744  -1.832  0.00  0.00    +0.009 A 
BRANCH  34  37
ATOM     37  O   UNL     1       4.395  -2.703  -1.607  0.00  0.00    -0.495 OA
ATOM     38  C   UNL     1       4.189  -1.925  -2.788  0.00  0.00    +0.277 C 
ENDBRANCH  34  37
ENDBRANCH  16  31
TORSDOF 3
