REMARK  Name = ZINC06512737
REMARK  8 active torsions:
REMARK  status: ('A' for Active; 'I' for Inactive)
REMARK    1  A    between atoms: C_1  and  C_2
REMARK    2  A    between atoms: C_2  and  N_47
REMARK    3  A    between atoms: C_3  and  C_4
REMARK    4  A    between atoms: C_3  and  N_47
REMARK    5  A    between atoms: C_4  and  N_5
REMARK    6  A    between atoms: C_6  and  C_8
REMARK    7  A    between atoms: N_13  and  C_16
REMARK    8  A    between atoms: C_14  and  O_15
REMARK                            x       y       z     vdW  Elec       q    Type
REMARK                         _______ _______ _______ _____ _____    ______ ____
ROOT
ATOM      1  C   UNL     1      -1.272   1.976   0.019  0.00  0.00    +0.143 A 
ATOM      2  C   UNL     1      -1.992   2.246  -1.227  0.00  0.00    +0.201 A 
ATOM      3  O   UNL     1      -1.519   1.918  -2.304  0.00  0.00    -0.287 OA
ATOM      4  C   UNL     1      -3.258   2.895  -1.158  0.00  0.00    +0.020 A 
ATOM      5  C   UNL     1      -3.761   3.243   0.037  0.00  0.00    +0.029 A 
ATOM      6  N   UNL     1      -3.068   2.994   1.191  0.00  0.00    -0.312 N 
ATOM      7  C   UNL     1      -1.865   2.381   1.213  0.00  0.00    +0.209 A 
ATOM      8  C   UNL     1      -5.106   3.911   0.186  0.00  0.00    +0.054 C 
ATOM      9  C   UNL     1      -5.559   4.521  -1.137  0.00  0.00    +0.006 C 
ATOM     10  C   UNL     1      -5.447   3.446  -2.225  0.00  0.00    +0.005 C 
ATOM     11  C   UNL     1      -3.965   3.163  -2.461  0.00  0.00    +0.041 C 
ENDROOT
BRANCH   1  13
ATOM     12  N   UNL     1       1.165   2.034  -0.087  0.00  0.00    -0.313 N 
ATOM     13  C   UNL     1       0.035   1.306   0.011  0.00  0.00    +0.253 C 
ATOM     14  O   UNL     1       0.097   0.093   0.086  0.00  0.00    -0.270 OA
ATOM     15  H   UNL     1       1.115   3.000  -0.147  0.00  0.00    +0.149 HD
BRANCH  12  16
ATOM     16  C   UNL     1       2.468   1.365  -0.102  0.00  0.00    +0.085 C 
BRANCH  16  17
ATOM     17  C   UNL     1       3.578   2.412  -0.219  0.00  0.00    -0.064 C 
BRANCH  17  18
ATOM     18  N   UNL     1       4.886   1.730  -0.233  0.00  0.00    +0.380 N 
ATOM     19  H   UNL     1       5.000   1.197   0.637  0.00  0.00    -0.086 HD
ATOM     20  H   UNL     1       4.925   1.089  -1.034  0.00  0.00    -0.086 HD
BRANCH  18  22
ATOM     21  C   UNL     1       7.318   1.982  -0.358  0.00  0.00    -0.017 C 
ATOM     22  C   UNL     1       5.976   2.717  -0.346  0.00  0.00    -0.086 C 
ENDBRANCH  18  22
ENDBRANCH  17  18
ENDBRANCH  16  17
ENDBRANCH  12  16
ENDBRANCH   1  13
BRANCH   6  23
ATOM     23  C   UNL     1      -3.661   3.412   2.463  0.00  0.00    +0.090 C 
ATOM     24  C   UNL     1      -3.665   2.397   3.608  0.00  0.00    +0.027 C 
ATOM     25  C   UNL     1      -4.969   2.742   2.887  0.00  0.00    +0.027 C 
ENDBRANCH   6  23
BRANCH   7  26
ATOM     26  O   UNL     1      -1.240   2.163   2.387  0.00  0.00    -0.493 OA
ATOM     27  H   UNL     1      -0.627   2.846   2.692  0.00  0.00    +0.294 HD
ENDBRANCH   7  26
TORSDOF 7
