REMARK  Name = ZINC20323478
REMARK  6 active torsions:
REMARK  status: ('A' for Active; 'I' for Inactive)
REMARK    1  A    between atoms: C_6  and  C_7
REMARK    2  A    between atoms: C_12  and  N_16
REMARK    3  A    between atoms: N_16  and  C_17
REMARK    4  A    between atoms: C_17  and  C_18
REMARK    5  A    between atoms: C_18  and  C_19
REMARK    6  A    between atoms: C_19  and  N_20
REMARK                            x       y       z     vdW  Elec       q    Type
REMARK                         _______ _______ _______ _____ _____    ______ ____
ROOT
ATOM      1  C   UNL     1      -2.482   0.957   0.047  0.00  0.00    +0.002 A 
ATOM      2  C   UNL     1      -2.731   0.026  -0.905  0.00  0.00    +0.056 A 
ATOM      3  S   UNL     1      -4.352  -0.581  -0.479  0.00  0.00    -0.076 S 
ATOM      4  C   UNL     1      -4.663   0.424   0.948  0.00  0.00    +0.114 A 
ATOM      5  C   UNL     1      -3.496   1.208   1.065  0.00  0.00    +0.055 A 
ATOM      6  C   UNL     1      -3.482   2.121   2.153  0.00  0.00    +0.131 A 
ATOM      7  N   UNL     1      -4.528   2.179   2.962  0.00  0.00    -0.220 NA
ATOM      8  C   UNL     1      -5.590   1.413   2.792  0.00  0.00    +0.224 A 
ATOM      9  N   UNL     1      -5.662   0.547   1.800  0.00  0.00    -0.228 NA
ENDROOT
BRANCH   1  15
ATOM     10  C   UNL     1      -0.352   1.641   1.149  0.00  0.00    +0.009 A 
ATOM     11  C   UNL     1       0.827   2.353   1.142  0.00  0.00    +0.004 A 
ATOM     12  C   UNL     1       1.176   3.137   0.049  0.00  0.00    -0.044 A 
ATOM     13  C   UNL     1       0.340   3.203  -1.045  0.00  0.00    -0.044 A 
ATOM     14  C   UNL     1      -0.850   2.490  -1.046  0.00  0.00    +0.012 A 
ATOM     15  C   UNL     1      -1.206   1.711   0.050  0.00  0.00    -0.016 A 
ATOM     16  C   UNL     1       0.663   4.025  -2.265  0.00  0.00    +0.035 C 
ATOM     17  C   UNL     1       1.743   5.057  -1.946  0.00  0.00    +0.005 C 
ATOM     18  C   UNL     1       2.918   4.336  -1.275  0.00  0.00    +0.005 C 
ATOM     19  C   UNL     1       2.478   3.893   0.119  0.00  0.00    +0.035 C 
ENDBRANCH   1  15
BRANCH   6  20
ATOM     20  N   UNL     1      -2.387   2.940   2.364  0.00  0.00    -0.329 N 
ATOM     21  H   UNL     1      -1.566   2.960   1.633  0.00  0.00    +0.147 HD
BRANCH  20  22
ATOM     22  C   UNL     1      -2.323   3.782   3.562  0.00  0.00    +0.101 C 
BRANCH  22  23
ATOM     23  C   UNL     1      -1.019   4.583   3.552  0.00  0.00    -0.001 C 
BRANCH  23  24
ATOM     24  C   UNL     1      -0.951   5.462   4.803  0.00  0.00    -0.085 C 
BRANCH  24  25
ATOM     25  N   UNL     1       0.300   6.230   4.794  0.00  0.00    +0.378 N 
ATOM     26  H   UNL     1       0.349   6.862   5.693  0.00  0.00    -0.090 HD
ATOM     27  H   UNL     1       0.334   6.866   3.897  0.00  0.00    -0.090 HD
ATOM     28  H   UNL     1       1.155   5.538   4.785  0.00  0.00    -0.090 HD
ENDBRANCH  24  25
ENDBRANCH  23  24
ENDBRANCH  22  23
ENDBRANCH  20  22
ENDBRANCH   6  20
TORSDOF 6
