REMARK  Name = ZINC61316337
REMARK  8 active torsions:
REMARK  status: ('A' for Active; 'I' for Inactive)
REMARK    1  A    between atoms: C_1  and  C_2
REMARK    2  A    between atoms: C_2  and  C_3
REMARK    3  A    between atoms: C_2  and  C_4
REMARK    4  A    between atoms: C_2  and  N_18
REMARK    5  A    between atoms: N_6  and  C_7
REMARK    6  A    between atoms: C_10  and  S_14
REMARK    7  A    between atoms: S_14  and  N_17
REMARK    8  A    between atoms: N_18  and  C_19
REMARK                            x       y       z     vdW  Elec       q    Type
REMARK                         _______ _______ _______ _____ _____    ______ ____
ROOT
ATOM      1  C   UNL     1      -3.363  -1.239  -1.147  0.00  0.00    +0.048 A 
ATOM      2  C   UNL     1      -3.726  -2.124  -0.140  0.00  0.00    +0.026 A 
ATOM      3  C   UNL     1      -4.983  -2.696  -0.145  0.00  0.00    +0.030 A 
ATOM      4  C   UNL     1      -5.881  -2.388  -1.151  0.00  0.00    +0.106 A 
ATOM      5  C   UNL     1      -5.523  -1.508  -2.156  0.00  0.00    +0.045 A 
ATOM      6  C   UNL     1      -4.269  -0.927  -2.153  0.00  0.00    +0.041 A 
ATOM      7 BR   UNL     1      -3.783   0.282  -3.523  0.00  0.00    -0.048 Br
ENDROOT
BRANCH   1  10
ATOM      8  C   UNL     1      -1.410  -0.529   0.012  0.00  0.00    +0.206 C 
ATOM      9  O   UNL     1      -1.940  -0.824   1.063  0.00  0.00    -0.277 OA
ATOM     10  N   UNL     1      -2.090  -0.657  -1.144  0.00  0.00    -0.286 N 
ATOM     11  H   UNL     1      -1.697  -0.347  -1.975  0.00  0.00    +0.155 HD
BRANCH   8  13
ATOM     12  C   UNL     1      -0.001   1.512   0.005  0.00  0.00    -0.001 C 
ATOM     13  C   UNL     1       0.008  -0.018   0.000  0.00  0.00    +0.004 C 
ATOM     14  C   UNL     1       0.744  -0.529   1.240  0.00  0.00    -0.001 C 
BRANCH  13  15
ATOM     15  N   UNL     1       0.691  -0.500  -1.208  0.00  0.00    +0.386 N 
ATOM     16  C   UNL     1       2.073  -0.003  -1.220  0.00  0.00    -0.099 C 
ATOM     17  H   UNL     1       0.697  -1.509  -1.211  0.00  0.00    -0.085 HD
ATOM     18  H   UNL     1       0.205  -0.164  -2.026  0.00  0.00    -0.085 HD
ENDBRANCH  13  15
ENDBRANCH   8  13
ENDBRANCH   1  10
BRANCH   4  19
ATOM     19  S   UNL     1      -7.483  -3.121  -1.154  0.00  0.00    +0.056 S 
ATOM     20  O   UNL     1      -7.941  -3.092  -2.499  0.00  0.00    -0.153 OA
ATOM     21  O   UNL     1      -7.380  -4.327  -0.410  0.00  0.00    -0.153 OA
BRANCH  19  22
ATOM     22  N   UNL     1      -8.481  -2.118  -0.293  0.00  0.00    -0.204 NA
ATOM     23  H   UNL     1      -9.425  -2.069  -0.511  0.00  0.00    +0.144 HD
ATOM     24  H   UNL     1      -8.122  -1.580   0.429  0.00  0.00    +0.144 HD
ENDBRANCH  19  22
ENDBRANCH   4  19
TORSDOF 5
