REMARK  Name = ZINC67486461
REMARK  9 active torsions:
REMARK  status: ('A' for Active; 'I' for Inactive)
REMARK    1  A    between atoms: C_1  and  C_2
REMARK    2  A    between atoms: N_5  and  C_8
REMARK    3  A    between atoms: C_8  and  C_9
REMARK    4  A    between atoms: C_9  and  C_11
REMARK    5  A    between atoms: C_9  and  O_28
REMARK    6  A    between atoms: C_11  and  N_12
REMARK    7  A    between atoms: C_15  and  C_18
REMARK    8  A    between atoms: C_18  and  C_20
REMARK    9  A    between atoms: C_18  and  O_27
REMARK                            x       y       z     vdW  Elec       q    Type
REMARK                         _______ _______ _______ _____ _____    ______ ____
ROOT
ATOM      1  N   UNL     1       0.493  -6.445   4.056  0.00  0.00    -0.300 NA
ATOM      2  C   UNL     1      -0.419  -6.207   5.181  0.00  0.00    +0.085 C 
ATOM      3  C   UNL     1       0.255  -6.640   6.486  0.00  0.00    +0.022 C 
ATOM      4  C   UNL     1       0.614  -8.126   6.401  0.00  0.00    +0.024 C 
ATOM      5  C   UNL     1       1.525  -8.354   5.192  0.00  0.00    +0.022 C 
ATOM      6  C   UNL     1       0.815  -7.872   3.925  0.00  0.00    +0.085 C 
ENDROOT
BRANCH   1   7
ATOM      7  C   UNL     1      -0.065  -5.914   2.804  0.00  0.00    +0.113 C 
BRANCH   7   8
ATOM      8  C   UNL     1       1.061  -5.720   1.786  0.00  0.00    +0.112 C 
BRANCH   8   9
ATOM      9  O   UNL     1       1.989  -4.753   2.281  0.00  0.00    -0.392 OA
ATOM     10  H   UNL     1       1.600  -3.883   2.447  0.00  0.00    +0.210 HD
ENDBRANCH   8   9
BRANCH   8  11
ATOM     11  C   UNL     1       0.471  -5.229   0.462  0.00  0.00    -0.046 C 
BRANCH  11  16
ATOM     12  C   UNL     1       3.886  -5.644  -4.086  0.00  0.00    +0.007 C 
ATOM     13  C   UNL     1       2.712  -5.798  -3.117  0.00  0.00    -0.018 C 
ATOM     14  C   UNL     1       2.114  -4.422  -2.814  0.00  0.00    -0.016 C 
ATOM     15  C   UNL     1       0.993  -4.574  -1.784  0.00  0.00    -0.078 C 
ATOM     16  N   UNL     1       1.534  -5.157  -0.550  0.00  0.00    +0.381 N 
ATOM     17  C   UNL     1       2.044  -6.507  -0.818  0.00  0.00    -0.078 C 
ATOM     18  C   UNL     1       3.206  -6.428  -1.811  0.00  0.00    -0.016 C 
ATOM     19  H   UNL     1       2.284  -4.577  -0.206  0.00  0.00    -0.082 HD
ENDBRANCH  11  16
ENDBRANCH   8  11
ENDBRANCH   7   8
ENDBRANCH   1   7
BRANCH   4  20
ATOM     20  C   UNL     1       1.342  -8.550   7.678  0.00  0.00    +0.148 C 
BRANCH  20  21
ATOM     21  C   UNL     1       1.695 -10.012   7.593  0.00  0.00    -0.019 A 
ATOM     22  C   UNL     1       0.734 -10.971   7.857  0.00  0.00    +0.007 A 
ATOM     23  C   UNL     1       1.057 -12.313   7.779  0.00  0.00    +0.020 A 
ATOM     24  C   UNL     1       2.342 -12.696   7.437  0.00  0.00    +0.041 A 
ATOM     25  C   UNL     1       3.302 -11.736   7.173  0.00  0.00    +0.020 A 
ATOM     26  C   UNL     1       2.977 -10.395   7.245  0.00  0.00    +0.007 A 
ATOM     27 CL   UNL     1       2.748 -14.381   7.340  0.00  0.00    -0.084 Cl
ENDBRANCH  20  21
BRANCH  20  28
ATOM     28  O   UNL     1       0.493  -8.329   8.806  0.00  0.00    -0.387 OA
ATOM     29  H   UNL     1      -0.339  -8.822   8.774  0.00  0.00    +0.210 HD
ENDBRANCH  20  28
ENDBRANCH   4  20
TORSDOF 8
