REMARK  Name = ZINC41583013
REMARK  10 active torsions:
REMARK  status: ('A' for Active; 'I' for Inactive)
REMARK    1  A    between atoms: C_1  and  C_2
REMARK    2  A    between atoms: C_2  and  C_3
REMARK    3  A    between atoms: C_3  and  C_5
REMARK    4  A    between atoms: C_3  and  N_6
REMARK    5  A    between atoms: C_7  and  C_9
REMARK    6  A    between atoms: C_9  and  N_10
REMARK    7  A    between atoms: C_16  and  N_22
REMARK    8  A    between atoms: C_17  and  C_18
REMARK    9  A    between atoms: C_18  and  O_20
REMARK   10  A    between atoms: O_20  and  C_21
REMARK                            x       y       z     vdW  Elec       q    Type
REMARK                         _______ _______ _______ _____ _____    ______ ____
ROOT
ATOM      1  N   UNL     1       4.803   0.553  -3.671  0.00  0.00    +0.389 N 
ATOM      2  C   UNL     1       6.243   0.839  -3.618  0.00  0.00    -0.073 C 
ATOM      3  C   UNL     1       6.875   0.623  -4.998  0.00  0.00    +0.018 C 
ATOM      4  C   UNL     1       6.062   1.414  -6.013  0.00  0.00    -0.025 A 
ATOM      5  C   UNL     1       4.822   1.849  -5.700  0.00  0.00    -0.021 A 
ATOM      6  S   UNL     1       4.269   2.704  -7.145  0.00  0.00    -0.080 S 
ATOM      7  C   UNL     1       5.613   2.499  -8.132  0.00  0.00    +0.077 A 
ATOM      8  C   UNL     1       6.500   1.769  -7.350  0.00  0.00    +0.090 A 
ATOM      9  C   UNL     1       4.110   1.629  -4.402  0.00  0.00    -0.035 C 
ATOM     10  H   UNL     1       4.653  -0.326  -4.144  0.00  0.00    -0.081 HD
ENDROOT
BRANCH   7  11
ATOM     11  N   UNL     1       5.794   2.953  -9.424  0.00  0.00    -0.352 N 
ATOM     12  H   UNL     1       5.091   3.456  -9.864  0.00  0.00    +0.143 HD
ATOM     13  H   UNL     1       6.623   2.767  -9.891  0.00  0.00    +0.143 HD
ENDBRANCH   7  11
BRANCH   8  14
ATOM     14  C   UNL     1       7.816   1.377  -7.853  0.00  0.00    +0.342 C 
ATOM     15  O   UNL     1       7.954   0.317  -8.434  0.00  0.00    -0.245 OA
BRANCH  14  16
ATOM     16  O   UNL     1       8.877   2.190  -7.672  0.00  0.00    -0.464 OA
ATOM     17  C   UNL     1      10.132   1.743  -8.189  0.00  0.00    +0.280 C 
ENDBRANCH  14  16
ENDBRANCH   8  14
BRANCH   1  18
ATOM     18  C   UNL     1       4.271   0.470  -2.304  0.00  0.00    +0.019 C 
BRANCH  18  20
ATOM     19  N   UNL     1       2.125  -0.091  -1.209  0.00  0.00    -0.314 N 
ATOM     20  C   UNL     1       2.824   0.051  -2.353  0.00  0.00    +0.197 C 
ATOM     21  O   UNL     1       2.289  -0.157  -3.421  0.00  0.00    -0.278 OA
ATOM     22  H   UNL     1       2.553   0.075  -0.355  0.00  0.00    +0.149 HD
BRANCH  19  23
ATOM     23  C   UNL     1       0.718  -0.497  -1.257  0.00  0.00    +0.070 C 
ATOM     24  C   UNL     1       0.630  -2.023  -1.329  0.00  0.00    +0.028 C 
BRANCH  23  26
ATOM     25  C   UNL     1      -0.019   1.526   0.010  0.00  0.00    +0.005 C 
ATOM     26  C   UNL     1       0.002  -0.004   0.002  0.00  0.00    +0.018 C 
ENDBRANCH  23  26
ENDBRANCH  19  23
ENDBRANCH  18  20
ENDBRANCH   1  18
TORSDOF 7
