REMARK  Name = ZINC04724980
REMARK  6 active torsions:
REMARK  status: ('A' for Active; 'I' for Inactive)
REMARK    1  A    between atoms: C_4  and  C_7
REMARK    2  A    between atoms: C_10  and  C_13
REMARK    3  A    between atoms: C_14  and  C_24
REMARK    4  A    between atoms: N_16  and  C_18
REMARK    5  A    between atoms: C_24  and  S_25
REMARK    6  A    between atoms: S_25  and  C_26
REMARK                            x       y       z     vdW  Elec       q    Type
REMARK                         _______ _______ _______ _____ _____    ______ ____
ROOT
ATOM      1  C   UNL     1       1.161   3.570   0.010  0.00  0.00    +0.097 A 
ATOM      2  C   UNL     1       2.091   4.407   0.660  0.00  0.00    +0.009 A 
ATOM      3  C   UNL     1       1.728   5.687   0.430  0.00  0.00    +0.119 A 
ATOM      4  N   UNL     1       0.608   5.671  -0.339  0.00  0.00    -0.239 N 
ATOM      5  N   UNL     1       0.275   4.335  -0.593  0.00  0.00    -0.166 NA
ENDROOT
BRANCH   1   9
ATOM      6  C   UNL     1       1.219  -0.685  -0.014  0.00  0.00    -0.018 A 
ATOM      7  C   UNL     1       0.002  -0.004   0.002  0.00  0.00    +0.009 A 
ATOM      8  C   UNL     1      -0.017   1.373   0.010  0.00  0.00    +0.011 A 
ATOM      9  C   UNL     1       1.181   2.087   0.002  0.00  0.00    +0.002 A 
ATOM     10  C   UNL     1       2.398   1.406  -0.013  0.00  0.00    +0.011 A 
ATOM     11  C   UNL     1       2.417   0.029  -0.021  0.00  0.00    +0.009 A 
BRANCH   6  15
ATOM     12  C   UNL     1       1.277  -4.936  -0.036  0.00  0.00    +0.000 A 
ATOM     13  C   UNL     1       2.467  -4.231  -0.045  0.00  0.00    +0.001 A 
ATOM     14  C   UNL     1       2.454  -2.851  -0.038  0.00  0.00    +0.008 A 
ATOM     15  C   UNL     1       1.239  -2.168  -0.022  0.00  0.00    -0.018 A 
ATOM     16  C   UNL     1       0.043  -2.884  -0.008  0.00  0.00    +0.008 A 
ATOM     17  C   UNL     1       0.068  -4.263  -0.021  0.00  0.00    +0.001 A 
ENDBRANCH   6  15
ENDBRANCH   1   9
BRANCH   4  18
ATOM     18  C   UNL     1      -0.090   6.795  -0.800  0.00  0.00    +0.065 A 
ATOM     19  C   UNL     1       0.351   8.071  -0.472  0.00  0.00    +0.028 A 
ATOM     20  C   UNL     1      -0.336   9.177  -0.933  0.00  0.00    +0.002 A 
ATOM     21  C   UNL     1      -1.468   9.015  -1.712  0.00  0.00    +0.000 A 
ATOM     22  C   UNL     1      -1.912   7.746  -2.036  0.00  0.00    +0.002 A 
ATOM     23  C   UNL     1      -1.226   6.636  -1.583  0.00  0.00    +0.028 A 
ENDBRANCH   4  18
BRANCH   2  24
ATOM     24  C   UNL     1       3.279   3.953   1.469  0.00  0.00    +0.116 C 
BRANCH  24  25
ATOM     25  S   UNL     1       4.720   3.792   0.386  0.00  0.00    -0.088 S 
BRANCH  25  26
ATOM     26  C   UNL     1       5.926   3.265   1.558  0.00  0.00    +0.123 C 
ATOM     27  N   UNL     1       5.595   3.113   2.810  0.00  0.00    -0.382 N 
ATOM     28  N   UNL     1       7.216   3.014   1.151  0.00  0.00    -0.340 N 
ATOM     29  H   UNL     1       6.348   2.784   3.542  0.00  0.00    +0.158 HD
ATOM     30  H   UNL     1       7.969   2.686   1.883  0.00  0.00    +0.144 HD
ATOM     31  H   UNL     1       7.495   3.143   0.095  0.00  0.00    +0.144 HD
ATOM     32  H   UNL     1       4.563   3.313   3.135  0.00  0.00    +0.158 HD
ENDBRANCH  25  26
ENDBRANCH  24  25
ENDBRANCH   2  24
TORSDOF 6
