REMARK  Name = ZINC67317202
REMARK  4 active torsions:
REMARK  status: ('A' for Active; 'I' for Inactive)
REMARK    1  A    between atoms: C_1  and  C_2
REMARK    2  A    between atoms: N_4  and  C_21
REMARK    3  A    between atoms: C_8  and  N_9
REMARK    4  A    between atoms: N_9  and  N_10
REMARK                            x       y       z     vdW  Elec       q    Type
REMARK                         _______ _______ _______ _____ _____    ______ ____
ROOT
ATOM      1  C   UNL     1      -0.018   1.503   0.010  0.00  0.00    +0.068 C 
ATOM      2  C   UNL     1       0.002  -0.004   0.002  0.00  0.00    +0.070 C 
ATOM      3  N   UNL     1       0.008  -0.765  -1.049  0.00  0.00    -0.176 NA
ATOM      4  N   UNL     1       0.028  -2.115  -0.698  0.00  0.00    -0.156 N 
ATOM      5  C   UNL     1       0.036  -2.244   0.644  0.00  0.00    +0.273 C 
ATOM      6  O   UNL     1       0.053  -3.285   1.280  0.00  0.00    -0.268 OA
ATOM      7  C   UNL     1       0.025  -0.879   1.184  0.00  0.00    +0.076 C 
ATOM      8  C   UNL     1       0.033  -0.499   2.515  0.00  0.00    +0.102 C 
ENDROOT
BRANCH   4   9
ATOM      9  C   UNL     1       0.039  -3.180  -1.607  0.00  0.00    +0.060 A 
ATOM     10  C   UNL     1       0.053  -4.489  -1.145  0.00  0.00    +0.025 A 
ATOM     11  C   UNL     1       0.063  -5.538  -2.044  0.00  0.00    +0.002 A 
ATOM     12  C   UNL     1       0.059  -5.285  -3.404  0.00  0.00    +0.000 A 
ATOM     13  C   UNL     1       0.046  -3.982  -3.867  0.00  0.00    +0.002 A 
ATOM     14  C   UNL     1       0.030  -2.929  -2.973  0.00  0.00    +0.025 A 
ENDBRANCH   4   9
BRANCH   8  15
ATOM     15  N   UNL     1       0.054  -1.436   3.484  0.00  0.00    -0.272 N 
ATOM     16  H   UNL     1       0.065  -2.377   3.248  0.00  0.00    +0.169 HD
BRANCH  15  17
ATOM     17  N   UNL     1       0.062  -1.051   4.831  0.00  0.00    -0.249 N 
ATOM     18  C   UNL     1       0.085  -2.014   5.826  0.00  0.00    +0.165 A 
ATOM     19  C   UNL     1       0.086  -1.641   7.190  0.00  0.00    +0.027 A 
ATOM     20  C   UNL     1       0.066  -0.307   7.609  0.00  0.00    +0.012 A 
ATOM     21  C   UNL     1       0.069  -0.024   8.943  0.00  0.00    +0.001 A 
ATOM     22  C   UNL     1       0.092  -1.042   9.893  0.00  0.00    +0.001 A 
ATOM     23  C   UNL     1       0.112  -2.353   9.519  0.00  0.00    +0.010 A 
ATOM     24  C   UNL     1       0.110  -2.679   8.157  0.00  0.00    +0.005 A 
ATOM     25  C   UNL     1       0.129  -4.007   7.692  0.00  0.00    +0.143 A 
ATOM     26  N   UNL     1       0.125  -4.231   6.398  0.00  0.00    -0.155 NA
ATOM     27  N   UNL     1       0.099  -3.299   5.519  0.00  0.00    -0.132 NA
ATOM     28  H   UNL     1       0.051  -0.111   5.066  0.00  0.00    +0.171 HD
ENDBRANCH  15  17
ENDBRANCH   8  15
TORSDOF 3
