REMARK  Name = ZINC40457961
REMARK  9 active torsions:
REMARK  status: ('A' for Active; 'I' for Inactive)
REMARK    1  A    between atoms: C_1  and  C_2
REMARK    2  A    between atoms: C_2  and  C_4
REMARK    3  A    between atoms: C_2  and  N_14
REMARK    4  A    between atoms: C_15  and  C_17
REMARK    5  A    between atoms: C_17  and  C_19
REMARK    6  A    between atoms: C_17  and  N_23
REMARK    7  A    between atoms: C_19  and  C_20
REMARK    8  A    between atoms: C_20  and  S_21
REMARK    9  A    between atoms: S_21  and  C_22
REMARK                            x       y       z     vdW  Elec       q    Type
REMARK                         _______ _______ _______ _____ _____    ______ ____
ROOT
ATOM      1  N   UNL     1       0.688  -0.476  -1.203  0.00  0.00    -0.314 N 
ATOM      2  C   UNL     1       0.006  -0.608  -2.358  0.00  0.00    +0.199 C 
ATOM      3  O   UNL     1      -1.175  -0.336  -2.400  0.00  0.00    -0.278 OA
ATOM      4  H   UNL     1       1.632  -0.695  -1.170  0.00  0.00    +0.149 HD
ENDROOT
BRANCH   1   6
ATOM      5  C   UNL     1      -0.019   1.526   0.010  0.00  0.00    +0.028 C 
ATOM      6  C   UNL     1       0.002  -0.004   0.002  0.00  0.00    +0.076 C 
BRANCH   6   7
ATOM      7  C   UNL     1       0.742  -0.511   1.242  0.00  0.00    -0.010 C 
ATOM      8  C   UNL     1       2.178   0.019   1.231  0.00  0.00    +0.012 C 
ATOM      9  C   UNL     1       2.917  -0.488   2.470  0.00  0.00    -0.010 C 
ATOM     10  C   UNL     1       2.201   0.005   3.729  0.00  0.00    +0.007 C 
ATOM     11  C   UNL     1       0.766  -0.524   3.740  0.00  0.00    -0.010 C 
ATOM     12  C   UNL     1       0.026  -0.018   2.500  0.00  0.00    +0.012 C 
ATOM     13  C   UNL     1       0.787  -2.054   3.732  0.00  0.00    +0.007 C 
ATOM     14  C   UNL     1       1.503  -2.548   2.473  0.00  0.00    -0.010 C 
ATOM     15  C   UNL     1       2.938  -2.018   2.462  0.00  0.00    +0.007 C 
ATOM     16  C   UNL     1       0.763  -2.041   1.233  0.00  0.00    +0.012 C 
ENDBRANCH   6   7
ENDBRANCH   1   6
BRANCH   2  17
ATOM     17  C   UNL     1       0.712  -1.094  -3.598  0.00  0.00    +0.013 C 
BRANCH  17  18
ATOM     18  N   UNL     1      -0.278  -1.603  -4.557  0.00  0.00    +0.386 N 
ATOM     19  H   UNL     1       0.194  -1.929  -5.387  0.00  0.00    -0.089 HD
ATOM     20  H   UNL     1      -0.789  -2.367  -4.139  0.00  0.00    -0.089 HD
ATOM     21  H   UNL     1      -0.920  -0.865  -4.803  0.00  0.00    -0.089 HD
ENDBRANCH  17  18
BRANCH  17  22
ATOM     22  C   UNL     1       1.486   0.064  -4.232  0.00  0.00    +0.003 C 
BRANCH  22  23
ATOM     23  C   UNL     1       2.301  -0.456  -5.417  0.00  0.00    +0.068 C 
BRANCH  23  24
ATOM     24  S   UNL     1       3.219   0.916  -6.168  0.00  0.00    -0.164 S 
ATOM     25  C   UNL     1       4.121   0.143  -7.539  0.00  0.00    +0.084 C 
ENDBRANCH  23  24
ENDBRANCH  22  23
ENDBRANCH  17  22
ENDBRANCH   2  17
TORSDOF 7
