REMARK  Name = ZINC63142116
REMARK  5 active torsions:
REMARK  status: ('A' for Active; 'I' for Inactive)
REMARK    1  A    between atoms: C_1  and  O_2
REMARK    2  A    between atoms: O_2  and  C_3
REMARK    3  A    between atoms: C_3  and  C_5
REMARK    4  A    between atoms: C_8  and  C_11
REMARK    5  A    between atoms: N_30  and  C_33
REMARK                            x       y       z     vdW  Elec       q    Type
REMARK                         _______ _______ _______ _____ _____    ______ ____
ROOT
ATOM      1  C   UNL     1       0.851  -6.357   1.260  0.00  0.00    +0.133 C 
ATOM      2  C   UNL     1       2.183  -6.847   0.685  0.00  0.00    +0.131 C 
ATOM      3  C   UNL     1       2.290  -8.328   1.023  0.00  0.00    -0.034 C 
ATOM      4  C   UNL     1       2.476  -8.963  -0.128  0.00  0.00    -0.001 A 
ATOM      5  C   UNL     1       2.718 -10.382  -0.436  0.00  0.00    +0.010 A 
ATOM      6  C   UNL     1       2.854 -10.695  -1.751  0.00  0.00    +0.001 A 
ATOM      7  C   UNL     1       2.775  -9.750  -2.779  0.00  0.00    +0.002 A 
ATOM      8  C   UNL     1       2.561  -8.424  -2.587  0.00  0.00    +0.026 A 
ATOM      9  C   UNL     1       2.406  -7.972  -1.244  0.00  0.00    +0.043 A 
ATOM     10  N   UNL     1       2.216  -6.753  -0.775  0.00  0.00    -0.375 N 
ATOM     11  C   UNL     1       2.114  -8.851   2.428  0.00  0.00    +0.065 C 
ATOM     12  C   UNL     1       0.810  -8.235   2.966  0.00  0.00    +0.167 C 
ATOM     13  N   UNL     1       0.775  -6.807   2.668  0.00  0.00    -0.279 N 
ATOM     14  C   UNL     1       0.680  -5.872   3.620  0.00  0.00    +0.234 C 
ATOM     15  O   UNL     1       0.681  -4.710   3.271  0.00  0.00    -0.274 OA
ATOM     16  C   UNL     1       0.574  -6.157   5.082  0.00  0.00    +0.204 C 
ATOM     17  N   UNL     1       0.577  -7.582   5.366  0.00  0.00    -0.288 N 
ATOM     18  C   UNL     1       0.685  -8.520   4.427  0.00  0.00    +0.237 C 
ATOM     19  O   UNL     1       0.676  -9.681   4.780  0.00  0.00    -0.274 OA
ATOM     20  H   UNL     1       2.111  -5.940  -1.294  0.00  0.00    +0.160 HD
ENDROOT
BRANCH  17  21
ATOM     21  C   UNL     1       0.458  -8.010   6.762  0.00  0.00    +0.077 C 
ATOM     22  C   UNL     1      -0.860  -7.494   7.343  0.00  0.00    +0.022 C 
ATOM     23  C   UNL     1      -1.178  -8.250   8.635  0.00  0.00    +0.002 C 
ATOM     24  C   UNL     1      -0.914  -9.743   8.431  0.00  0.00    +0.000 C 
ATOM     25  C   UNL     1       0.269 -10.175   9.299  0.00  0.00    +0.000 C 
ATOM     26  C   UNL     1       1.573  -9.693   8.658  0.00  0.00    +0.000 C 
ATOM     27  C   UNL     1       1.736  -8.192   8.901  0.00  0.00    +0.002 C 
ATOM     28  C   UNL     1       1.627  -7.445   7.570  0.00  0.00    +0.022 C 
ENDBRANCH  17  21
BRANCH   1  32
ATOM     29  C   UNL     1       0.680  -2.088   1.091  0.00  0.00    +0.059 A 
ATOM     30  C   UNL     1      -0.487  -2.843   0.951  0.00  0.00    +0.015 A 
ATOM     31  C   UNL     1      -0.424  -4.220   1.007  0.00  0.00    +0.006 A 
ATOM     32  C   UNL     1       0.791  -4.853   1.200  0.00  0.00    -0.025 A 
ATOM     33  C   UNL     1       1.950  -4.111   1.340  0.00  0.00    +0.006 A 
ATOM     34  C   UNL     1       1.903  -2.734   1.280  0.00  0.00    +0.015 A 
BRANCH  29  35
ATOM     35  C   UNL     1       0.620  -0.613   1.032  0.00  0.00    +0.339 C 
ATOM     36  O   UNL     1       1.637   0.041   1.149  0.00  0.00    -0.245 OA
BRANCH  35  38
ATOM     37  C   UNL     1      -0.545   1.435   0.803  0.00  0.00    +0.280 C 
ATOM     38  O   UNL     1      -0.561   0.007   0.849  0.00  0.00    -0.464 OA
ENDBRANCH  35  38
ENDBRANCH  29  35
ENDBRANCH   1  32
TORSDOF 4
