REMARK  Name = ZINC13040522
REMARK  8 active torsions:
REMARK  status: ('A' for Active; 'I' for Inactive)
REMARK    1  A    between atoms: C_1  and  C_2
REMARK    2  A    between atoms: C_2  and  C_3
REMARK    3  A    between atoms: C_3  and  C_4
REMARK    4  A    between atoms: C_4  and  N_5
REMARK    5  A    between atoms: C_6  and  N_35
REMARK    6  A    between atoms: C_7  and  N_14
REMARK    7  A    between atoms: N_14  and  C_15
REMARK    8  A    between atoms: C_16  and  C_18
REMARK                            x       y       z     vdW  Elec       q    Type
REMARK                         _______ _______ _______ _____ _____    ______ ____
ROOT
ATOM      1  N   UNL     1       4.466   9.646  -1.991  0.00  0.00    -0.263 N 
ATOM      2  C   UNL     1       5.693   8.846  -2.015  0.00  0.00    +0.139 C 
ATOM      3  C   UNL     1       3.307   9.089  -1.588  0.00  0.00    +0.251 C 
ATOM      4  O   UNL     1       3.296   7.954  -1.153  0.00  0.00    -0.270 OA
ENDROOT
BRANCH   3   5
ATOM      5  C   UNL     1       2.046   9.860  -1.675  0.00  0.00    +0.039 A 
ATOM      6  C   UNL     1       1.944  10.938  -2.556  0.00  0.00    +0.014 A 
ATOM      7  C   UNL     1       0.771  11.652  -2.637  0.00  0.00    +0.014 A 
ATOM      8  C   UNL     1      -0.326  11.304  -1.837  0.00  0.00    +0.048 A 
ATOM      9  C   UNL     1      -0.219  10.228  -0.957  0.00  0.00    +0.105 A 
ATOM     10  C   UNL     1       0.956   9.511  -0.876  0.00  0.00    +0.041 A 
ATOM     11  S   UNL     1      -1.583   9.775   0.062  0.00  0.00    +0.026 S 
ATOM     12  O   UNL     1      -2.246   8.706  -0.599  0.00  0.00    -0.164 OA
ATOM     13  O   UNL     1      -1.081   9.657   1.386  0.00  0.00    -0.164 OA
ATOM     14  C   UNL     1      -2.701  11.136   0.067  0.00  0.00    +0.104 A 
ATOM     15  C   UNL     1      -3.683  11.210   1.034  0.00  0.00    +0.028 A 
ATOM     16  C   UNL     1      -4.563  12.277   1.055  0.00  0.00    +0.002 A 
ATOM     17  C   UNL     1      -4.470  13.272   0.096  0.00  0.00    +0.001 A 
ATOM     18  C   UNL     1      -3.496  13.209  -0.875  0.00  0.00    +0.013 A 
ATOM     19  C   UNL     1      -2.597  12.135  -0.901  0.00  0.00    +0.047 A 
ATOM     20  C   UNL     1      -1.567  12.088  -1.948  0.00  0.00    +0.197 C 
ATOM     21  O   UNL     1      -1.751  12.731  -2.963  0.00  0.00    -0.287 OA
ENDBRANCH   3   5
BRANCH   1  24
ATOM     22  N   UNL     1       4.977  12.678  -4.000  0.00  0.00    -0.280 N 
ATOM     23  C   UNL     1       4.962  11.351  -3.639  0.00  0.00    +0.127 A 
ATOM     24  C   UNL     1       4.498  10.998  -2.388  0.00  0.00    +0.140 A 
ATOM     25  C   UNL     1       4.062  12.012  -1.514  0.00  0.00    +0.277 A 
ATOM     26  O   UNL     1       3.651  11.728  -0.402  0.00  0.00    -0.266 OA
ATOM     27  N   UNL     1       4.103  13.297  -1.915  0.00  0.00    -0.273 N 
ATOM     28  H   UNL     1       3.793  14.018  -1.296  0.00  0.00    +0.173 HD
ATOM     29  C   UNL     1       4.554  13.622  -3.140  0.00  0.00    +0.331 A 
ATOM     30  O   UNL     1       4.579  14.790  -3.476  0.00  0.00    -0.246 OA
BRANCH  23  31
ATOM     31  N   UNL     1       5.400  10.387  -4.516  0.00  0.00    -0.343 N 
ATOM     32  H   UNL     1       5.243   9.449  -4.324  0.00  0.00    +0.144 HD
ATOM     33  H   UNL     1       5.866  10.645  -5.327  0.00  0.00    +0.144 HD
ENDBRANCH  23  31
BRANCH  22  34
ATOM     34  C   UNL     1       5.462  13.066  -5.327  0.00  0.00    +0.128 C 
BRANCH  34  35
ATOM     35  C   UNL     1       6.969  13.323  -5.264  0.00  0.00    +0.021 C 
BRANCH  35  37
ATOM     36  C   UNL     1       8.982  13.986  -6.586  0.00  0.00    +0.004 C 
ATOM     37  C   UNL     1       7.475  13.729  -6.649  0.00  0.00    -0.002 C 
ENDBRANCH  35  37
ENDBRANCH  34  35
ENDBRANCH  22  34
ENDBRANCH   1  24
TORSDOF 6
