REMARK  Name = ZINC16852120
REMARK  9 active torsions:
REMARK  status: ('A' for Active; 'I' for Inactive)
REMARK    1  A    between atoms: C_1  and  C_2
REMARK    2  A    between atoms: C_2  and  C_3
REMARK    3  A    between atoms: C_3  and  C_4
REMARK    4  A    between atoms: C_4  and  N_50
REMARK    5  A    between atoms: C_5  and  C_7
REMARK    6  A    between atoms: C_5  and  C_24
REMARK    7  A    between atoms: C_5  and  N_50
REMARK    8  A    between atoms: C_9  and  C_17
REMARK    9  A    between atoms: C_17  and  C_18
REMARK                            x       y       z     vdW  Elec       q    Type
REMARK                         _______ _______ _______ _____ _____    ______ ____
ROOT
ATOM      1  C   UNL     1      -1.819   2.743  -0.737  0.00  0.00    -0.049 C 
ATOM      2  C   UNL     1      -0.787   2.045  -1.183  0.00  0.00    -0.016 C 
ATOM      3  C   UNL     1      -0.019   1.526   0.010  0.00  0.00    +0.047 C 
ATOM      4  C   UNL     1      -0.763   2.031   1.222  0.00  0.00    -0.033 A 
ATOM      5  C   UNL     1      -1.848   2.765   0.737  0.00  0.00    -0.020 A 
ATOM      6  C   UNL     1      -2.728   3.360   1.645  0.00  0.00    +0.008 A 
ATOM      7  C   UNL     1      -2.516   3.219   3.001  0.00  0.00    +0.001 A 
ATOM      8  C   UNL     1      -1.438   2.490   3.468  0.00  0.00    +0.000 A 
ATOM      9  C   UNL     1      -0.561   1.896   2.575  0.00  0.00    +0.005 A 
ENDROOT
BRANCH   1  10
ATOM     10  C   UNL     1      -2.831   3.426  -1.620  0.00  0.00    +0.047 C 
BRANCH  10  11
ATOM     11  C   UNL     1      -4.181   2.785  -1.426  0.00  0.00    +0.201 C 
ATOM     12  O   UNL     1      -5.117   3.448  -1.031  0.00  0.00    -0.277 OA
ATOM     13  N   UNL     1      -4.349   1.474  -1.692  0.00  0.00    -0.330 N 
ATOM     14  H   UNL     1      -3.601   0.944  -2.008  0.00  0.00    +0.145 HD
ATOM     15  H   UNL     1      -5.218   1.062  -1.567  0.00  0.00    +0.145 HD
ENDBRANCH  10  11
BRANCH  10  16
ATOM     16  N   UNL     1      -2.907   4.853  -1.255  0.00  0.00    +0.389 N 
ATOM     17  H   UNL     1      -3.558   4.968  -0.469  0.00  0.00    -0.084 HD
ATOM     18  H   UNL     1      -1.975   5.182  -0.978  0.00  0.00    -0.084 HD
BRANCH  16  19
ATOM     19  C   UNL     1      -3.383   5.650  -2.402  0.00  0.00    -0.081 C 
BRANCH  19  20
ATOM     20  C   UNL     1      -3.451   7.123  -1.994  0.00  0.00    -0.019 C 
BRANCH  20  22
ATOM     21  C   UNL     1      -4.013   9.431  -2.771  0.00  0.00    +0.004 C 
ATOM     22  C   UNL     1      -3.945   7.957  -3.178  0.00  0.00    -0.005 C 
ENDBRANCH  20  22
ENDBRANCH  19  20
ENDBRANCH  16  19
ENDBRANCH  10  16
ENDBRANCH   1  10
BRANCH   3  23
ATOM     23  C   UNL     1       0.002  -0.004   0.002  0.00  0.00    +0.047 C 
BRANCH  23  24
ATOM     24  C   UNL     1       0.827  -0.489  -1.162  0.00  0.00    -0.046 A 
ATOM     25  C   UNL     1       0.225  -0.726  -2.384  0.00  0.00    +0.003 A 
ATOM     26  C   UNL     1       0.983  -1.166  -3.454  0.00  0.00    +0.000 A 
ATOM     27  C   UNL     1       2.340  -1.379  -3.298  0.00  0.00    +0.000 A 
ATOM     28  C   UNL     1       2.940  -1.147  -2.075  0.00  0.00    +0.000 A 
ATOM     29  C   UNL     1       2.184  -0.702  -1.007  0.00  0.00    +0.003 A 
ENDBRANCH  23  24
ENDBRANCH   3  23
TORSDOF 8
