REMARK  Name = ZINC51048942
REMARK  8 active torsions:
REMARK  status: ('A' for Active; 'I' for Inactive)
REMARK    1  A    between atoms: C_1  and  N_2
REMARK    2  A    between atoms: C_3  and  N_27
REMARK    3  A    between atoms: C_4  and  C_11
REMARK    4  A    between atoms: N_7  and  C_10
REMARK    5  A    between atoms: C_11  and  C_13
REMARK    6  A    between atoms: C_13  and  N_14
REMARK    7  A    between atoms: C_18  and  C_21
REMARK    8  A    between atoms: N_23  and  C_24
REMARK                            x       y       z     vdW  Elec       q    Type
REMARK                         _______ _______ _______ _____ _____    ______ ____
ROOT
ATOM      1  C   UNL     1      -2.480  -2.605   0.022  0.00  0.00    +0.155 C 
ATOM      2  O   UNL     1      -3.493  -1.938  -0.055  0.00  0.00    -0.294 OA
ENDROOT
BRANCH   1   6
ATOM      3  C   UNL     1       0.265   1.450   0.033  0.00  0.00    +0.155 C 
ATOM      4  N   UNL     1       0.138  -0.010   0.013  0.00  0.00    -0.284 N 
ATOM      5  C   UNL     1      -1.106  -0.574   0.028  0.00  0.00    +0.116 A 
ATOM      6  C   UNL     1      -1.218  -1.975   0.008  0.00  0.00    +0.118 A 
ATOM      7  C   UNL     1       0.022  -2.762  -0.028  0.00  0.00    +0.269 A 
ATOM      8  O   UNL     1      -0.015  -3.978  -0.047  0.00  0.00    -0.267 OA
ATOM      9  N   UNL     1       1.202  -2.108  -0.040  0.00  0.00    -0.263 N 
ATOM     10  C   UNL     1       1.246  -0.766  -0.025  0.00  0.00    +0.333 A 
ATOM     11  O   UNL     1       2.330  -0.216  -0.042  0.00  0.00    -0.246 OA
ATOM     12  C   UNL     1       2.451  -2.872  -0.076  0.00  0.00    +0.157 C 
BRANCH   5  13
ATOM     13  N   UNL     1      -2.219   0.208   0.062  0.00  0.00    -0.344 N 
ATOM     14  H   UNL     1      -2.134   1.170   0.156  0.00  0.00    +0.144 HD
ATOM     15  H   UNL     1      -3.098  -0.196  -0.009  0.00  0.00    +0.144 HD
ENDBRANCH   5  13
ENDBRANCH   1   6
BRANCH   1  16
ATOM     16  C   UNL     1      -2.572  -4.105   0.134  0.00  0.00    +0.002 C 
BRANCH  16  17
ATOM     17  N   UNL     1      -3.984  -4.511   0.128  0.00  0.00    +0.385 N 
ATOM     18  C   UNL     1      -4.649  -3.982   1.325  0.00  0.00    -0.078 C 
ATOM     19  C   UNL     1      -6.138  -4.333   1.283  0.00  0.00    -0.018 C 
ATOM     20  C   UNL     1      -6.297  -5.855   1.239  0.00  0.00    +0.009 C 
ATOM     21  C   UNL     1      -5.537  -6.403   0.027  0.00  0.00    +0.058 C 
ATOM     22  C   UNL     1      -4.071  -5.976   0.116  0.00  0.00    -0.066 C 
ATOM     23  H   UNL     1      -4.435  -4.141  -0.696  0.00  0.00    -0.081 HD
BRANCH  21  24
ATOM     24  C   UNL     1      -5.624  -7.908   0.017  0.00  0.00    +0.215 C 
ATOM     25  O   UNL     1      -4.612  -8.574   0.072  0.00  0.00    -0.276 OA
ATOM     26  N   UNL     1      -6.827  -8.513  -0.052  0.00  0.00    -0.312 N 
ATOM     27  H   UNL     1      -7.636  -7.980  -0.096  0.00  0.00    +0.149 HD
BRANCH  26  28
ATOM     28  C   UNL     1      -6.911  -9.975  -0.062  0.00  0.00    +0.073 C 
ATOM     29  C   UNL     1      -7.879 -10.620  -1.056  0.00  0.00    +0.024 C 
ATOM     30  C   UNL     1      -8.210 -10.611   0.438  0.00  0.00    +0.024 C 
ENDBRANCH  26  28
ENDBRANCH  21  24
ENDBRANCH  16  17
ENDBRANCH   1  16
TORSDOF 6
