REMARK  Name = ZINC13209507
REMARK  9 active torsions:
REMARK  status: ('A' for Active; 'I' for Inactive)
REMARK    1  A    between atoms: C_1  and  C_2
REMARK    2  A    between atoms: C_5  and  C_8
REMARK    3  A    between atoms: C_11  and  S_17
REMARK    4  A    between atoms: N_12  and  C_13
REMARK    5  A    between atoms: C_13  and  C_14
REMARK    6  A    between atoms: S_17  and  C_18
REMARK    7  A    between atoms: C_18  and  C_19
REMARK    8  A    between atoms: N_21  and  C_22
REMARK    9  A    between atoms: N_21  and  C_30
REMARK                            x       y       z     vdW  Elec       q    Type
REMARK                         _______ _______ _______ _____ _____    ______ ____
ROOT
ATOM      1  S   UNL     1       0.740  -7.559   1.280  0.00  0.00    -0.077 S 
ENDROOT
BRANCH   1   5
ATOM      2  C   UNL     1       0.083  -3.962  -0.097  0.00  0.00    +0.165 A 
ATOM      3  N   UNL     1      -0.261  -4.725  -1.109  0.00  0.00    -0.128 NA
ATOM      4  N   UNL     1      -0.096  -5.962  -0.801  0.00  0.00    -0.122 NA
ATOM      5  C   UNL     1       0.363  -6.064   0.427  0.00  0.00    +0.193 A 
ATOM      6  N   UNL     1       0.498  -4.796   0.915  0.00  0.00    -0.291 N 
BRANCH   2  11
ATOM      7  C   UNL     1      -0.090   1.788   0.063  0.00  0.00    +0.044 C 
ATOM      8  C   UNL     1      -0.044   0.282   0.021  0.00  0.00    -0.050 A 
ATOM      9  C   UNL     1      -0.037  -0.373  -1.198  0.00  0.00    +0.004 A 
ATOM     10  C   UNL     1       0.005  -1.751  -1.243  0.00  0.00    +0.012 A 
ATOM     11  C   UNL     1       0.039  -2.485  -0.056  0.00  0.00    +0.019 A 
ATOM     12  C   UNL     1       0.032  -1.817   1.170  0.00  0.00    +0.012 A 
ATOM     13  C   UNL     1      -0.005  -0.439   1.201  0.00  0.00    +0.004 A 
ENDBRANCH   2  11
BRANCH   6  14
ATOM     14  C   UNL     1       0.982  -4.405   2.242  0.00  0.00    +0.250 C 
BRANCH  14  15
ATOM     15  C   UNL     1      -0.170  -4.397   3.214  0.00  0.00    +0.375 C 
ATOM     16  O   UNL     1      -1.291  -4.690   2.834  0.00  0.00    -0.244 OA
ATOM     17  O   UNL     1       0.019  -4.097   4.380  0.00  0.00    -0.244 OA
ENDBRANCH  14  15
ENDBRANCH   6  14
ENDBRANCH   1   5
BRANCH   1  18
ATOM     18  C   UNL     1       0.348  -8.861   0.079  0.00  0.00    +0.173 C 
BRANCH  18  19
ATOM     19  C   UNL     1       0.629 -10.209   0.691  0.00  0.00    +0.226 C 
ATOM     20  O   UNL     1       0.964 -10.290   1.853  0.00  0.00    -0.275 OA
ATOM     21  N   UNL     1       0.507 -11.325  -0.055  0.00  0.00    -0.293 N 
BRANCH  21  22
ATOM     22  C   UNL     1       0.894 -12.624   0.503  0.00  0.00    +0.099 C 
ATOM     23  C   UNL     1       2.379 -12.588   0.898  0.00  0.00    +0.046 C 
ATOM     24  C   UNL     1       2.681 -13.845   1.762  0.00  0.00    +0.168 C 
ATOM     25  S   UNL     1       1.164 -13.910   2.805  0.00  0.00    -0.029 S 
ATOM     26  O   UNL     1       1.402 -13.197   4.012  0.00  0.00    -0.174 OA
ATOM     27  O   UNL     1       0.701 -15.252   2.865  0.00  0.00    -0.174 OA
ATOM     28  C   UNL     1       0.025 -12.928   1.747  0.00  0.00    +0.188 C 
ENDBRANCH  21  22
BRANCH  21  29
ATOM     29  C   UNL     1      -0.012 -11.240  -1.422  0.00  0.00    +0.076 C 
ATOM     30  C   UNL     1      -1.319 -12.051  -1.543  0.00  0.00    +0.022 C 
ATOM     31  C   UNL     1      -1.245 -12.683  -2.955  0.00  0.00    +0.002 C 
ATOM     32  C   UNL     1       0.255 -13.043  -3.090  0.00  0.00    +0.002 C 
ATOM     33  C   UNL     1       0.989 -11.872  -2.406  0.00  0.00    +0.022 C 
ENDBRANCH  21  29
ENDBRANCH  18  19
ENDBRANCH   1  18
TORSDOF 8
