REMARK  Name = ZINC14973248
REMARK  9 active torsions:
REMARK  status: ('A' for Active; 'I' for Inactive)
REMARK    1  A    between atoms: C_1  and  C_2
REMARK    2  A    between atoms: C_2  and  C_3
REMARK    3  A    between atoms: C_2  and  N_4
REMARK    4  A    between atoms: C_5  and  C_7
REMARK    5  A    between atoms: C_10  and  S_21
REMARK    6  A    between atoms: C_13  and  C_14
REMARK    7  A    between atoms: C_13  and  N_52
REMARK    8  A    between atoms: C_19  and  O_20
REMARK    9  A    between atoms: S_21  and  C_22
REMARK                            x       y       z     vdW  Elec       q    Type
REMARK                         _______ _______ _______ _____ _____    ______ ____
ROOT
ATOM      1  C   UNL     1       2.968   3.084   1.908  0.00  0.00    +0.021 C 
ATOM      2  C   UNL     1       3.085   2.784   3.414  0.00  0.00    +0.006 C 
ATOM      3  C   UNL     1       4.441   2.059   3.577  0.00  0.00    +0.034 C 
ATOM      4  C   UNL     1       4.709   1.504   2.155  0.00  0.00    -0.063 C 
ATOM      5  N   UNL     1       4.202   2.580   1.296  0.00  0.00    +0.391 N 
ATOM      6  H   UNL     1       4.896   3.335   1.241  0.00  0.00    -0.080 HD
ENDROOT
BRANCH   1   8
ATOM      7  N   UNL     1       1.785   5.238   2.189  0.00  0.00    -0.314 N 
ATOM      8  C   UNL     1       2.843   4.570   1.689  0.00  0.00    +0.200 C 
ATOM      9  O   UNL     1       3.694   5.164   1.061  0.00  0.00    -0.278 OA
ATOM     10  H   UNL     1       1.104   4.763   2.691  0.00  0.00    +0.149 HD
BRANCH   7  12
ATOM     11  C   UNL     1       0.190   7.088   2.057  0.00  0.00    +0.027 C 
ATOM     12  C   UNL     1       1.663   6.683   1.976  0.00  0.00    +0.067 C 
ATOM     13  C   UNL     1       2.457   7.426   3.052  0.00  0.00    +0.027 C 
ENDBRANCH   7  12
ENDBRANCH   1   8
BRANCH   5  14
ATOM     14  C   UNL     1       3.926   2.068  -0.080  0.00  0.00    -0.038 C 
BRANCH  14  15
ATOM     15  C   UNL     1       3.325   3.164  -0.922  0.00  0.00    -0.022 A 
ATOM     16  C   UNL     1       1.960   3.205  -1.131  0.00  0.00    +0.005 A 
ATOM     17  C   UNL     1       1.408   4.210  -1.903  0.00  0.00    +0.000 A 
ATOM     18  C   UNL     1       2.220   5.177  -2.467  0.00  0.00    +0.004 A 
ATOM     19  C   UNL     1       3.585   5.140  -2.261  0.00  0.00    +0.045 A 
ATOM     20  C   UNL     1       4.142   4.133  -1.486  0.00  0.00    +0.118 A 
BRANCH  20  21
ATOM     21  O   UNL     1       5.485   4.094  -1.282  0.00  0.00    -0.507 OA
ATOM     22  H   UNL     1       5.770   4.521  -0.463  0.00  0.00    +0.292 HD
ENDBRANCH  20  21
ENDBRANCH  14  15
ENDBRANCH   5  14
BRANCH   3  23
ATOM     23  S   UNL     1       4.305   0.707   4.779  0.00  0.00    -0.124 S 
BRANCH  23  24
ATOM     24  C   UNL     1       4.196   1.528   6.334  0.00  0.00    +0.008 A 
ATOM     25  C   UNL     1       4.351   2.907   6.405  0.00  0.00    +0.017 A 
ATOM     26  C   UNL     1       4.259   3.550   7.624  0.00  0.00    +0.039 A 
ATOM     27  C   UNL     1       4.024   2.819   8.777  0.00  0.00    +0.123 A 
ATOM     28  C   UNL     1       3.874   1.444   8.709  0.00  0.00    +0.039 A 
ATOM     29  C   UNL     1       3.960   0.798   7.492  0.00  0.00    +0.017 A 
ATOM     30  F   UNL     1       3.940   3.449   9.969  0.00  0.00    -0.205 F 
ENDBRANCH  23  24
ENDBRANCH   3  23
TORSDOF 7
