REMARK  Name = ZINC40661792
REMARK  6 active torsions:
REMARK  status: ('A' for Active; 'I' for Inactive)
REMARK    1  A    between atoms: C_1  and  C_2
REMARK    2  A    between atoms: C_2  and  N_3
REMARK    3  A    between atoms: N_3  and  C_4
REMARK    4  A    between atoms: C_8  and  C_10
REMARK    5  A    between atoms: C_12  and  N_27
REMARK    6  A    between atoms: C_13  and  N_17
REMARK                            x       y       z     vdW  Elec       q    Type
REMARK                         _______ _______ _______ _____ _____    ______ ____
ROOT
ATOM      1  N   UNL     1      -1.369  -0.506   0.014  0.00  0.00    -0.285 N 
ATOM      2  C   UNL     1      -1.926  -0.720   1.269  0.00  0.00    +0.129 A 
ATOM      3  C   UNL     1      -1.212  -0.400   2.426  0.00  0.00    +0.104 A 
ATOM      4  C   UNL     1      -1.818  -0.635   3.661  0.00  0.00    +0.150 A 
ATOM      5  N   UNL     1      -3.045  -1.150   3.689  0.00  0.00    -0.221 NA
ATOM      6  C   UNL     1      -3.684  -1.438   2.574  0.00  0.00    +0.200 A 
ATOM      7  N   UNL     1      -3.150  -1.227   1.388  0.00  0.00    -0.332 N 
ATOM      8  H   UNL     1      -3.655  -1.449   0.590  0.00  0.00    +0.168 HD
ENDROOT
BRANCH   4   9
ATOM      9  N   UNL     1      -1.151  -0.335   4.845  0.00  0.00    -0.277 N 
ATOM     10  C   UNL     1      -1.761  -0.571   6.062  0.00  0.00    +0.165 A 
ATOM     11  N   UNL     1      -2.951  -1.073   6.303  0.00  0.00    -0.225 NA
ATOM     12  C   UNL     1      -3.423  -1.250   7.556  0.00  0.00    +0.080 A 
ATOM     13  C   UNL     1      -4.676  -1.776   7.950  0.00  0.00    +0.029 A 
ATOM     14  C   UNL     1      -5.001  -1.888   9.277  0.00  0.00    +0.002 A 
ATOM     15  C   UNL     1      -4.122  -1.494  10.275  0.00  0.00    +0.001 A 
ATOM     16  C   UNL     1      -2.888  -0.976   9.925  0.00  0.00    +0.017 A 
ATOM     17  C   UNL     1      -2.554  -0.860   8.599  0.00  0.00    +0.041 A 
ATOM     18  S   UNL     1      -1.131  -0.279   7.708  0.00  0.00    -0.052 S 
ATOM     19  H   UNL     1      -0.257   0.041   4.816  0.00  0.00    +0.156 HD
ENDBRANCH   4   9
BRANCH   1  20
ATOM     20  C   UNL     1      -0.711  -1.548  -0.646  0.00  0.00    +0.035 A 
ATOM     21  C   UNL     1      -0.706  -2.825  -0.098  0.00  0.00    +0.023 A 
ATOM     22  C   UNL     1      -0.055  -3.852  -0.753  0.00  0.00    +0.002 A 
ATOM     23  C   UNL     1       0.591  -3.611  -1.951  0.00  0.00    +0.003 A 
ATOM     24  C   UNL     1       0.588  -2.341  -2.499  0.00  0.00    -0.049 A 
ATOM     25  C   UNL     1      -0.065  -1.310  -1.852  0.00  0.00    +0.026 A 
ATOM     26  C   UNL     1       1.294  -2.083  -3.805  0.00  0.00    +0.044 C 
ENDBRANCH   1  20
BRANCH   3  27
ATOM     27  N   UNL     1       0.081   0.142   2.349  0.00  0.00    -0.353 N 
ATOM     28  H   UNL     1       0.519   0.231   1.488  0.00  0.00    +0.143 HD
ATOM     29  H   UNL     1       0.536   0.427   3.157  0.00  0.00    +0.143 HD
ENDBRANCH   3  27
BRANCH   1  31
ATOM     30  C   UNL     1      -2.674   0.833  -1.563  0.00  0.00    +0.025 C 
ATOM     31  C   UNL     1      -1.471   0.812  -0.618  0.00  0.00    +0.109 C 
ENDBRANCH   1  31
TORSDOF 4
