REMARK  Name = ZINC67341797
REMARK  1 active torsions:
REMARK  status: ('A' for Active; 'I' for Inactive)
REMARK    1  A    between atoms: C_1  and  C_2
REMARK                            x       y       z     vdW  Elec       q    Type
REMARK                         _______ _______ _______ _____ _____    ______ ____
ROOT
ATOM      1  C   UNL     1      -0.018   1.503   0.010  0.00  0.00    +0.044 C 
ATOM      2  C   UNL     1       0.002  -0.004   0.002  0.00  0.00    -0.050 A 
ATOM      3  C   UNL     1       0.006  -0.687  -1.206  0.00  0.00    +0.005 A 
ATOM      4  C   UNL     1       0.024  -2.063  -1.234  0.00  0.00    +0.026 A 
ATOM      5  C   UNL     1       0.038  -2.782  -0.041  0.00  0.00    +0.049 A 
ATOM      6  C   UNL     1       0.035  -2.084   1.180  0.00  0.00    +0.026 A 
ATOM      7  C   UNL     1       0.023  -0.689   1.184  0.00  0.00    +0.015 A 
ATOM      8  C   UNL     1       0.053  -3.100   2.240  0.00  0.00    +0.104 A 
ATOM      9  C   UNL     1       0.070  -4.341   1.605  0.00  0.00    +0.131 A 
ATOM     10  N   UNL     1       0.057  -4.132   0.233  0.00  0.00    -0.349 N 
ATOM     11  H   UNL     1       0.060  -4.835  -0.436  0.00  0.00    +0.166 HD
ATOM     12  C   UNL     1       0.102  -5.504   2.394  0.00  0.00    +0.279 A 
ATOM     13  O   UNL     1       0.089  -6.602   1.863  0.00  0.00    -0.265 OA
ATOM     14  N   UNL     1       0.147  -5.402   3.756  0.00  0.00    -0.280 N 
ATOM     15  C   UNL     1       0.074  -4.147   4.299  0.00  0.00    +0.173 A 
ATOM     16  N   UNL     1       0.049  -3.053   3.580  0.00  0.00    -0.221 NA
ATOM     17  S   UNL     1      -0.003  -4.375   6.067  0.00  0.00    -0.080 S 
ATOM     18  C   UNL     1      -0.304  -6.190   6.073  0.00  0.00    +0.100 C 
ATOM     19  C   UNL     1       0.283  -6.535   4.689  0.00  0.00    +0.128 C 
ATOM     20  C   UNL     1       1.802  -6.849   4.814  0.00  0.00    +0.192 C 
ATOM     21  S   UNL     1       1.824  -7.737   6.430  0.00  0.00    -0.028 S 
ATOM     22  O   UNL     1       1.436  -9.088   6.227  0.00  0.00    -0.174 OA
ATOM     23  O   UNL     1       3.041  -7.449   7.105  0.00  0.00    -0.174 OA
ATOM     24  C   UNL     1       0.428  -6.825   7.262  0.00  0.00    +0.182 C 
ENDROOT
TORSDOF 0
