REMARK  Name = ZINC39630656
REMARK  12 active torsions:
REMARK  status: ('A' for Active; 'I' for Inactive)
REMARK    1  A    between atoms: C_1  and  C_2
REMARK    2  A    between atoms: C_2  and  C_3
REMARK    3  A    between atoms: C_6  and  C_9
REMARK    4  A    between atoms: C_13  and  C_22
REMARK    5  A    between atoms: N_24  and  C_25
REMARK    6  A    between atoms: C_25  and  C_26
REMARK    7  A    between atoms: C_26  and  C_27
REMARK    8  A    between atoms: C_26  and  C_28
REMARK    9  A    between atoms: C_26  and  C_29
REMARK   10  A    between atoms: C_29  and  N_30
REMARK   11  A    between atoms: N_30  and  C_31
REMARK   12  A    between atoms: N_30  and  C_32
REMARK                            x       y       z     vdW  Elec       q    Type
REMARK                         _______ _______ _______ _____ _____    ______ ____
ROOT
ATOM      1  C   UNL     1       3.644  -2.542   6.601  0.00  0.00    +0.247 C 
ATOM      2  O   UNL     1       4.776  -2.934   6.394  0.00  0.00    -0.270 OA
ATOM      3  N   UNL     1       2.951  -3.011   7.658  0.00  0.00    -0.296 N 
ATOM      4  C   UNL     1       1.535  -2.748   8.005  0.00  0.00    +0.121 C 
ATOM      5  C   UNL     1       1.002  -4.101   8.525  0.00  0.00    +0.100 C 
ATOM      6  C   UNL     1       2.252  -4.857   9.004  0.00  0.00    -0.004 C 
ATOM      7  C   UNL     1       3.432  -3.913   8.732  0.00  0.00    +0.115 C 
ATOM      8  C   UNL     1       2.148  -5.158  10.496  0.00  0.00    -0.010 C 
ATOM      9  C   UNL     1       3.375  -5.961  10.937  0.00  0.00    -0.082 C 
ATOM     10  N   UNL     1       3.447  -7.210  10.170  0.00  0.00    +0.379 N 
ATOM     11  C   UNL     1       3.640  -6.912   8.746  0.00  0.00    -0.082 C 
ATOM     12  C   UNL     1       2.424  -6.150   8.212  0.00  0.00    -0.010 C 
ATOM     13  H   UNL     1       4.221  -7.765  10.505  0.00  0.00    -0.086 HD
ATOM     14  H   UNL     1       2.589  -7.727  10.291  0.00  0.00    -0.086 HD
ENDROOT
BRANCH   1  18
ATOM     15  C   UNL     1       1.871   0.304   3.994  0.00  0.00    -0.048 A 
ATOM     16  C   UNL     1       2.902  -0.499   3.539  0.00  0.00    +0.004 A 
ATOM     17  C   UNL     1       3.482  -1.425   4.380  0.00  0.00    +0.013 A 
ATOM     18  C   UNL     1       3.027  -1.551   5.694  0.00  0.00    +0.037 A 
ATOM     19  C   UNL     1       1.986  -0.739   6.146  0.00  0.00    +0.013 A 
ATOM     20  C   UNL     1       1.419   0.187   5.296  0.00  0.00    +0.004 A 
BRANCH  15  22
ATOM     21  C   UNL     1       1.992   2.643   3.178  0.00  0.00    +0.009 C 
ATOM     22  C   UNL     1       1.242   1.313   3.069  0.00  0.00    +0.032 C 
ENDBRANCH  15  22
ENDBRANCH   1  18
BRANCH   5  23
ATOM     23  C   UNL     1       0.321  -4.859   7.414  0.00  0.00    +0.218 C 
ATOM     24  O   UNL     1       0.740  -4.777   6.279  0.00  0.00    -0.275 OA
ATOM     25  N   UNL     1      -0.753  -5.628   7.682  0.00  0.00    -0.315 N 
ATOM     26  H   UNL     1      -1.088  -5.694   8.590  0.00  0.00    +0.149 HD
BRANCH  25  27
ATOM     27  C   UNL     1      -1.414  -6.364   6.602  0.00  0.00    +0.108 C 
BRANCH  27  28
ATOM     28  C   UNL     1      -2.596  -7.152   7.171  0.00  0.00    -0.034 C 
ATOM     29  C   UNL     1      -2.090  -8.139   8.226  0.00  0.00    +0.010 C 
ATOM     30  C   UNL     1      -3.592  -6.185   7.813  0.00  0.00    +0.010 C 
BRANCH  28  31
ATOM     31  C   UNL     1      -3.287  -7.921   6.043  0.00  0.00    -0.072 C 
BRANCH  31  32
ATOM     32  N   UNL     1      -4.493  -8.577   6.565  0.00  0.00    +0.376 N 
ATOM     33  C   UNL     1      -5.623  -7.639   6.510  0.00  0.00    -0.097 C 
ATOM     34  C   UNL     1      -4.799  -9.761   5.750  0.00  0.00    -0.097 C 
ATOM     35  H   UNL     1      -4.336  -8.858   7.521  0.00  0.00    -0.083 HD
ENDBRANCH  31  32
ENDBRANCH  28  31
ENDBRANCH  27  28
ENDBRANCH  25  27
ENDBRANCH   5  23
TORSDOF 7
