REMARK  Name = ZINC33275763
REMARK  11 active torsions:
REMARK  status: ('A' for Active; 'I' for Inactive)
REMARK    1  A    between atoms: C_1  and  N_2
REMARK    2  A    between atoms: C_6  and  C_31
REMARK    3  A    between atoms: C_10  and  C_11
REMARK    4  A    between atoms: C_11  and  N_12
REMARK    5  A    between atoms: N_20  and  C_21
REMARK    6  A    between atoms: C_23  and  O_29
REMARK    7  A    between atoms: C_25  and  O_27
REMARK    8  A    between atoms: O_27  and  C_28
REMARK    9  A    between atoms: O_29  and  C_30
REMARK   10  A    between atoms: N_33  and  C_34
REMARK   11  A    between atoms: N_33  and  C_35
REMARK                            x       y       z     vdW  Elec       q    Type
REMARK                         _______ _______ _______ _____ _____    ______ ____
ROOT
ATOM      1  N   UNL     1      -5.226   2.772  -0.981  0.00  0.00    -0.292 NA
ATOM      2  C   UNL     1      -4.952   4.149  -1.415  0.00  0.00    +0.104 C 
ATOM      3  C   UNL     1      -5.419   4.327  -2.863  0.00  0.00    +0.124 C 
ATOM      4  N   UNL     1      -6.828   3.915  -2.954  0.00  0.00    -0.283 N 
ATOM      5  C   UNL     1      -7.205   2.600  -2.414  0.00  0.00    +0.124 C 
ATOM      6  C   UNL     1      -6.667   2.489  -0.983  0.00  0.00    +0.104 C 
ATOM      7  C   UNL     1      -7.750   4.721  -3.518  0.00  0.00    +0.307 C 
ATOM      8  O   UNL     1      -8.891   4.329  -3.667  0.00  0.00    -0.252 OA
ATOM      9  N   UNL     1      -7.406   5.962  -3.915  0.00  0.00    -0.269 N 
ATOM     10  H   UNL     1      -6.361   6.295  -3.839  0.00  0.00    +0.156 HD
ENDROOT
BRANCH   9  11
ATOM     11  C   UNL     1      -8.380   6.828  -4.425  0.00  0.00    +0.042 A 
ATOM     12  C   UNL     1      -9.492   6.315  -5.079  0.00  0.00    +0.069 A 
ATOM     13  C   UNL     1     -10.460   7.173  -5.578  0.00  0.00    +0.125 A 
ATOM     14  C   UNL     1     -10.311   8.544  -5.436  0.00  0.00    +0.091 A 
ATOM     15  C   UNL     1      -9.198   9.058  -4.788  0.00  0.00    +0.125 A 
ATOM     16  C   UNL     1      -8.232   8.201  -4.283  0.00  0.00    +0.069 A 
BRANCH  15  17
ATOM     17  O   UNL     1      -9.053  10.402  -4.649  0.00  0.00    -0.495 OA
ATOM     18  C   UNL     1     -10.086  11.226  -5.193  0.00  0.00    +0.277 C 
ENDBRANCH  15  17
BRANCH  13  19
ATOM     19  O   UNL     1     -11.552   6.670  -6.213  0.00  0.00    -0.495 OA
ATOM     20  C   UNL     1     -12.505   7.612  -6.707  0.00  0.00    +0.277 C 
ENDBRANCH  13  19
ENDBRANCH   9  11
BRANCH   1  21
ATOM     21  C   UNL     1      -4.639   2.509   0.340  0.00  0.00    +0.159 C 
BRANCH  21  31
ATOM     22  C   UNL     1      -2.896   5.031   0.739  0.00  0.00    +0.150 C 
ATOM     23  N   UNL     1      -2.389   3.693   0.423  0.00  0.00    -0.330 N 
ATOM     24  C   UNL     1      -1.068   3.341   0.255  0.00  0.00    +0.069 A 
ATOM     25  C   UNL     1       0.132   4.041   0.314  0.00  0.00    +0.029 A 
ATOM     26  C   UNL     1       1.314   3.396   0.095  0.00  0.00    +0.015 A 
ATOM     27  C   UNL     1       1.331   2.024  -0.192  0.00  0.00    +0.039 A 
ATOM     28  C   UNL     1       0.141   1.307  -0.256  0.00  0.00    +0.043 A 
ATOM     29  C   UNL     1      -1.069   1.964  -0.038  0.00  0.00    +0.090 A 
ATOM     30  N   UNL     1      -2.365   1.558  -0.024  0.00  0.00    -0.231 NA
ATOM     31  C   UNL     1      -3.137   2.571   0.243  0.00  0.00    +0.125 A 
BRANCH  27  32
ATOM     32  C   UNL     1       2.618   1.338  -0.428  0.00  0.00    +0.246 C 
ATOM     33  O   UNL     1       3.613   1.985  -0.689  0.00  0.00    -0.270 OA
ATOM     34  N   UNL     1       2.688  -0.006  -0.352  0.00  0.00    -0.304 N 
ATOM     35  C   UNL     1       3.991  -0.675  -0.393  0.00  0.00    +0.132 C 
ATOM     36  C   UNL     1       1.462  -0.798  -0.230  0.00  0.00    +0.132 C 
ENDBRANCH  27  32
ENDBRANCH  21  31
ENDBRANCH   1  21
TORSDOF 6
