REMARK  Name = ZINC39655581
REMARK  11 active torsions:
REMARK  status: ('A' for Active; 'I' for Inactive)
REMARK    1  A    between atoms: C_1  and  C_2
REMARK    2  A    between atoms: C_2  and  C_3
REMARK    3  A    between atoms: C_3  and  C_4
REMARK    4  A    between atoms: C_4  and  C_5
REMARK    5  A    between atoms: C_5  and  C_7
REMARK    6  A    between atoms: C_5  and  C_8
REMARK    7  A    between atoms: C_12  and  C_21
REMARK    8  A    between atoms: N_23  and  C_24
REMARK    9  A    between atoms: C_24  and  C_25
REMARK   10  A    between atoms: C_25  and  N_26
REMARK   11  A    between atoms: N_26  and  C_27
REMARK                            x       y       z     vdW  Elec       q    Type
REMARK                         _______ _______ _______ _____ _____    ______ ____
ROOT
ATOM      1  C   UNL     1       1.551  -4.182  -2.453  0.00  0.00    +0.218 C 
ATOM      2  O   UNL     1       1.171  -4.816  -1.491  0.00  0.00    -0.275 OA
ATOM      3  N   UNL     1       2.189  -4.806  -3.463  0.00  0.00    -0.300 N 
ATOM      4  C   UNL     1       2.728  -4.205  -4.705  0.00  0.00    +0.121 C 
ATOM      5  C   UNL     1       4.066  -4.939  -4.946  0.00  0.00    +0.100 C 
ATOM      6  C   UNL     1       3.916  -6.279  -4.207  0.00  0.00    -0.004 C 
ATOM      7  C   UNL     1       2.516  -6.247  -3.578  0.00  0.00    +0.115 C 
ATOM      8  C   UNL     1       4.975  -6.402  -3.115  0.00  0.00    -0.010 C 
ATOM      9  C   UNL     1       4.842  -7.767  -2.434  0.00  0.00    -0.082 C 
ATOM     10  N   UNL     1       5.011  -8.832  -3.429  0.00  0.00    +0.379 N 
ATOM     11  C   UNL     1       3.934  -8.763  -4.425  0.00  0.00    -0.082 C 
ATOM     12  C   UNL     1       4.028  -7.440  -5.190  0.00  0.00    -0.010 C 
ATOM     13  H   UNL     1       5.901  -8.721  -3.891  0.00  0.00    -0.086 HD
ATOM     14  H   UNL     1       4.984  -9.729  -2.968  0.00  0.00    -0.086 HD
ENDROOT
BRANCH   5  15
ATOM     15  C   UNL     1       4.281  -5.170  -6.419  0.00  0.00    +0.218 C 
ATOM     16  O   UNL     1       3.328  -5.327  -7.153  0.00  0.00    -0.275 OA
ATOM     17  N   UNL     1       5.531  -5.202  -6.921  0.00  0.00    -0.314 N 
ATOM     18  H   UNL     1       6.293  -5.077  -6.334  0.00  0.00    +0.149 HD
BRANCH  17  19
ATOM     19  C   UNL     1       5.740  -5.427  -8.354  0.00  0.00    +0.123 C 
BRANCH  19  20
ATOM     20  C   UNL     1       7.239  -5.417  -8.658  0.00  0.00    +0.120 C 
BRANCH  20  21
ATOM     21  N   UNL     1       7.448  -5.642 -10.091  0.00  0.00    -0.342 N 
ATOM     22  H   UNL     1       6.686  -5.768 -10.678  0.00  0.00    +0.146 HD
BRANCH  21  23
ATOM     23  C   UNL     1       8.744  -5.675 -10.611  0.00  0.00    +0.027 A 
ATOM     24  C   UNL     1       9.836  -5.502  -9.770  0.00  0.00    +0.023 A 
ATOM     25  C   UNL     1      11.116  -5.536 -10.288  0.00  0.00    +0.002 A 
ATOM     26  C   UNL     1      11.311  -5.742 -11.641  0.00  0.00    +0.000 A 
ATOM     27  C   UNL     1      10.226  -5.916 -12.481  0.00  0.00    +0.002 A 
ATOM     28  C   UNL     1       8.943  -5.888 -11.969  0.00  0.00    +0.023 A 
ENDBRANCH  21  23
ENDBRANCH  20  21
ENDBRANCH  19  20
ENDBRANCH  17  19
ENDBRANCH   5  15
BRANCH   1  29
ATOM     29  C   UNL     1       1.309  -2.696  -2.518  0.00  0.00    +0.072 C 
ATOM     30  C   UNL     1       0.460  -2.371  -3.748  0.00  0.00    +0.017 C 
BRANCH  29  31
ATOM     31  C   UNL     1       0.572  -2.243  -1.256  0.00  0.00    +0.012 C 
BRANCH  31  32
ATOM     32  C   UNL     1       0.437  -0.719  -1.263  0.00  0.00    +0.000 C 
BRANCH  32  34
ATOM     33  C   UNL     1      -0.435   1.258  -0.008  0.00  0.00    +0.004 C 
ATOM     34  C   UNL     1      -0.300  -0.266  -0.001  0.00  0.00    -0.003 C 
ENDBRANCH  32  34
ENDBRANCH  31  32
ENDBRANCH  29  31
ENDBRANCH   1  29
TORSDOF 9
