REMARK  Name = ZINC35852415
REMARK  7 active torsions:
REMARK  status: ('A' for Active; 'I' for Inactive)
REMARK    1  A    between atoms: C_1  and  C_2
REMARK    2  A    between atoms: C_5  and  S_8
REMARK    3  A    between atoms: S_8  and  N_11
REMARK    4  A    between atoms: N_11  and  C_12
REMARK    5  A    between atoms: N_21  and  C_24
REMARK    6  A    between atoms: C_24  and  C_25
REMARK    7  A    between atoms: C_27  and  N_32
REMARK                            x       y       z     vdW  Elec       q    Type
REMARK                         _______ _______ _______ _____ _____    ______ ____
ROOT
ATOM      1  C   UNL     1       2.472  -4.707   1.062  0.00  0.00    +0.066 A 
ATOM      2  C   UNL     1       3.821  -4.409   0.872  0.00  0.00    +0.029 A 
ATOM      3  C   UNL     1       4.599  -4.141   1.983  0.00  0.00    +0.045 A 
ATOM      4  C   UNL     1       4.015  -4.179   3.245  0.00  0.00    +0.121 A 
ATOM      5  N   UNL     1       2.731  -4.466   3.388  0.00  0.00    -0.238 NA
ATOM      6  C   UNL     1       1.957  -4.720   2.349  0.00  0.00    +0.137 A 
ATOM      7  N   UNL     1       4.790  -3.911   4.371  0.00  0.00    -0.319 N 
ATOM      8  C   UNL     1       4.273  -4.168   5.724  0.00  0.00    +0.088 C 
ATOM      9  C   UNL     1       4.484  -2.909   6.572  0.00  0.00    -0.059 C 
ATOM     10  N   UNL     1       5.900  -2.522   6.527  0.00  0.00    +0.384 N 
ATOM     11  C   UNL     1       6.272  -2.144   5.158  0.00  0.00    -0.059 C 
ATOM     12  C   UNL     1       6.152  -3.370   4.240  0.00  0.00    +0.088 C 
ATOM     13  H   UNL     1       6.469  -3.300   6.827  0.00  0.00    -0.081 HD
ENDROOT
BRANCH   1  14
ATOM     14  N   UNL     1       1.646  -4.983  -0.035  0.00  0.00    -0.215 N 
ATOM     15  H   UNL     1       1.953  -5.581  -0.734  0.00  0.00    +0.174 HD
BRANCH  14  16
ATOM     16  S   UNL     1       0.145  -4.290  -0.137  0.00  0.00    +0.072 S 
ATOM     17  O   UNL     1      -0.484  -4.496   1.121  0.00  0.00    -0.150 OA
ATOM     18  O   UNL     1      -0.427  -4.739  -1.357  0.00  0.00    -0.150 OA
BRANCH  16  23
ATOM     19  C   UNL     1       0.961   1.661  -0.702  0.00  0.00    +0.044 C 
ATOM     20  C   UNL     1       0.757   0.175  -0.560  0.00  0.00    -0.050 A 
ATOM     21  C   UNL     1       0.692  -0.624  -1.687  0.00  0.00    +0.005 A 
ATOM     22  C   UNL     1       0.505  -1.987  -1.558  0.00  0.00    +0.029 A 
ATOM     23  C   UNL     1       0.384  -2.552  -0.302  0.00  0.00    +0.109 A 
ATOM     24  C   UNL     1       0.451  -1.754   0.825  0.00  0.00    +0.029 A 
ATOM     25  C   UNL     1       0.641  -0.391   0.696  0.00  0.00    +0.005 A 
ENDBRANCH  16  23
ENDBRANCH  14  16
ENDBRANCH   1  14
BRANCH  10  26
ATOM     26  C   UNL     1       6.122  -1.382   7.426  0.00  0.00    -0.041 C 
BRANCH  26  27
ATOM     27  C   UNL     1       7.594  -1.062   7.477  0.00  0.00    -0.043 A 
ATOM     28  C   UNL     1       8.083   0.047   6.812  0.00  0.00    +0.036 A 
ATOM     29  C   UNL     1       9.433   0.341   6.857  0.00  0.00    +0.126 A 
ATOM     30  C   UNL     1      10.295  -0.474   7.568  0.00  0.00    +0.034 A 
ATOM     31  C   UNL     1       9.807  -1.582   8.233  0.00  0.00    +0.022 A 
ATOM     32  C   UNL     1       8.455  -1.874   8.193  0.00  0.00    +0.042 A 
ATOM     33 CL   UNL     1       7.840  -3.262   9.034  0.00  0.00    -0.083 Cl
BRANCH  29  34
ATOM     34  N   UNL     1       9.956   1.528   6.145  0.00  0.00    +0.056 N 
ATOM     35  O   UNL     1       9.203   2.241   5.523  0.00  0.00    -0.126 OA
ATOM     36  O   UNL     1      11.137   1.786   6.184  0.00  0.00    -0.126 OA
ENDBRANCH  29  34
ENDBRANCH  26  27
ENDBRANCH  10  26
TORSDOF 6
