REMARK  Name = ZINC43020275
REMARK  8 active torsions:
REMARK  status: ('A' for Active; 'I' for Inactive)
REMARK    1  A    between atoms: C_1  and  C_2
REMARK    2  A    between atoms: C_2  and  C_3
REMARK    3  A    between atoms: C_3  and  C_5
REMARK    4  A    between atoms: C_3  and  N_22
REMARK    5  A    between atoms: C_5  and  C_7
REMARK    6  A    between atoms: C_5  and  N_14
REMARK    7  A    between atoms: C_17  and  C_20
REMARK    8  A    between atoms: C_20  and  O_21
REMARK                            x       y       z     vdW  Elec       q    Type
REMARK                         _______ _______ _______ _____ _____    ______ ____
ROOT
ATOM      1  C   UNL     1       0.634  -1.949   1.354  0.00  0.00    +0.072 C 
ENDROOT
BRANCH   1   2
ATOM      2  C   UNL     1       1.202  -2.476   0.061  0.00  0.00    -0.031 A 
ATOM      3  C   UNL     1       2.571  -2.547  -0.114  0.00  0.00    +0.005 A 
ATOM      4  C   UNL     1       3.093  -3.031  -1.299  0.00  0.00    +0.001 A 
ATOM      5  C   UNL     1       2.246  -3.443  -2.310  0.00  0.00    +0.015 A 
ATOM      6  C   UNL     1       0.875  -3.373  -2.135  0.00  0.00    +0.018 A 
ATOM      7  C   UNL     1       0.354  -2.894  -0.947  0.00  0.00    +0.020 A 
ATOM      8 BR   UNL     1      -0.284  -3.937  -3.518  0.00  0.00    -0.050 Br
ENDBRANCH   1   2
BRANCH   1   9
ATOM      9  N   UNL     1       1.436  -2.446   2.480  0.00  0.00    -0.297 NA
ATOM     10  C   UNL     1       0.954  -1.894   3.753  0.00  0.00    +0.085 C 
ATOM     11  C   UNL     1       1.898  -2.314   4.882  0.00  0.00    +0.021 C 
ATOM     12  C   UNL     1       1.951  -3.843   4.954  0.00  0.00    +0.017 C 
ATOM     13  C   UNL     1       2.409  -4.394   3.601  0.00  0.00    +0.021 C 
ATOM     14  C   UNL     1       1.450  -3.914   2.509  0.00  0.00    +0.085 C 
BRANCH  12  15
ATOM     15  C   UNL     1       2.939  -4.269   6.041  0.00  0.00    +0.159 C 
BRANCH  15  16
ATOM     16  O   UNL     1       2.902  -5.690   6.188  0.00  0.00    -0.395 OA
ATOM     17  H   UNL     1       3.505  -6.032   6.862  0.00  0.00    +0.209 HD
ENDBRANCH  15  16
ENDBRANCH  12  15
ENDBRANCH   1   9
BRANCH   1  18
ATOM     18  C   UNL     1       0.667  -0.420   1.339  0.00  0.00    -0.053 C 
BRANCH  18  19
ATOM     19  N   UNL     1      -0.028   0.073   0.142  0.00  0.00    +0.381 N 
ATOM     20  H   UNL     1       0.487  -0.198  -0.681  0.00  0.00    -0.090 HD
ATOM     21  H   UNL     1      -0.955  -0.322   0.105  0.00  0.00    -0.090 HD
ATOM     22  H   UNL     1      -0.093   1.080   0.182  0.00  0.00    -0.090 HD
ENDBRANCH  18  19
BRANCH  18  24
ATOM     23  C   UNL     1       2.156   1.584   1.431  0.00  0.00    +0.002 C 
ATOM     24  C   UNL     1       2.120   0.059   1.319  0.00  0.00    -0.018 C 
ENDBRANCH  18  24
ENDBRANCH   1  18
TORSDOF 7
