REMARK  Name = ZINC42953069
REMARK  9 active torsions:
REMARK  status: ('A' for Active; 'I' for Inactive)
REMARK    1  A    between atoms: C_1  and  C_2
REMARK    2  A    between atoms: C_2  and  C_4
REMARK    3  A    between atoms: C_2  and  N_20
REMARK    4  A    between atoms: C_4  and  C_6
REMARK    5  A    between atoms: C_4  and  N_13
REMARK    6  A    between atoms: N_13  and  C_14
REMARK    7  A    between atoms: N_13  and  C_15
REMARK    8  A    between atoms: C_15  and  C_16
REMARK    9  A    between atoms: N_18  and  C_19
REMARK                            x       y       z     vdW  Elec       q    Type
REMARK                         _______ _______ _______ _____ _____    ______ ____
ROOT
ATOM      1  C   UNL     1       0.464  -0.189   1.604  0.00  0.00    +0.072 C 
ENDROOT
BRANCH   1   2
ATOM      2  C   UNL     1       1.897   0.200   1.866  0.00  0.00    -0.032 A 
ATOM      3  C   UNL     1       2.911  -0.340   1.097  0.00  0.00    +0.006 A 
ATOM      4  C   UNL     1       4.224   0.016   1.336  0.00  0.00    +0.015 A 
ATOM      5  C   UNL     1       4.525   0.913   2.345  0.00  0.00    +0.018 A 
ATOM      6  C   UNL     1       3.510   1.453   3.115  0.00  0.00    +0.015 A 
ATOM      7  C   UNL     1       2.196   1.100   2.871  0.00  0.00    +0.006 A 
ATOM      8 BR   UNL     1       6.322   1.401   2.674  0.00  0.00    -0.050 Br
ENDBRANCH   1   2
BRANCH   1  10
ATOM      9  C   UNL     1       0.130   1.978   0.405  0.00  0.00    -0.012 C 
ATOM     10  C   UNL     1      -0.009   0.458   0.300  0.00  0.00    -0.056 C 
BRANCH  10  11
ATOM     11  N   UNL     1      -1.417   0.110   0.064  0.00  0.00    +0.381 N 
ATOM     12  H   UNL     1      -1.710   0.482  -0.826  0.00  0.00    -0.090 HD
ATOM     13  H   UNL     1      -1.519  -0.894   0.060  0.00  0.00    -0.090 HD
ATOM     14  H   UNL     1      -1.988   0.502   0.798  0.00  0.00    -0.090 HD
ENDBRANCH  10  11
ENDBRANCH   1  10
BRANCH   1  15
ATOM     15  N   UNL     1       0.366  -1.650   1.490  0.00  0.00    -0.292 NA
ATOM     16  C   UNL     1       0.539  -2.082   0.096  0.00  0.00    +0.106 C 
BRANCH  15  17
ATOM     17  C   UNL     1      -0.907  -2.136   2.038  0.00  0.00    +0.180 C 
BRANCH  17  18
ATOM     18  C   UNL     1      -0.805  -3.615   2.308  0.00  0.00    +0.227 C 
ATOM     19  O   UNL     1       0.227  -4.206   2.067  0.00  0.00    -0.274 OA
ATOM     20  N   UNL     1      -1.860  -4.282   2.816  0.00  0.00    -0.317 N 
ATOM     21  C   UNL     1      -1.761  -5.720   3.078  0.00  0.00    +0.128 C 
ATOM     22  H   UNL     1      -2.685  -3.809   3.009  0.00  0.00    +0.148 HD
ENDBRANCH  17  18
ENDBRANCH  15  17
ENDBRANCH   1  15
TORSDOF 6
