REMARK  Name = ZINC05442865
REMARK  4 active torsions:
REMARK  status: ('A' for Active; 'I' for Inactive)
REMARK    1  A    between atoms: C_1  and  C_2
REMARK    2  A    between atoms: C_7  and  C_11
REMARK    3  A    between atoms: C_7  and  C_12
REMARK    4  A    between atoms: C_14  and  C_15
REMARK                            x       y       z     vdW  Elec       q    Type
REMARK                         _______ _______ _______ _____ _____    ______ ____
ROOT
ATOM      1  C   UNL     1       1.466   6.846   1.772  0.00  0.00    +0.069 C 
ATOM      2  C   UNL     1       0.996   5.416   1.705  0.00  0.00    +0.079 C 
ATOM      3  N   UNL     1       0.768   4.752   2.808  0.00  0.00    -0.180 NA
ATOM      4  N   UNL     1       0.302   3.413   2.636  0.00  0.00    -0.183 N 
ATOM      5  C   UNL     1      -0.514   3.084   1.472  0.00  0.00    +0.252 C 
ATOM      6  C   UNL     1      -0.729   1.579   1.267  0.00  0.00    +0.059 C 
ATOM      7  S   UNL     1       0.059   0.911   2.781  0.00  0.00    -0.091 S 
ATOM      8  C   UNL     1       0.633   2.433   3.502  0.00  0.00    +0.132 C 
ATOM      9  S   UNL     1       1.442   2.618   4.999  0.00  0.00    -0.026 S 
ATOM     10  C   UNL     1      -0.013   1.086   0.008  0.00  0.00    +0.027 C 
ATOM     11  C   UNL     1      -2.219   1.234   1.221  0.00  0.00    +0.027 C 
ATOM     12  N   UNL     1       0.092   3.690   0.284  0.00  0.00    -0.144 N 
ATOM     13  C   UNL     1       0.796   4.774   0.406  0.00  0.00    +0.079 C 
ATOM     14  C   UNL     1       1.422   5.386  -0.821  0.00  0.00    +0.069 C 
ATOM     15  O   UNL     1      -0.089   3.097  -0.989  0.00  0.00    -0.167 OA
ENDROOT
TORSDOF 0
