REMARK  Name = ZINC08876337
REMARK  7 active torsions:
REMARK  status: ('A' for Active; 'I' for Inactive)
REMARK    1  A    between atoms: C_1  and  C_2
REMARK    2  A    between atoms: C_2  and  N_62
REMARK    3  A    between atoms: C_15  and  C_17
REMARK    4  A    between atoms: C_18  and  O_34
REMARK    5  A    between atoms: N_23  and  C_26
REMARK    6  A    between atoms: C_26  and  C_27
REMARK    7  A    between atoms: C_27  and  C_28
REMARK                            x       y       z     vdW  Elec       q    Type
REMARK                         _______ _______ _______ _____ _____    ______ ____
ROOT
ATOM      1  C   UNL     1      -1.793  -0.175   1.638  0.00  0.00    +0.069 A 
ATOM      2  C   UNL     1      -2.974   0.479   1.827  0.00  0.00    +0.201 A 
ATOM      3  N   UNL     1      -3.365   0.812   3.100  0.00  0.00    -0.278 N 
ATOM      4  H   UNL     1      -4.205   1.277   3.239  0.00  0.00    +0.173 HD
ATOM      5  C   UNL     1      -2.592   0.497   4.155  0.00  0.00    +0.332 A 
ATOM      6  O   UNL     1      -2.955   0.800   5.275  0.00  0.00    -0.246 OA
ATOM      7  N   UNL     1      -1.423  -0.148   3.989  0.00  0.00    -0.260 N 
ATOM      8  C   UNL     1      -1.004  -0.498   2.757  0.00  0.00    +0.262 A 
ATOM      9  O   UNL     1       0.053  -1.087   2.612  0.00  0.00    -0.267 OA
ENDROOT
BRANCH   1  22
ATOM     10  C   UNL     1       0.566  -0.516  -1.255  0.00  0.00    -0.073 C 
ATOM     11  C   UNL     1       0.932  -1.997  -1.084  0.00  0.00    +0.019 C 
ATOM     12  C   UNL     1      -0.251  -2.702  -0.471  0.00  0.00    -0.022 A 
ATOM     13  C   UNL     1      -0.535  -4.118  -0.394  0.00  0.00    +0.003 A 
ATOM     14  C   UNL     1       0.154  -5.252  -0.834  0.00  0.00    +0.010 A 
ATOM     15  C   UNL     1      -0.429  -6.469  -0.585  0.00  0.00    +0.001 A 
ATOM     16  C   UNL     1      -1.643  -6.583   0.072  0.00  0.00    +0.002 A 
ATOM     17  C   UNL     1      -2.346  -5.479   0.520  0.00  0.00    +0.026 A 
ATOM     18  C   UNL     1      -1.779  -4.229   0.281  0.00  0.00    +0.047 A 
ATOM     19  N   UNL     1      -2.195  -2.963   0.580  0.00  0.00    -0.359 N 
ATOM     20  H   UNL     1      -3.018  -2.741   1.043  0.00  0.00    +0.166 HD
ATOM     21  C   UNL     1      -1.276  -2.055   0.129  0.00  0.00    +0.011 A 
ATOM     22  C   UNL     1      -1.341  -0.551   0.251  0.00  0.00    +0.021 C 
ATOM     23  N   UNL     1       0.021  -0.012   0.026  0.00  0.00    +0.388 N 
ATOM     24  H   UNL     1       0.631  -0.322   0.791  0.00  0.00    -0.080 HD
BRANCH  23  26
ATOM     25  C   UNL     1       1.417   1.994  -0.001  0.00  0.00    -0.017 C 
ATOM     26  C   UNL     1      -0.018   1.465   0.010  0.00  0.00    -0.081 C 
ENDBRANCH  23  26
ENDBRANCH   1  22
BRANCH   2  27
ATOM     27  O   UNL     1      -3.752   0.797   0.771  0.00  0.00    -0.493 OA
ATOM     28  H   UNL     1      -4.568   1.259   1.009  0.00  0.00    +0.294 HD
ENDBRANCH   2  27
BRANCH   7  29
ATOM     29  C   UNL     1      -0.602  -0.478   5.157  0.00  0.00    +0.134 C 
BRANCH  29  30
ATOM     30  C   UNL     1      -0.998  -1.858   5.685  0.00  0.00    +0.052 C 
BRANCH  30  31
ATOM     31  C   UNL     1      -0.154  -2.197   6.886  0.00  0.00    -0.072 C 
ATOM     32  C   UNL     1      -0.636  -1.939   8.060  0.00  0.00    -0.028 C 
ATOM     33  C   UNL     1       0.089  -2.210   9.345  0.00  0.00    +0.027 C 
ATOM     34  C   UNL     1       1.239  -3.192   9.105  0.00  0.00    +0.004 C 
ATOM     35  C   UNL     1       2.057  -2.696   7.906  0.00  0.00    +0.005 C 
ATOM     36  C   UNL     1       1.191  -2.819   6.649  0.00  0.00    +0.030 C 
ENDBRANCH  30  31
ENDBRANCH  29  30
ENDBRANCH   7  29
TORSDOF 6
