REMARK  Name = ZINC44164072
REMARK  6 active torsions:
REMARK  status: ('A' for Active; 'I' for Inactive)
REMARK    1  A    between atoms: C_3  and  O_27
REMARK    2  A    between atoms: C_6  and  C_7
REMARK    3  A    between atoms: C_7  and  C_8
REMARK    4  A    between atoms: C_8  and  N_9
REMARK    5  A    between atoms: C_10  and  C_12
REMARK    6  A    between atoms: C_17  and  C_20
REMARK                            x       y       z     vdW  Elec       q    Type
REMARK                         _______ _______ _______ _____ _____    ______ ____
ROOT
ATOM      1  C   UNL     1      -4.892  -2.883  -2.575  0.00  0.00    +0.027 C 
ATOM      2  C   UNL     1      -4.684  -4.222  -1.858  0.00  0.00    +0.062 C 
ATOM      3  S   UNL     1      -6.280  -5.095  -1.805  0.00  0.00    -0.163 S 
ATOM      4  C   UNL     1      -6.840  -5.005  -3.535  0.00  0.00    +0.058 C 
ATOM      5  C   UNL     1      -6.726  -3.549  -4.001  0.00  0.00    -0.030 C 
ATOM      6  N   UNL     1      -5.325  -3.121  -3.953  0.00  0.00    +0.392 N 
ATOM      7  H   UNL     1      -5.222  -2.269  -4.484  0.00  0.00    -0.084 HD
ATOM      8  H   UNL     1      -4.745  -3.838  -4.363  0.00  0.00    -0.084 HD
ENDROOT
BRANCH   5   9
ATOM      9  C   UNL     1      -7.234  -3.434  -5.415  0.00  0.00    -0.060 A 
ATOM     10  C   UNL     1      -6.426  -3.807  -6.472  0.00  0.00    +0.005 A 
ATOM     11  C   UNL     1      -6.891  -3.703  -7.769  0.00  0.00    +0.038 A 
ATOM     12  C   UNL     1      -8.168  -3.225  -8.010  0.00  0.00    +0.123 A 
ATOM     13  C   UNL     1      -8.978  -2.852  -6.950  0.00  0.00    +0.038 A 
ATOM     14  C   UNL     1      -8.512  -2.962  -5.653  0.00  0.00    +0.005 A 
ATOM     15  F   UNL     1      -8.624  -3.122  -9.277  0.00  0.00    -0.205 F 
ENDBRANCH   5   9
BRANCH   1  17
ATOM     16  N   UNL     1      -3.005  -1.775  -1.420  0.00  0.00    -0.316 N 
ATOM     17  C   UNL     1      -3.596  -2.113  -2.584  0.00  0.00    +0.200 C 
ATOM     18  O   UNL     1      -3.085  -1.798  -3.637  0.00  0.00    -0.278 OA
ATOM     19  H   UNL     1      -3.414  -2.028  -0.578  0.00  0.00    +0.149 HD
BRANCH  16  20
ATOM     20  C   UNL     1      -1.746  -1.027  -1.429  0.00  0.00    +0.109 C 
BRANCH  20  21
ATOM     21  C   UNL     1      -1.293  -0.774   0.011  0.00  0.00    +0.054 C 
BRANCH  21  27
ATOM     22  C   UNL     1      -0.017   1.378   0.010  0.00  0.00    +0.007 A 
ATOM     23  C   UNL     1       1.169   2.087   0.002  0.00  0.00    +0.045 A 
ATOM     24  C   UNL     1       2.380   1.409  -0.013  0.00  0.00    +0.117 A 
ATOM     25  C   UNL     1       2.396   0.022  -0.021  0.00  0.00    +0.045 A 
ATOM     26  C   UNL     1       1.207  -0.681  -0.013  0.00  0.00    +0.007 A 
ATOM     27  C   UNL     1       0.002  -0.004   0.002  0.00  0.00    -0.046 A 
BRANCH  24  28
ATOM     28  O   UNL     1       3.548   2.104  -0.021  0.00  0.00    -0.507 OA
ATOM     29  H   UNL     1       3.895   2.300   0.860  0.00  0.00    +0.292 HD
ENDBRANCH  24  28
ENDBRANCH  21  27
ENDBRANCH  20  21
ENDBRANCH  16  20
ENDBRANCH   1  17
TORSDOF 6
