REMARK  Name = ZINC04730163
REMARK  7 active torsions:
REMARK  status: ('A' for Active; 'I' for Inactive)
REMARK    1  A    between atoms: C_1  and  C_2
REMARK    2  A    between atoms: C_7  and  C_8
REMARK    3  A    between atoms: C_10  and  C_23
REMARK    4  A    between atoms: C_13  and  C_15
REMARK    5  A    between atoms: C_18  and  O_21
REMARK    6  A    between atoms: O_21  and  C_22
REMARK    7  A    between atoms: C_28  and  O_29
REMARK                            x       y       z     vdW  Elec       q    Type
REMARK                         _______ _______ _______ _____ _____    ______ ____
ROOT
ATOM      1  C   UNL     1      -2.553   3.869   0.044  0.00  0.00    +0.081 C 
ATOM      2  C   UNL     1      -4.843   3.769  -0.706  0.00  0.00    -0.028 C 
ATOM      3  C   UNL     1      -4.608   4.814  -1.801  0.00  0.00    +0.044 C 
ATOM      4  C   UNL     1      -3.314   5.534  -1.538  0.00  0.00    +0.040 C 
ATOM      5  N   UNL     1      -2.424   5.098  -0.728  0.00  0.00    -0.299 NA
ATOM      6  N   UNL     1      -3.595   3.002  -0.526  0.00  0.00    +0.401 N 
ATOM      7  H   UNL     1      -3.768   2.214   0.110  0.00  0.00    -0.081 HD
ATOM      8  H   UNL     1      -3.280   2.644  -1.435  0.00  0.00    -0.081 HD
ENDROOT
BRANCH   1  15
ATOM      9  C   UNL     1      -0.070   5.347   0.032  0.00  0.00    +0.044 C 
ATOM     10  C   UNL     1      -0.050   3.840   0.023  0.00  0.00    -0.047 A 
ATOM     11  C   UNL     1       1.157   3.165   0.008  0.00  0.00    +0.003 A 
ATOM     12  C   UNL     1       1.175   1.783   0.000  0.00  0.00    +0.000 A 
ATOM     13  C   UNL     1      -0.013   1.076   0.008  0.00  0.00    +0.000 A 
ATOM     14  C   UNL     1      -1.219   1.750   0.017  0.00  0.00    +0.004 A 
ATOM     15  C   UNL     1      -1.238   3.133   0.029  0.00  0.00    -0.038 A 
ENDBRANCH   1  15
BRANCH   4  16
ATOM     16  C   UNL     1      -3.059   6.801  -2.248  0.00  0.00    -0.004 A 
ATOM     17  C   UNL     1      -4.004   7.304  -3.145  0.00  0.00    +0.013 A 
ATOM     18  C   UNL     1      -3.764   8.491  -3.802  0.00  0.00    +0.046 A 
ATOM     19  C   UNL     1      -2.578   9.181  -3.582  0.00  0.00    +0.120 A 
ATOM     20  C   UNL     1      -1.632   8.681  -2.696  0.00  0.00    +0.046 A 
ATOM     21  C   UNL     1      -1.867   7.498  -2.030  0.00  0.00    +0.013 A 
BRANCH  19  22
ATOM     22  O   UNL     1      -2.342  10.347  -4.236  0.00  0.00    -0.495 OA
ATOM     23  C   UNL     1      -3.356  10.805  -5.133  0.00  0.00    +0.277 C 
ENDBRANCH  19  22
ENDBRANCH   4  16
BRANCH   2  24
ATOM     24  C   UNL     1      -5.953   2.838  -1.121  0.00  0.00    -0.019 A 
ATOM     25  C   UNL     1      -5.653   1.597  -1.649  0.00  0.00    +0.005 A 
ATOM     26  C   UNL     1      -6.671   0.741  -2.026  0.00  0.00    +0.000 A 
ATOM     27  C   UNL     1      -7.991   1.128  -1.885  0.00  0.00    +0.004 A 
ATOM     28  C   UNL     1      -8.296   2.369  -1.363  0.00  0.00    +0.045 A 
ATOM     29  C   UNL     1      -7.276   3.229  -0.979  0.00  0.00    +0.118 A 
BRANCH  29  30
ATOM     30  O   UNL     1      -7.573   4.451  -0.465  0.00  0.00    -0.507 OA
ATOM     31  H   UNL     1      -7.645   5.150  -1.129  0.00  0.00    +0.292 HD
ENDBRANCH  29  30
ENDBRANCH   2  24
TORSDOF 5
