REMARK  Name = ZINC39387934
REMARK  9 active torsions:
REMARK  status: ('A' for Active; 'I' for Inactive)
REMARK    1  A    between atoms: C_1  and  C_2
REMARK    2  A    between atoms: C_7  and  C_13
REMARK    3  A    between atoms: C_9  and  C_12
REMARK    4  A    between atoms: C_13  and  N_14
REMARK    5  A    between atoms: N_14  and  C_15
REMARK    6  A    between atoms: C_15  and  C_17
REMARK    7  A    between atoms: C_15  and  C_18
REMARK    8  A    between atoms: N_21  and  C_25
REMARK    9  A    between atoms: C_22  and  C_24
REMARK                            x       y       z     vdW  Elec       q    Type
REMARK                         _______ _______ _______ _____ _____    ______ ____
ROOT
ATOM      1  N   UNL     1      -1.728   2.196  -7.960  0.00  0.00    +0.387 N 
ATOM      2  H   UNL     1      -0.943   1.594  -7.761  0.00  0.00    -0.085 HD
ATOM      3  H   UNL     1      -2.575   1.648  -7.982  0.00  0.00    -0.085 HD
ENDROOT
BRANCH   1   4
ATOM      4  C   UNL     1      -1.530   2.843  -9.264  0.00  0.00    -0.045 C 
ATOM      5  C   UNL     1      -2.775   3.658  -9.623  0.00  0.00    -0.009 C 
BRANCH   4   6
ATOM      6  C   UNL     1      -1.297   1.791 -10.317  0.00  0.00    -0.047 C 
ATOM      7  C   UNL     1      -1.374   0.488 -10.145  0.00  0.00    +0.087 C 
ATOM      8  N   UNL     1      -1.104  -0.202 -11.311  0.00  0.00    -0.271 N 
ATOM      9  N   UNL     1      -0.823   0.693 -12.353  0.00  0.00    -0.247 N 
ATOM     10  C   UNL     1      -0.939   2.039 -11.765  0.00  0.00    +0.117 C 
ATOM     11  C   UNL     1       0.397   2.779 -11.866  0.00  0.00    +0.034 C 
ATOM     12  H   UNL     1      -1.108  -1.168 -11.397  0.00  0.00    +0.169 HD
BRANCH   9  13
ATOM     13  C   UNL     1      -0.505   0.376 -13.675  0.00  0.00    +0.051 A 
ATOM     14  C   UNL     1      -0.246   1.387 -14.591  0.00  0.00    +0.025 A 
ATOM     15  C   UNL     1       0.069   1.071 -15.898  0.00  0.00    +0.005 A 
ATOM     16  C   UNL     1       0.126  -0.252 -16.297  0.00  0.00    +0.038 A 
ATOM     17  C   UNL     1      -0.132  -1.264 -15.387  0.00  0.00    +0.125 A 
ATOM     18  C   UNL     1      -0.442  -0.953 -14.076  0.00  0.00    +0.063 A 
ATOM     19  F   UNL     1      -0.075  -2.555 -15.780  0.00  0.00    -0.205 F 
ENDBRANCH   9  13
ENDBRANCH   4   6
ENDBRANCH   1   4
BRANCH   1  20
ATOM     20  C   UNL     1      -1.836   3.223  -6.915  0.00  0.00    -0.027 C 
BRANCH  20  27
ATOM     21  C   UNL     1      -1.581  -0.274  -0.286  0.00  0.00    +0.044 C 
ATOM     22  C   UNL     1      -2.095   0.446  -1.506  0.00  0.00    -0.050 A 
ATOM     23  C   UNL     1      -3.449   0.726  -1.622  0.00  0.00    +0.005 A 
ATOM     24  C   UNL     1      -3.940   1.382  -2.730  0.00  0.00    +0.026 A 
ATOM     25  C   UNL     1      -3.070   1.770  -3.744  0.00  0.00    +0.047 A 
ATOM     26  N   UNL     1      -3.244   2.423  -4.943  0.00  0.00    -0.359 N 
ATOM     27  C   UNL     1      -2.039   2.559  -5.578  0.00  0.00    +0.003 A 
ATOM     28  H   UNL     1      -4.094   2.739  -5.287  0.00  0.00    +0.166 HD
ATOM     29  C   UNL     1      -1.065   2.014  -4.832  0.00  0.00    -0.024 A 
ATOM     30  C   UNL     1      -1.698   1.485  -3.621  0.00  0.00    +0.003 A 
ATOM     31  C   UNL     1      -1.222   0.823  -2.488  0.00  0.00    +0.013 A 
ATOM     32  C   UNL     1       0.401   1.955  -5.176  0.00  0.00    +0.046 C 
ENDBRANCH  20  27
ENDBRANCH   1  20
TORSDOF 5
