REMARK  Name = ZINC67490712
REMARK  13 active torsions:
REMARK  status: ('A' for Active; 'I' for Inactive)
REMARK    1  A    between atoms: C_1  and  C_2
REMARK    2  A    between atoms: C_2  and  C_3
REMARK    3  A    between atoms: C_2  and  C_4
REMARK    4  A    between atoms: C_7  and  C_10
REMARK    5  A    between atoms: C_10  and  N_11
REMARK    6  A    between atoms: C_15  and  C_18
REMARK    7  A    between atoms: C_15  and  O_27
REMARK    8  A    between atoms: C_18  and  N_19
REMARK    9  A    between atoms: N_19  and  C_20
REMARK   10  A    between atoms: C_20  and  C_21
REMARK   11  A    between atoms: C_20  and  C_22
REMARK   12  A    between atoms: C_20  and  C_23
REMARK   13  A    between atoms: N_25  and  C_26
REMARK                            x       y       z     vdW  Elec       q    Type
REMARK                         _______ _______ _______ _____ _____    ______ ____
ROOT
ATOM      1  N   UNL     1      -6.249  -0.945  -0.613  0.00  0.00    -0.295 N 
ATOM      2  C   UNL     1      -6.863   0.127   0.162  0.00  0.00    +0.108 C 
ATOM      3  C   UNL     1      -8.082   0.686  -0.571  0.00  0.00    +0.022 C 
ATOM      4  C   UNL     1      -7.678   1.022  -2.012  0.00  0.00    +0.044 C 
ATOM      5  C   UNL     1      -7.372  -0.286  -2.746  0.00  0.00    +0.127 C 
ATOM      6  C   UNL     1      -6.444  -1.129  -1.919  0.00  0.00    +0.246 C 
ATOM      7  O   UNL     1      -5.843  -2.029  -2.468  0.00  0.00    -0.273 OA
ENDROOT
BRANCH   5   8
ATOM      8  O   UNL     1      -8.590  -0.998  -2.975  0.00  0.00    -0.381 OA
ATOM      9  H   UNL     1      -9.069  -1.228  -2.167  0.00  0.00    +0.211 HD
ENDBRANCH   5   8
BRANCH   1  10
ATOM     10  C   UNL     1      -5.357  -1.873   0.086  0.00  0.00    +0.143 C 
BRANCH  10  14
ATOM     11  C   UNL     1      -1.358  -0.378  -0.040  0.00  0.00    -0.045 A 
ATOM     12  C   UNL     1      -2.193  -0.029   1.004  0.00  0.00    +0.004 A 
ATOM     13  C   UNL     1      -3.488  -0.513   1.045  0.00  0.00    +0.005 A 
ATOM     14  C   UNL     1      -3.946  -1.345   0.041  0.00  0.00    -0.030 A 
ATOM     15  C   UNL     1      -3.111  -1.693  -1.004  0.00  0.00    +0.005 A 
ATOM     16  C   UNL     1      -1.818  -1.206  -1.047  0.00  0.00    +0.004 A 
BRANCH  11  18
ATOM     17  C   UNL     1       0.025   1.679  -0.122  0.00  0.00    +0.012 C 
ATOM     18  C   UNL     1       0.053   0.150  -0.085  0.00  0.00    +0.013 C 
ATOM     19  C   UNL     1       0.811  -0.316   1.160  0.00  0.00    +0.012 C 
ENDBRANCH  11  18
ENDBRANCH  10  14
ENDBRANCH   1  10
BRANCH   5  20
ATOM     20  C   UNL     1      -6.708   0.028  -4.088  0.00  0.00    -0.036 C 
BRANCH  20  21
ATOM     21  N   UNL     1      -7.601   0.876  -4.889  0.00  0.00    +0.390 N 
ATOM     22  H   UNL     1      -8.490   0.413  -5.005  0.00  0.00    -0.084 HD
ATOM     23  H   UNL     1      -7.740   1.758  -4.419  0.00  0.00    -0.084 HD
BRANCH  21  24
ATOM     24  C   UNL     1      -6.998   1.114  -6.208  0.00  0.00    +0.004 C 
ATOM     25  C   UNL     1      -5.650   1.816  -6.032  0.00  0.00    -0.001 C 
ATOM     26  C   UNL     1      -6.788  -0.223  -6.921  0.00  0.00    -0.001 C 
BRANCH  24  27
ATOM     27  C   UNL     1      -7.914   1.984  -7.030  0.00  0.00    +0.201 C 
ATOM     28  O   UNL     1      -7.448   2.798  -7.799  0.00  0.00    -0.277 OA
ATOM     29  N   UNL     1      -9.250   1.857  -6.910  0.00  0.00    -0.320 N 
ATOM     30  C   UNL     1     -10.141   2.703  -7.709  0.00  0.00    +0.128 C 
ATOM     31  H   UNL     1      -9.623   1.206  -6.295  0.00  0.00    +0.148 HD
ENDBRANCH  24  27
ENDBRANCH  21  24
ENDBRANCH  20  21
ENDBRANCH   5  20
TORSDOF 8
