REMARK  Name = ZINC03999537
REMARK  12 active torsions:
REMARK  status: ('A' for Active; 'I' for Inactive)
REMARK    1  A    between atoms: C_1  and  C_2
REMARK    2  A    between atoms: C_6  and  O_27
REMARK    3  A    between atoms: C_7  and  O_25
REMARK    4  A    between atoms: C_12  and  C_13
REMARK    5  A    between atoms: C_12  and  N_55
REMARK    6  A    between atoms: C_13  and  C_15
REMARK    7  A    between atoms: C_13  and  O_24
REMARK    8  A    between atoms: C_15  and  N_16
REMARK    9  A    between atoms: N_16  and  C_17
REMARK   10  A    between atoms: C_20  and  O_23
REMARK   11  A    between atoms: O_25  and  C_26
REMARK   12  A    between atoms: O_27  and  C_28
REMARK                            x       y       z     vdW  Elec       q    Type
REMARK                         _______ _______ _______ _____ _____    ______ ____
ROOT
ATOM      1  C   UNL     1      -1.041  -5.213   1.524  0.00  0.00    -0.008 C 
ATOM      2  C   UNL     1      -0.190  -4.439   0.514  0.00  0.00    -0.040 C 
ATOM      3  C   UNL     1      -0.310  -2.963   0.790  0.00  0.00    -0.054 A 
ATOM      4  C   UNL     1      -1.563  -2.450   1.095  0.00  0.00    +0.051 A 
ATOM      5  C   UNL     1      -1.723  -1.102   1.357  0.00  0.00    +0.162 A 
ATOM      6  C   UNL     1      -0.621  -0.253   1.303  0.00  0.00    +0.162 A 
ATOM      7  C   UNL     1       0.627  -0.769   1.000  0.00  0.00    +0.053 A 
ATOM      8  C   UNL     1       0.782  -2.124   0.746  0.00  0.00    -0.044 A 
ATOM      9  C   UNL     1       2.163  -2.640   0.430  0.00  0.00    +0.017 C 
ATOM     10  C   UNL     1       2.070  -4.024  -0.212  0.00  0.00    -0.073 C 
ATOM     11  N   UNL     1       1.213  -4.865   0.649  0.00  0.00    +0.386 N 
ATOM     12  H   UNL     1       1.505  -4.752   1.627  0.00  0.00    -0.081 HD
ENDROOT
BRANCH   6  13
ATOM     13  O   UNL     1      -0.768   1.076   1.552  0.00  0.00    -0.491 OA
ATOM     14  C   UNL     1       0.409   1.883   1.484  0.00  0.00    +0.277 C 
ENDBRANCH   6  13
BRANCH   5  15
ATOM     15  O   UNL     1      -2.952  -0.606   1.662  0.00  0.00    -0.491 OA
ATOM     16  C   UNL     1      -4.036  -1.536   1.699  0.00  0.00    +0.277 C 
ENDBRANCH   5  15
BRANCH  11  17
ATOM     17  C   UNL     1       1.350  -6.288   0.268  0.00  0.00    -0.045 C 
BRANCH  17  18
ATOM     18  C   UNL     1       2.679  -6.819   0.810  0.00  0.00    +0.115 C 
BRANCH  18  19
ATOM     19  O   UNL     1       3.761  -6.186   0.123  0.00  0.00    -0.392 OA
ATOM     20  H   UNL     1       3.762  -6.336  -0.832  0.00  0.00    +0.210 HD
ENDBRANCH  18  19
BRANCH  18  21
ATOM     21  C   UNL     1       2.751  -8.332   0.591  0.00  0.00    +0.131 C 
BRANCH  21  22
ATOM     22  N   UNL     1       3.967  -8.858   1.215  0.00  0.00    -0.341 N 
ATOM     23  H   UNL     1       4.575  -8.258   1.676  0.00  0.00    +0.146 HD
BRANCH  22  24
ATOM     24  C   UNL     1       4.253 -10.226   1.147  0.00  0.00    +0.027 A 
ATOM     25  C   UNL     1       3.381 -11.086   0.492  0.00  0.00    +0.026 A 
ATOM     26  C   UNL     1       3.667 -12.435   0.419  0.00  0.00    +0.047 A 
ATOM     27  C   UNL     1       4.819 -12.933   1.011  0.00  0.00    +0.117 A 
ATOM     28  C   UNL     1       5.687 -12.076   1.670  0.00  0.00    +0.047 A 
ATOM     29  C   UNL     1       5.406 -10.726   1.738  0.00  0.00    +0.026 A 
BRANCH  27  30
ATOM     30  O   UNL     1       5.097 -14.263   0.944  0.00  0.00    -0.507 OA
ATOM     31  H   UNL     1       4.734 -14.778   1.677  0.00  0.00    +0.292 HD
ENDBRANCH  27  30
ENDBRANCH  22  24
ENDBRANCH  21  22
ENDBRANCH  18  21
ENDBRANCH  17  18
ENDBRANCH  11  17
TORSDOF 9
