REMARK  Name = ZINC11062593
REMARK  12 active torsions:
REMARK  status: ('A' for Active; 'I' for Inactive)
REMARK    1  A    between atoms: C_1  and  C_2
REMARK    2  A    between atoms: C_2  and  C_4
REMARK    3  A    between atoms: C_2  and  N_11
REMARK    4  A    between atoms: C_12  and  C_14
REMARK    5  A    between atoms: C_14  and  N_60
REMARK    6  A    between atoms: C_17  and  C_20
REMARK    7  A    between atoms: C_21  and  O_30
REMARK    8  A    between atoms: C_23  and  O_28
REMARK    9  A    between atoms: C_25  and  O_26
REMARK   10  A    between atoms: O_26  and  C_27
REMARK   11  A    between atoms: O_28  and  C_29
REMARK   12  A    between atoms: O_30  and  C_31
REMARK                            x       y       z     vdW  Elec       q    Type
REMARK                         _______ _______ _______ _____ _____    ______ ____
ROOT
ATOM      1  C   UNL     1      -4.211   5.298   1.179  0.00  0.00    -0.073 C 
ATOM      2  C   UNL     1      -3.142   4.218   1.373  0.00  0.00    +0.017 C 
ATOM      3  C   UNL     1      -2.524   3.876   0.046  0.00  0.00    -0.041 C 
ATOM      4  C   UNL     1      -3.085   4.192  -1.101  0.00  0.00    -0.041 C 
ATOM      5  C   UNL     1      -4.386   4.934  -1.199  0.00  0.00    -0.050 C 
ATOM      6  N   UNL     1      -5.103   4.856   0.087  0.00  0.00    +0.388 N 
ATOM      7  H   UNL     1      -5.383   3.883   0.257  0.00  0.00    -0.081 HD
ENDROOT
BRANCH   3   8
ATOM      8  C   UNL     1      -1.238   3.150   0.030  0.00  0.00    +0.061 A 
ATOM      9  C   UNL     1      -1.221   1.750   0.017  0.00  0.00    +0.134 A 
ATOM     10  C   UNL     1      -0.013   1.076   0.008  0.00  0.00    +0.092 A 
ATOM     11  C   UNL     1       1.181   1.784   0.000  0.00  0.00    +0.127 A 
ATOM     12  C   UNL     1       1.171   3.172   0.008  0.00  0.00    +0.092 A 
ATOM     13  C   UNL     1      -0.031   3.859   0.023  0.00  0.00    +0.134 A 
BRANCH  13  14
ATOM     14  O   UNL     1      -0.039   5.217   0.030  0.00  0.00    -0.494 OA
ATOM     15  C   UNL     1       1.231   5.873   0.022  0.00  0.00    +0.277 C 
ENDBRANCH  13  14
BRANCH  11  16
ATOM     16  O   UNL     1       2.364   1.117  -0.015  0.00  0.00    -0.495 OA
ATOM     17  C   UNL     1       3.554   1.907  -0.022  0.00  0.00    +0.277 C 
ENDBRANCH  11  16
BRANCH   9  18
ATOM     18  O   UNL     1      -2.388   1.055   0.019  0.00  0.00    -0.494 OA
ATOM     19  C   UNL     1      -2.294  -0.371   0.011  0.00  0.00    +0.277 C 
ENDBRANCH   9  18
ENDBRANCH   3   8
BRANCH   6  20
ATOM     20  C   UNL     1      -6.314   5.706   0.045  0.00  0.00    +0.019 C 
BRANCH  20  22
ATOM     21  N   UNL     1      -8.486   5.709  -1.138  0.00  0.00    -0.310 N 
ATOM     22  C   UNL     1      -7.294   5.115  -0.936  0.00  0.00    +0.197 C 
ATOM     23  O   UNL     1      -7.008   4.105  -1.544  0.00  0.00    -0.278 OA
ATOM     24  H   UNL     1      -8.715   6.517  -0.652  0.00  0.00    +0.149 HD
BRANCH  21  26
ATOM     25  C   UNL     1      -9.115   5.637  -3.501  0.00  0.00    +0.033 C 
ATOM     26  C   UNL     1      -9.439   5.135  -2.092  0.00  0.00    +0.100 C 
BRANCH  26  27
ATOM     27  C   UNL     1     -10.838   5.553  -1.718  0.00  0.00    -0.027 A 
ATOM     28  C   UNL     1     -11.079   6.838  -1.272  0.00  0.00    +0.006 A 
ATOM     29  C   UNL     1     -12.363   7.224  -0.934  0.00  0.00    +0.015 A 
ATOM     30  C   UNL     1     -13.404   6.319  -1.032  0.00  0.00    +0.018 A 
ATOM     31  C   UNL     1     -13.162   5.030  -1.474  0.00  0.00    +0.015 A 
ATOM     32  C   UNL     1     -11.878   4.648  -1.817  0.00  0.00    +0.006 A 
ATOM     33 BR   UNL     1     -15.159   6.843  -0.563  0.00  0.00    -0.050 Br
ENDBRANCH  26  27
ENDBRANCH  21  26
ENDBRANCH  20  22
ENDBRANCH   6  20
TORSDOF 8
