REMARK  Name = ZINC08655369
REMARK  4 active torsions:
REMARK  status: ('A' for Active; 'I' for Inactive)
REMARK    1  A    between atoms: C_5  and  N_8
REMARK    2  A    between atoms: C_9  and  C_11
REMARK    3  A    between atoms: N_14  and  N_15
REMARK    4  A    between atoms: N_20  and  C_23
REMARK                            x       y       z     vdW  Elec       q    Type
REMARK                         _______ _______ _______ _____ _____    ______ ____
ROOT
ATOM      1  C   UNL     1       2.067   6.523  -2.697  0.00  0.00    +0.216 C 
ATOM      2  C   UNL     1       1.224   6.372  -1.444  0.00  0.00    +0.144 C 
ATOM      3  N   UNL     1       0.536   7.292  -0.829  0.00  0.00    -0.170 NA
ATOM      4  C   UNL     1       1.359   4.957  -1.080  0.00  0.00    +0.270 C 
ATOM      5  O   UNL     1       0.828   4.429  -0.121  0.00  0.00    -0.268 OA
ATOM      6  N   UNL     1       2.152   4.331  -1.958  0.00  0.00    -0.233 N 
ATOM      7  C   UNL     1       2.620   5.133  -2.926  0.00  0.00    +0.240 C 
ATOM      8  O   UNL     1       3.357   4.801  -3.830  0.00  0.00    -0.274 OA
ENDROOT
BRANCH   3   9
ATOM      9  N   UNL     1      -0.189   6.970   0.325  0.00  0.00    -0.248 N 
ATOM     10  C   UNL     1      -0.918   7.944   0.976  0.00  0.00    +0.187 C 
ATOM     11  N   UNL     1      -1.631   7.628   2.109  0.00  0.00    -0.370 N 
ATOM     12  H   UNL     1      -0.180   6.062   0.667  0.00  0.00    +0.192 HD
ATOM     13  H   UNL     1      -1.413   9.918   0.905  0.00  0.00    +0.159 HD
ATOM     14  H   UNL     1      -1.621   6.721   2.451  0.00  0.00    +0.159 HD
ATOM     15  H   UNL     1      -2.143   8.313   2.567  0.00  0.00    +0.159 HD
ATOM     16  N   UNL     1      -0.891   9.163   0.460  0.00  0.00    -0.370 N 
ATOM     17  H   UNL     1      -0.343   9.349  -0.389  0.00  0.00    +0.159 HD
ENDBRANCH   3   9
BRANCH   6  18
ATOM     18  C   UNL     1       2.483   2.907  -1.867  0.00  0.00    +0.085 C 
ATOM     19  C   UNL     1       1.190   2.069  -1.943  0.00  0.00    +0.023 C 
ATOM     20  C   UNL     1       1.447   0.685  -2.316  0.00  0.00    +0.002 C 
ATOM     21  C   UNL     1       2.333  -0.046  -1.286  0.00  0.00    +0.000 C 
ATOM     22  C   UNL     1       3.767   0.336  -1.533  0.00  0.00    +0.000 C 
ATOM     23  C   UNL     1       4.221   1.519  -0.656  0.00  0.00    +0.002 C 
ATOM     24  C   UNL     1       3.156   2.627  -0.550  0.00  0.00    +0.023 C 
ENDBRANCH   6  18
BRANCH   1  26
ATOM     25  N   UNL     1       2.910   8.784  -2.154  0.00  0.00    -0.312 N 
ATOM     26  C   UNL     1       3.188   7.503  -2.466  0.00  0.00    +0.231 C 
ATOM     27  O   UNL     1       4.341   7.139  -2.562  0.00  0.00    -0.275 OA
ATOM     28  H   UNL     1       1.988   9.076  -2.078  0.00  0.00    +0.149 HD
BRANCH  25  33
ATOM     29  C   UNL     1       5.889  11.645   0.054  0.00  0.00    +0.000 C 
ATOM     30  C   UNL     1       4.783  12.475  -0.626  0.00  0.00    +0.000 C 
ATOM     31  C   UNL     1       4.629  12.143  -2.085  0.00  0.00    +0.002 C 
ATOM     32  C   UNL     1       3.522  11.079  -2.231  0.00  0.00    +0.022 C 
ATOM     33  C   UNL     1       4.000   9.737  -1.930  0.00  0.00    +0.073 C 
ATOM     34  C   UNL     1       4.489   9.603  -0.473  0.00  0.00    +0.022 C 
ATOM     35  C   UNL     1       5.881  10.168  -0.383  0.00  0.00    +0.002 C 
ENDBRANCH  25  33
ENDBRANCH   1  26
TORSDOF 4
