REMARK  Name = ZINC08926893
REMARK  16 active torsions:
REMARK  status: ('A' for Active; 'I' for Inactive)
REMARK    1  A    between atoms: C_1  and  C_2
REMARK    2  A    between atoms: C_4  and  C_12
REMARK    3  A    between atoms: C_7  and  O_8
REMARK    4  A    between atoms: O_8  and  C_9
REMARK    5  A    between atoms: C_9  and  C_10
REMARK    6  A    between atoms: C_9  and  C_11
REMARK    7  A    between atoms: C_12  and  C_14
REMARK    8  A    between atoms: C_15  and  O_33
REMARK    9  A    between atoms: N_18  and  C_28
REMARK   10  A    between atoms: C_19  and  C_21
REMARK   11  A    between atoms: C_24  and  O_27
REMARK   12  A    between atoms: C_28  and  C_29
REMARK   13  A    between atoms: C_29  and  C_30
REMARK   14  A    between atoms: C_30  and  N_65
REMARK   15  A    between atoms: C_31  and  N_65
REMARK   16  A    between atoms: C_32  and  N_65
REMARK                            x       y       z     vdW  Elec       q    Type
REMARK                         _______ _______ _______ _____ _____    ______ ____
ROOT
ATOM      1  C   UNL     1      -0.149   4.638   2.394  0.00  0.00    +0.071 C 
ATOM      2  C   UNL     1      -1.289   4.095   1.905  0.00  0.00    +0.188 C 
ATOM      3  C   UNL     1      -1.171   2.622   1.921  0.00  0.00    +0.282 C 
ATOM      4  O   UNL     1      -2.030   1.850   1.544  0.00  0.00    -0.267 OA
ATOM      5  N   UNL     1       0.028   2.262   2.414  0.00  0.00    -0.284 N 
ATOM      6  C   UNL     1       0.761   3.487   2.755  0.00  0.00    +0.144 C 
ENDROOT
BRANCH   6   7
ATOM      7  C   UNL     1       1.071   3.511   4.230  0.00  0.00    -0.022 A 
ATOM      8  C   UNL     1       0.089   3.186   5.147  0.00  0.00    +0.009 A 
ATOM      9  C   UNL     1       0.373   3.201   6.499  0.00  0.00    +0.046 A 
ATOM     10  C   UNL     1       1.641   3.555   6.937  0.00  0.00    +0.117 A 
ATOM     11  C   UNL     1       2.623   3.887   6.014  0.00  0.00    +0.046 A 
ATOM     12  C   UNL     1       2.336   3.864   4.663  0.00  0.00    +0.009 A 
BRANCH  10  13
ATOM     13  O   UNL     1       1.921   3.576   8.266  0.00  0.00    -0.507 OA
ATOM     14  H   UNL     1       1.752   4.429   8.690  0.00  0.00    +0.292 HD
ENDBRANCH  10  13
ENDBRANCH   6   7
BRANCH   1  15
ATOM     15  C   UNL     1       0.143   6.066   2.549  0.00  0.00    +0.195 C 
ATOM     16  O   UNL     1      -0.503   6.738   3.332  0.00  0.00    -0.287 OA
BRANCH  15  20
ATOM     17  C   UNL     1       2.954  10.042   1.471  0.00  0.00    +0.047 C 
ATOM     18  C   UNL     1       2.576   8.603   1.234  0.00  0.00    -0.008 A 
ATOM     19  C   UNL     1       1.566   8.027   1.972  0.00  0.00    +0.018 A 
ATOM     20  C   UNL     1       1.220   6.689   1.756  0.00  0.00    +0.023 A 
ATOM     21  C   UNL     1       1.895   5.946   0.782  0.00  0.00    +0.015 A 
ATOM     22  C   UNL     1       2.898   6.531   0.045  0.00  0.00    +0.046 A 
ATOM     23  C   UNL     1       3.243   7.860   0.267  0.00  0.00    +0.124 A 
BRANCH  23  24
ATOM     24  O   UNL     1       4.233   8.433  -0.463  0.00  0.00    -0.489 OA
BRANCH  24  25
ATOM     25  C   UNL     1       4.811   7.644  -1.505  0.00  0.00    +0.167 C 
ATOM     26  C   UNL     1       5.391   8.566  -2.580  0.00  0.00    +0.051 C 
ATOM     27  C   UNL     1       5.926   6.771  -0.926  0.00  0.00    +0.051 C 
ENDBRANCH  24  25
ENDBRANCH  23  24
ENDBRANCH  15  20
ENDBRANCH   1  15
BRANCH   2  28
ATOM     28  O   UNL     1      -2.365   4.792   1.471  0.00  0.00    -0.502 OA
ATOM     29  H   UNL     1      -3.071   4.155   1.161  0.00  0.00    +0.292 HD
ENDBRANCH   2  28
BRANCH   5  30
ATOM     30  C   UNL     1       0.513   0.891   2.585  0.00  0.00    +0.107 C 
BRANCH  30  31
ATOM     31  C   UNL     1       1.239   0.444   1.315  0.00  0.00    +0.000 C 
BRANCH  31  32
ATOM     32  C   UNL     1       1.746  -0.989   1.494  0.00  0.00    -0.078 C 
BRANCH  32  35
ATOM     33  C   UNL     1       3.145  -2.689   0.488  0.00  0.00    -0.097 C 
ATOM     34  C   UNL     1       1.511  -1.515  -0.858  0.00  0.00    -0.097 C 
ATOM     35  N   UNL     1       2.462  -1.397   0.267  0.00  0.00    +0.376 N 
ATOM     36  H   UNL     1       3.164  -0.684   0.037  0.00  0.00    -0.083 HD
ENDBRANCH  32  35
ENDBRANCH  31  32
ENDBRANCH  30  31
ENDBRANCH   5  30
TORSDOF 11
