REMARK  Name = ZINC53066357
REMARK  12 active torsions:
REMARK  status: ('A' for Active; 'I' for Inactive)
REMARK    1  A    between atoms: C_1  and  C_2
REMARK    2  A    between atoms: C_2  and  C_3
REMARK    3  A    between atoms: C_3  and  C_4
REMARK    4  A    between atoms: C_3  and  C_6
REMARK    5  A    between atoms: C_3  and  N_8
REMARK    6  A    between atoms: C_4  and  C_5
REMARK    7  A    between atoms: C_6  and  O_7
REMARK    8  A    between atoms: N_8  and  C_9
REMARK    9  A    between atoms: C_9  and  C_10
REMARK   10  A    between atoms: C_13  and  O_17
REMARK   11  A    between atoms: O_17  and  C_18
REMARK   12  A    between atoms: C_18  and  C_19
REMARK                            x       y       z     vdW  Elec       q    Type
REMARK                         _______ _______ _______ _____ _____    ______ ____
ROOT
ATOM      1  C   UNL     1       2.807  -0.476  -0.077  0.00  0.00    -0.046 C 
ENDROOT
BRANCH   1   2
ATOM      2  C   UNL     1       4.221   0.046  -0.088  0.00  0.00    -0.062 A 
ATOM      3  C   UNL     1       5.220  -0.683  -0.705  0.00  0.00    +0.020 A 
ATOM      4  C   UNL     1       6.518  -0.207  -0.716  0.00  0.00    +0.061 A 
ATOM      5  C   UNL     1       6.817   1.004  -0.107  0.00  0.00    +0.148 A 
ATOM      6  C   UNL     1       5.812   1.733   0.512  0.00  0.00    +0.061 A 
ATOM      7  C   UNL     1       4.515   1.255   0.515  0.00  0.00    +0.020 A 
ATOM      8 BR   UNL     1       6.214   3.383   1.343  0.00  0.00    -0.046 Br
ATOM      9 BR   UNL     1       7.885  -1.205  -1.560  0.00  0.00    -0.046 Br
BRANCH   5  10
ATOM     10  O   UNL     1       8.093   1.474  -0.116  0.00  0.00    -0.490 OA
BRANCH  10  11
ATOM     11  C   UNL     1       8.470   2.306  -1.215  0.00  0.00    +0.226 C 
ATOM     12  C   UNL     1       9.929   2.735  -1.052  0.00  0.00    +0.048 C 
ENDBRANCH  10  11
ENDBRANCH   5  10
ENDBRANCH   1   2
BRANCH   1  13
ATOM     13  N   UNL     1       2.096   0.011  -1.267  0.00  0.00    +0.387 N 
ATOM     14  H   UNL     1       2.569  -0.314  -2.097  0.00  0.00    -0.085 HD
ATOM     15  H   UNL     1       2.083   1.020  -1.262  0.00  0.00    -0.085 HD
BRANCH  13  16
ATOM     16  C   UNL     1       0.718  -0.497  -1.257  0.00  0.00    -0.045 C 
BRANCH  16  18
ATOM     17  C   UNL     1      -0.019   1.526   0.010  0.00  0.00    +0.002 C 
ATOM     18  C   UNL     1       0.002  -0.004   0.002  0.00  0.00    -0.014 C 
ENDBRANCH  16  18
BRANCH  16  19
ATOM     19  C   UNL     1       0.739  -2.027  -1.265  0.00  0.00    -0.014 C 
ATOM     20  C   UNL     1       1.562  -2.520  -2.457  0.00  0.00    +0.002 C 
ENDBRANCH  16  19
BRANCH  16  21
ATOM     21  C   UNL     1      -0.022   0.009  -2.496  0.00  0.00    +0.143 C 
BRANCH  21  22
ATOM     22  O   UNL     1      -1.362  -0.485  -2.486  0.00  0.00    -0.396 OA
ATOM     23  H   UNL     1      -1.892  -0.203  -3.245  0.00  0.00    +0.209 HD
ENDBRANCH  21  22
ENDBRANCH  16  21
ENDBRANCH  13  16
ENDBRANCH   1  13
TORSDOF 9
