REMARK  Name = ZINC39623765
REMARK  7 active torsions:
REMARK  status: ('A' for Active; 'I' for Inactive)
REMARK    1  A    between atoms: C_4  and  C_7
REMARK    2  A    between atoms: C_7  and  C_8
REMARK    3  A    between atoms: C_8  and  C_9
REMARK    4  A    between atoms: C_9  and  N_10
REMARK    5  A    between atoms: C_11  and  C_13
REMARK    6  A    between atoms: C_24  and  C_26
REMARK    7  A    between atoms: C_29  and  C_31
REMARK                            x       y       z     vdW  Elec       q    Type
REMARK                         _______ _______ _______ _____ _____    ______ ____
ROOT
ATOM      1  C   UNL     1       7.559  -2.856   4.402  0.00  0.00    +0.100 C 
ATOM      2  C   UNL     1       6.492  -3.665   5.173  0.00  0.00    +0.121 C 
ATOM      3  N   UNL     1       6.928  -5.076   5.046  0.00  0.00    -0.294 N 
ATOM      4  C   UNL     1       8.404  -5.019   5.180  0.00  0.00    +0.115 C 
ATOM      5  C   UNL     1       8.813  -3.746   4.412  0.00  0.00    -0.004 C 
ATOM      6  C   UNL     1       9.957  -3.039   5.133  0.00  0.00    -0.010 C 
ATOM      7  C   UNL     1      11.210  -3.919   5.079  0.00  0.00    -0.082 C 
ATOM      8  N   UNL     1      11.570  -4.174   3.679  0.00  0.00    +0.379 N 
ATOM      9  C   UNL     1      10.504  -4.936   3.018  0.00  0.00    -0.082 C 
ATOM     10  C   UNL     1       9.222  -4.099   2.985  0.00  0.00    -0.010 C 
ATOM     11  C   UNL     1       6.158  -6.164   4.854  0.00  0.00    +0.282 C 
ATOM     12  O   UNL     1       6.670  -7.266   4.770  0.00  0.00    -0.267 OA
ATOM     13  H   UNL     1      11.700  -3.295   3.201  0.00  0.00    -0.086 HD
ATOM     14  H   UNL     1      12.430  -4.702   3.646  0.00  0.00    -0.086 HD
ENDROOT
BRANCH  11  15
ATOM     15  C   UNL     1       4.703  -6.023   4.745  0.00  0.00    +0.190 A 
ATOM     16  C   UNL     1       3.803  -7.048   4.554  0.00  0.00    +0.055 A 
ATOM     17  C   UNL     1       2.532  -6.465   4.510  0.00  0.00    +0.050 A 
ATOM     18  C   UNL     1       2.701  -5.120   4.674  0.00  0.00    +0.136 A 
ATOM     19  O   UNL     1       4.012  -4.866   4.820  0.00  0.00    -0.450 OA
BRANCH  18  20
ATOM     20  C   UNL     1       1.621  -4.113   4.693  0.00  0.00    +0.017 A 
ATOM     21  C   UNL     1       0.290  -4.508   4.541  0.00  0.00    +0.011 A 
ATOM     22  C   UNL     1      -0.713  -3.562   4.561  0.00  0.00    +0.001 A 
ATOM     23  C   UNL     1      -0.404  -2.224   4.730  0.00  0.00    +0.000 A 
ATOM     24  C   UNL     1       0.912  -1.825   4.881  0.00  0.00    +0.001 A 
ATOM     25  C   UNL     1       1.926  -2.761   4.870  0.00  0.00    +0.011 A 
ENDBRANCH  18  20
ENDBRANCH  11  15
BRANCH   1  27
ATOM     26  N   UNL     1       7.535  -1.510   2.327  0.00  0.00    -0.315 N 
ATOM     27  C   UNL     1       7.106  -2.603   2.988  0.00  0.00    +0.218 C 
ATOM     28  O   UNL     1       6.355  -3.385   2.443  0.00  0.00    -0.275 OA
ATOM     29  H   UNL     1       8.136  -0.885   2.763  0.00  0.00    +0.149 HD
BRANCH  26  30
ATOM     30  C   UNL     1       7.095  -1.264   0.952  0.00  0.00    +0.104 C 
BRANCH  30  31
ATOM     31  C   UNL     1       7.722   0.033   0.439  0.00  0.00    +0.023 C 
BRANCH  31  32
ATOM     32  C   UNL     1       7.262   0.289  -0.997  0.00  0.00    +0.036 C 
BRANCH  32  36
ATOM     33  C   UNL     1       9.013   3.912  -2.431  0.00  0.00    +0.000 A 
ATOM     34  C   UNL     1       9.670   2.709  -2.610  0.00  0.00    +0.000 A 
ATOM     35  C   UNL     1       9.104   1.537  -2.145  0.00  0.00    +0.003 A 
ATOM     36  C   UNL     1       7.880   1.568  -1.503  0.00  0.00    -0.047 A 
ATOM     37  C   UNL     1       7.224   2.771  -1.323  0.00  0.00    +0.003 A 
ATOM     38  C   UNL     1       7.790   3.943  -1.789  0.00  0.00    +0.000 A 
ENDBRANCH  32  36
ENDBRANCH  31  32
ENDBRANCH  30  31
ENDBRANCH  26  30
ENDBRANCH   1  27
TORSDOF 7
