REMARK  Name = ZINC09222791
REMARK  8 active torsions:
REMARK  status: ('A' for Active; 'I' for Inactive)
REMARK    1  A    between atoms: C_1  and  C_2
REMARK    2  A    between atoms: C_2  and  C_3
REMARK    3  A    between atoms: C_2  and  C_4
REMARK    4  A    between atoms: C_4  and  N_5
REMARK    5  A    between atoms: C_6  and  N_28
REMARK    6  A    between atoms: C_7  and  C_14
REMARK    7  A    between atoms: C_14  and  C_16
REMARK    8  A    between atoms: C_14  and  N_52
REMARK                            x       y       z     vdW  Elec       q    Type
REMARK                         _______ _______ _______ _____ _____    ______ ____
ROOT
ATOM      1  N   UNL     1      -1.166  -0.714   0.138  0.00  0.00    -0.282 N 
ATOM      2  C   UNL     1       0.004  -0.004   0.022  0.00  0.00    +0.107 A 
ATOM      3  C   UNL     1       1.186  -0.677  -0.116  0.00  0.00    +0.046 A 
ATOM      4  C   UNL     1       1.173  -2.080  -0.141  0.00  0.00    +0.258 A 
ATOM      5  O   UNL     1       2.215  -2.702  -0.263  0.00  0.00    -0.267 OA
ATOM      6  N   UNL     1       0.002  -2.737  -0.029  0.00  0.00    -0.275 N 
ATOM      7  H   UNL     1      -0.010  -3.737  -0.047  0.00  0.00    +0.173 HD
ATOM      8  C   UNL     1      -1.153  -2.059   0.107  0.00  0.00    +0.331 A 
ATOM      9  O   UNL     1      -2.198  -2.671   0.206  0.00  0.00    -0.246 OA
ENDROOT
BRANCH   2  10
ATOM     10  N   UNL     1      -0.012   1.367   0.051  0.00  0.00    -0.344 N 
ATOM     11  H   UNL     1       0.822   1.862   0.049  0.00  0.00    +0.144 HD
ATOM     12  H   UNL     1      -0.858   1.841   0.068  0.00  0.00    +0.144 HD
ENDBRANCH   2  10
BRANCH   1  13
ATOM     13  C   UNL     1      -2.438  -0.002   0.292  0.00  0.00    +0.131 C 
BRANCH  13  15
ATOM     14  C   UNL     1      -3.396  -1.053  -1.761  0.00  0.00    +0.009 C 
ATOM     15  C   UNL     1      -3.038   0.273  -1.087  0.00  0.00    +0.003 C 
ATOM     16  C   UNL     1      -4.301   1.124  -0.934  0.00  0.00    +0.009 C 
ENDBRANCH  13  15
ENDBRANCH   1  13
BRANCH   3  17
ATOM     17  C   UNL     1       2.485   0.077  -0.240  0.00  0.00    +0.002 C 
BRANCH  17  18
ATOM     18  C   UNL     1       3.030  -0.087  -1.635  0.00  0.00    -0.056 A 
ATOM     19  C   UNL     1       3.713  -1.239  -1.979  0.00  0.00    +0.003 A 
ATOM     20  C   UNL     1       4.209  -1.393  -3.260  0.00  0.00    +0.015 A 
ATOM     21  C   UNL     1       4.032  -0.389  -4.195  0.00  0.00    +0.018 A 
ATOM     22  C   UNL     1       3.353   0.766  -3.849  0.00  0.00    +0.015 A 
ATOM     23  C   UNL     1       2.853   0.916  -2.569  0.00  0.00    +0.003 A 
ATOM     24 BR   UNL     1       4.717  -0.595  -5.945  0.00  0.00    -0.050 Br
ENDBRANCH  17  18
BRANCH  17  30
ATOM     25  C   UNL     1       2.918  -0.387   2.098  0.00  0.00    -0.049 C 
ATOM     26  C   UNL     1       3.932  -1.002   3.066  0.00  0.00    +0.141 C 
ATOM     27  O   UNL     1       5.181  -0.316   2.940  0.00  0.00    -0.383 OA
ATOM     28  C   UNL     1       5.731  -0.359   1.621  0.00  0.00    +0.141 C 
ATOM     29  C   UNL     1       4.735   0.262   0.638  0.00  0.00    -0.049 C 
ATOM     30  N   UNL     1       3.459  -0.478   0.725  0.00  0.00    +0.390 N 
ATOM     31  H   UNL     1       3.628  -1.465   0.497  0.00  0.00    -0.080 HD
ENDBRANCH  17  30
ENDBRANCH   3  17
TORSDOF 6
