REMARK  Name = ZINC36617824
REMARK  4 active torsions:
REMARK  status: ('A' for Active; 'I' for Inactive)
REMARK    1  A    between atoms: C_2  and  C_8
REMARK    2  A    between atoms: N_9  and  N_10
REMARK    3  A    between atoms: N_13  and  N_14
REMARK    4  A    between atoms: C_15  and  C_16
REMARK                            x       y       z     vdW  Elec       q    Type
REMARK                         _______ _______ _______ _____ _____    ______ ____
ROOT
ATOM      1  N   UNL     1       3.623   3.384   1.665  0.00  0.00    -0.247 N 
ATOM      2  C   UNL     1       4.721   4.092   1.232  0.00  0.00    +0.210 C 
ATOM      3  N   UNL     1       4.595   5.340   0.878  0.00  0.00    -0.369 N 
ATOM      4  N   UNL     1       5.954   3.481   1.173  0.00  0.00    -0.247 N 
ATOM      5  H   UNL     1       3.717   2.455   1.928  0.00  0.00    +0.192 HD
ATOM      6  H   UNL     1       5.369   5.839   0.574  0.00  0.00    +0.159 HD
ATOM      7  H   UNL     1       6.048   2.552   1.437  0.00  0.00    +0.192 HD
ATOM      8  H   UNL     1       3.727   5.771   0.920  0.00  0.00    +0.159 HD
ENDROOT
BRANCH   1  10
ATOM      9  C   UNL     1       1.359   3.381   2.251  0.00  0.00    +0.140 C 
ATOM     10  N   UNL     1       2.368   4.005   1.724  0.00  0.00    -0.179 NA
BRANCH   9  12
ATOM     11  C   UNL     1       2.842   2.250   3.899  0.00  0.00    +0.011 A 
ATOM     12  C   UNL     1       1.584   2.375   3.306  0.00  0.00    -0.005 A 
ATOM     13  C   UNL     1       0.538   1.544   3.716  0.00  0.00    +0.011 A 
ATOM     14  C   UNL     1       0.755   0.606   4.703  0.00  0.00    +0.020 A 
ATOM     15  C   UNL     1       2.004   0.487   5.288  0.00  0.00    +0.041 A 
ATOM     16  C   UNL     1       3.045   1.308   4.886  0.00  0.00    +0.020 A 
ATOM     17 CL   UNL     1       2.268  -0.696   6.531  0.00  0.00    -0.084 Cl
ENDBRANCH   9  12
ENDBRANCH   1  10
BRANCH   4  18
ATOM     18  N   UNL     1       7.072   4.201   0.734  0.00  0.00    -0.179 NA
ATOM     19  C   UNL     1       8.206   3.595   0.557  0.00  0.00    +0.140 C 
BRANCH  19  20
ATOM     20  C   UNL     1       8.236   2.139   0.329  0.00  0.00    -0.005 A 
ATOM     21  C   UNL     1       9.419   1.422   0.525  0.00  0.00    +0.011 A 
ATOM     22  C   UNL     1       9.440   0.060   0.310  0.00  0.00    +0.020 A 
ATOM     23  C   UNL     1       8.291  -0.597  -0.100  0.00  0.00    +0.041 A 
ATOM     24  C   UNL     1       7.116   0.107  -0.297  0.00  0.00    +0.020 A 
ATOM     25  C   UNL     1       7.080   1.469  -0.080  0.00  0.00    +0.011 A 
ATOM     26 CL   UNL     1       8.327  -2.312  -0.370  0.00  0.00    -0.084 Cl
ENDBRANCH  19  20
ENDBRANCH   4  18
TORSDOF 4
