REMARK  Name = ZINC08723697
REMARK  10 active torsions:
REMARK  status: ('A' for Active; 'I' for Inactive)
REMARK    1  A    between atoms: C_1  and  C_2
REMARK    2  A    between atoms: C_2  and  C_4
REMARK    3  A    between atoms: C_2  and  N_60
REMARK    4  A    between atoms: N_6  and  C_7
REMARK    5  A    between atoms: C_8  and  C_15
REMARK    6  A    between atoms: C_21  and  C_23
REMARK    7  A    between atoms: C_26  and  O_31
REMARK    8  A    between atoms: C_28  and  O_29
REMARK    9  A    between atoms: O_29  and  C_30
REMARK   10  A    between atoms: O_31  and  C_32
REMARK                            x       y       z     vdW  Elec       q    Type
REMARK                         _______ _______ _______ _____ _____    ______ ____
ROOT
ATOM      1  C   UNL     1      -0.890   2.972   0.882  0.00  0.00    -0.004 C 
ATOM      2  C   UNL     1      -0.780   1.475   1.177  0.00  0.00    +0.017 C 
ENDROOT
BRANCH   2   7
ATOM      3  C   UNL     1      -2.824   1.369   2.485  0.00  0.00    -0.077 C 
ATOM      4  C   UNL     1      -3.702   0.173   2.930  0.00  0.00    -0.020 C 
ATOM      5  C   UNL     1      -2.781  -1.031   2.601  0.00  0.00    -0.012 C 
ATOM      6  C   UNL     1      -2.065  -0.578   1.311  0.00  0.00    -0.033 C 
ATOM      7  N   UNL     1      -2.144   0.893   1.267  0.00  0.00    +0.392 N 
ATOM      8  H   UNL     1      -2.686   1.179   0.442  0.00  0.00    -0.080 HD
BRANCH   6   9
ATOM      9  C   UNL     1      -0.628  -1.031   1.337  0.00  0.00    -0.019 A 
ATOM     10  C   UNL     1      -0.059  -1.457   2.523  0.00  0.00    +0.009 A 
ATOM     11  C   UNL     1       1.256  -1.878   2.549  0.00  0.00    +0.046 A 
ATOM     12  C   UNL     1       2.014  -1.864   1.387  0.00  0.00    +0.124 A 
ATOM     13  C   UNL     1       1.448  -1.432   0.197  0.00  0.00    +0.091 A 
ATOM     14  C   UNL     1       0.126  -1.015   0.172  0.00  0.00    +0.125 A 
BRANCH  14  15
ATOM     15  O   UNL     1      -0.432  -0.591  -0.992  0.00  0.00    -0.495 OA
ATOM     16  C   UNL     1       0.402  -0.601  -2.152  0.00  0.00    +0.277 C 
ENDBRANCH  14  15
BRANCH  12  17
ATOM     17  O   UNL     1       3.310  -2.272   1.414  0.00  0.00    -0.495 OA
ATOM     18  C   UNL     1       3.827  -2.704   2.674  0.00  0.00    +0.277 C 
ENDBRANCH  12  17
ENDBRANCH   6   9
ENDBRANCH   2   7
BRANCH   2  19
ATOM     19  C   UNL     1      -0.053   1.272   2.482  0.00  0.00    +0.204 C 
ATOM     20  O   UNL     1      -0.604   0.704   3.401  0.00  0.00    -0.277 OA
ATOM     21  N   UNL     1       1.209   1.723   2.627  0.00  0.00    -0.281 N 
ATOM     22  H   UNL     1       1.649   2.178   1.893  0.00  0.00    +0.155 HD
BRANCH  21  23
ATOM     23  C   UNL     1       1.877   1.536   3.828  0.00  0.00    +0.084 A 
ATOM     24  C   UNL     1       3.165   1.919   4.164  0.00  0.00    +0.068 A 
ATOM     25  C   UNL     1       3.635   1.604   5.513  0.00  0.00    -0.023 A 
ATOM     26  C   UNL     1       2.749   0.954   6.288  0.00  0.00    -0.004 A 
ATOM     27  S   UNL     1       1.308   0.763   5.267  0.00  0.00    -0.077 S 
ATOM     28  C   UNL     1       3.307   0.656   7.654  0.00  0.00    +0.043 C 
ATOM     29  C   UNL     1       4.834   0.828   7.496  0.00  0.00    +0.010 C 
ATOM     30  C   UNL     1       4.918   1.817   6.316  0.00  0.00    +0.037 C 
BRANCH  24  31
ATOM     31  C   UNL     1       4.025   2.618   3.204  0.00  0.00    +0.244 C 
ATOM     32  O   UNL     1       4.017   3.834   3.152  0.00  0.00    -0.270 OA
ATOM     33  N   UNL     1       4.824   1.913   2.378  0.00  0.00    -0.325 N 
ATOM     34  H   UNL     1       4.831   0.944   2.419  0.00  0.00    +0.145 HD
ATOM     35  H   UNL     1       5.393   2.376   1.743  0.00  0.00    +0.145 HD
ENDBRANCH  24  31
ENDBRANCH  21  23
ENDBRANCH   2  19
TORSDOF 7
