REMARK  Name = ZINC43222791
REMARK  13 active torsions:
REMARK  status: ('A' for Active; 'I' for Inactive)
REMARK    1  A    between atoms: C_1  and  C_2
REMARK    2  A    between atoms: C_2  and  C_4
REMARK    3  A    between atoms: C_2  and  N_12
REMARK    4  A    between atoms: C_4  and  C_5
REMARK    5  A    between atoms: C_5  and  C_6
REMARK    6  A    between atoms: C_13  and  C_15
REMARK    7  A    between atoms: C_20  and  C_22
REMARK    8  A    between atoms: N_24  and  C_25
REMARK    9  A    between atoms: C_25  and  C_27
REMARK   10  A    between atoms: C_25  and  C_28
REMARK   11  A    between atoms: C_28  and  C_29
REMARK   12  A    between atoms: C_29  and  C_30
REMARK   13  A    between atoms: C_29  and  C_31
REMARK                            x       y       z     vdW  Elec       q    Type
REMARK                         _______ _______ _______ _____ _____    ______ ____
ROOT
ATOM      1  C   UNL     1       2.616  -0.859   2.538  0.00  0.00    +0.068 C 
ATOM      2  C   UNL     1       2.117  -2.275   2.898  0.00  0.00    -0.069 C 
ATOM      3  N   UNL     1       3.076  -3.192   2.230  0.00  0.00    +0.380 N 
ATOM      4  C   UNL     1       4.397  -2.537   2.417  0.00  0.00    -0.069 C 
ATOM      5  C   UNL     1       4.117  -1.029   2.222  0.00  0.00    +0.068 C 
ATOM      6  H   UNL     1       3.066  -4.098   2.673  0.00  0.00    -0.086 HD
ATOM      7  H   UNL     1       2.859  -3.275   1.248  0.00  0.00    -0.086 HD
ENDROOT
BRANCH   1   9
ATOM      8  N   UNL     1       0.550  -0.144   1.382  0.00  0.00    -0.313 N 
ATOM      9  C   UNL     1       1.883  -0.337   1.330  0.00  0.00    +0.215 C 
ATOM     10  O   UNL     1       2.491  -0.091   0.310  0.00  0.00    -0.276 OA
ATOM     11  H   UNL     1       0.063  -0.341   2.198  0.00  0.00    +0.149 HD
BRANCH   8  13
ATOM     12  C   UNL     1      -0.090   1.892   0.187  0.00  0.00    +0.028 C 
ATOM     13  C   UNL     1      -0.163   0.363   0.207  0.00  0.00    +0.070 C 
BRANCH  13  14
ATOM     14  C   UNL     1      -1.627  -0.076   0.270  0.00  0.00    +0.026 C 
BRANCH  14  15
ATOM     15  C   UNL     1      -1.707  -1.600   0.165  0.00  0.00    +0.037 C 
BRANCH  15  16
ATOM     16  C   UNL     1      -3.149  -2.034   0.227  0.00  0.00    -0.047 A 
ATOM     17  C   UNL     1      -3.735  -2.313   1.448  0.00  0.00    +0.003 A 
ATOM     18  C   UNL     1      -5.058  -2.710   1.505  0.00  0.00    +0.000 A 
ATOM     19  C   UNL     1      -5.795  -2.828   0.341  0.00  0.00    +0.000 A 
ATOM     20  C   UNL     1      -5.210  -2.547  -0.879  0.00  0.00    +0.000 A 
ATOM     21  C   UNL     1      -3.888  -2.146  -0.936  0.00  0.00    +0.003 A 
ENDBRANCH  15  16
ENDBRANCH  14  15
ENDBRANCH  13  14
ENDBRANCH   8  13
ENDBRANCH   1   9
BRANCH   5  22
ATOM     22  C   UNL     1       4.948  -0.213   3.177  0.00  0.00    +0.215 C 
ATOM     23  O   UNL     1       4.409   0.450   4.038  0.00  0.00    -0.276 OA
ATOM     24  N   UNL     1       6.292  -0.219   3.075  0.00  0.00    -0.313 N 
ATOM     25  H   UNL     1       6.724  -0.749   2.387  0.00  0.00    +0.149 HD
BRANCH  24  26
ATOM     26  C   UNL     1       7.101   0.575   4.004  0.00  0.00    +0.070 C 
ATOM     27  C   UNL     1       7.341  -0.227   5.285  0.00  0.00    +0.028 C 
BRANCH  26  28
ATOM     28  C   UNL     1       8.444   0.910   3.353  0.00  0.00    +0.025 C 
BRANCH  28  29
ATOM     29  C   UNL     1       8.212   1.818   2.143  0.00  0.00    -0.015 C 
ATOM     30  C   UNL     1       7.666   3.166   2.615  0.00  0.00    +0.007 C 
ATOM     31  C   UNL     1       9.536   2.033   1.406  0.00  0.00    +0.007 C 
ENDBRANCH  28  29
ENDBRANCH  26  28
ENDBRANCH  24  26
ENDBRANCH   5  22
TORSDOF 9
