REMARK  Name = ZINC08767407
REMARK  11 active torsions:
REMARK  status: ('A' for Active; 'I' for Inactive)
REMARK    1  A    between atoms: C_2  and  C_10
REMARK    2  A    between atoms: C_3  and  O_9
REMARK    3  A    between atoms: N_11  and  C_12
REMARK    4  A    between atoms: C_12  and  C_13
REMARK    5  A    between atoms: C_13  and  C_14
REMARK    6  A    between atoms: C_14  and  C_15
REMARK    7  A    between atoms: C_15  and  C_16
REMARK    8  A    between atoms: C_16  and  C_17
REMARK    9  A    between atoms: C_17  and  N_18
REMARK   10  A    between atoms: C_19  and  C_20
REMARK   11  A    between atoms: C_21  and  O_28
REMARK                            x       y       z     vdW  Elec       q    Type
REMARK                         _______ _______ _______ _____ _____    ______ ____
ROOT
ATOM      1  C   UNL     1       3.472   7.567   1.760  0.00  0.00    +0.002 C 
ENDROOT
BRANCH   1   2
ATOM      2  C   UNL     1       3.537   6.042   1.662  0.00  0.00    +0.021 C 
BRANCH   2   3
ATOM      3  C   UNL     1       3.200   5.608   0.234  0.00  0.00    +0.112 C 
BRANCH   3   5
ATOM      4  C   UNL     1       2.189   3.469  -0.111  0.00  0.00    +0.090 C 
ATOM      5  N   UNL     1       3.263   4.147   0.139  0.00  0.00    -0.390 N 
ATOM      6  H   UNL     1       4.108   3.689   0.265  0.00  0.00    +0.159 HD
BRANCH   4   8
ATOM      7  C   UNL     1       1.113   1.262  -0.521  0.00  0.00    +0.033 A 
ATOM      8  C   UNL     1       2.237   1.996  -0.133  0.00  0.00    +0.035 A 
ATOM      9  C   UNL     1       3.410   1.323   0.235  0.00  0.00    +0.144 A 
ATOM     10  C   UNL     1       3.445  -0.063   0.211  0.00  0.00    +0.084 A 
ATOM     11  C   UNL     1       2.326  -0.778  -0.175  0.00  0.00    +0.043 A 
ATOM     12  C   UNL     1       1.164  -0.116  -0.539  0.00  0.00    +0.043 A 
ATOM     13 CL   UNL     1      -0.233  -1.026  -1.022  0.00  0.00    -0.083 Cl
ATOM     14 CL   UNL     1       4.895  -0.902   0.666  0.00  0.00    -0.080 Cl
BRANCH   9  15
ATOM     15  O   UNL     1       4.508   2.026   0.614  0.00  0.00    -0.505 OA
ATOM     16  H   UNL     1       4.551   2.208   1.562  0.00  0.00    +0.292 HD
ENDBRANCH   9  15
ENDBRANCH   4   8
ENDBRANCH   3   5
ENDBRANCH   2   3
ENDBRANCH   1   2
BRANCH   1  17
ATOM     17  C   UNL     1       3.808   8.001   3.188  0.00  0.00    +0.002 C 
BRANCH  17  18
ATOM     18  C   UNL     1       3.744   9.526   3.287  0.00  0.00    +0.021 C 
BRANCH  18  19
ATOM     19  C   UNL     1       4.080   9.960   4.715  0.00  0.00    +0.112 C 
BRANCH  19  20
ATOM     20  N   UNL     1       4.018  11.421   4.809  0.00  0.00    -0.390 N 
ATOM     21  C   UNL     1       3.125  11.983   5.558  0.00  0.00    +0.090 C 
ATOM     22  H   UNL     1       4.646  11.966   4.310  0.00  0.00    +0.159 HD
BRANCH  21  23
ATOM     23  C   UNL     1       3.021  13.453   5.604  0.00  0.00    +0.035 A 
ATOM     24  C   UNL     1       3.815  14.242   4.760  0.00  0.00    +0.144 A 
ATOM     25  C   UNL     1       3.709  15.624   4.811  0.00  0.00    +0.084 A 
ATOM     26  C   UNL     1       2.825  16.219   5.690  0.00  0.00    +0.043 A 
ATOM     27  C   UNL     1       2.038  15.443   6.526  0.00  0.00    +0.043 A 
ATOM     28  C   UNL     1       2.127  14.067   6.484  0.00  0.00    +0.033 A 
ATOM     29 CL   UNL     1       0.931  16.204   7.625  0.00  0.00    -0.083 Cl
ATOM     30 CL   UNL     1       4.690  16.607   3.770  0.00  0.00    -0.080 Cl
BRANCH  24  31
ATOM     31  O   UNL     1       4.684  13.656   3.898  0.00  0.00    -0.505 OA
ATOM     32  H   UNL     1       4.305  13.460   3.030  0.00  0.00    +0.292 HD
ENDBRANCH  24  31
ENDBRANCH  21  23
ENDBRANCH  19  20
ENDBRANCH  18  19
ENDBRANCH  17  18
ENDBRANCH   1  17
TORSDOF 11
