REMARK  Name = ZINC12541871
REMARK  10 active torsions:
REMARK  status: ('A' for Active; 'I' for Inactive)
REMARK    1  A    between atoms: C_1  and  C_2
REMARK    2  A    between atoms: C_2  and  C_29
REMARK    3  A    between atoms: C_4  and  N_9
REMARK    4  A    between atoms: C_6  and  C_7
REMARK    5  A    between atoms: C_6  and  C_8
REMARK    6  A    between atoms: N_9  and  C_10
REMARK    7  A    between atoms: C_13  and  S_19
REMARK    8  A    between atoms: C_15  and  N_16
REMARK    9  A    between atoms: S_19  and  N_22
REMARK   10  A    between atoms: N_22  and  C_23
REMARK                            x       y       z     vdW  Elec       q    Type
REMARK                         _______ _______ _______ _____ _____    ______ ____
ROOT
ATOM      1  C   UNL     1       1.276   2.770   0.928  0.00  0.00    +0.058 A 
ATOM      2  C   UNL     1       0.199   3.637   0.789  0.00  0.00    +0.027 A 
ATOM      3  C   UNL     1      -1.060   3.135   0.529  0.00  0.00    +0.031 A 
ATOM      4  C   UNL     1      -1.250   1.771   0.402  0.00  0.00    +0.111 A 
ATOM      5  C   UNL     1      -0.181   0.905   0.544  0.00  0.00    +0.063 A 
ATOM      6  C   UNL     1       1.081   1.401   0.804  0.00  0.00    +0.149 A 
ENDROOT
BRANCH   6   7
ATOM      7  N   UNL     1       2.226   0.474   0.951  0.00  0.00    +0.058 N 
ATOM      8  O   UNL     1       2.038  -0.730   0.950  0.00  0.00    -0.126 OA
ATOM      9  O   UNL     1       3.355   0.914   1.074  0.00  0.00    -0.126 OA
ENDBRANCH   6   7
BRANCH   4  10
ATOM     10  S   UNL     1      -2.858   1.134   0.063  0.00  0.00    +0.072 S 
ATOM     11  O   UNL     1      -3.544   2.137  -0.674  0.00  0.00    -0.150 OA
ATOM     12  O   UNL     1      -2.676  -0.185  -0.432  0.00  0.00    -0.150 OA
BRANCH  10  13
ATOM     13  N   UNL     1      -3.643   0.992   1.514  0.00  0.00    -0.216 N 
ATOM     14  H   UNL     1      -4.439   1.519   1.688  0.00  0.00    +0.174 HD
BRANCH  13  15
ATOM     15  C   UNL     1      -3.161   0.113   2.486  0.00  0.00    +0.048 A 
ATOM     16  C   UNL     1      -2.783  -1.176   2.133  0.00  0.00    +0.024 A 
ATOM     17  C   UNL     1      -2.302  -2.041   3.096  0.00  0.00    +0.002 A 
ATOM     18  C   UNL     1      -2.206  -1.628   4.413  0.00  0.00    +0.000 A 
ATOM     19  C   UNL     1      -2.586  -0.347   4.768  0.00  0.00    +0.002 A 
ATOM     20  C   UNL     1      -3.063   0.524   3.809  0.00  0.00    +0.024 A 
ENDBRANCH  13  15
ENDBRANCH  10  13
ENDBRANCH   4  10
BRANCH   1  21
ATOM     21  N   UNL     1       2.552   3.275   1.191  0.00  0.00    -0.339 N 
ATOM     22  H   UNL     1       3.317   2.679   1.200  0.00  0.00    +0.146 HD
BRANCH  21  26
ATOM     23  C   UNL     1       3.263   6.876   3.627  0.00  0.00    -0.010 C 
ATOM     24  C   UNL     1       4.236   6.396   2.543  0.00  0.00    -0.072 C 
ATOM     25  C   UNL     1       4.008   4.911   2.274  0.00  0.00    +0.009 C 
ATOM     26  C   UNL     1       2.734   4.708   1.454  0.00  0.00    +0.068 C 
ATOM     27  C   UNL     1       2.889   5.448   0.125  0.00  0.00    +0.009 C 
ATOM     28  C   UNL     1       3.102   6.940   0.370  0.00  0.00    -0.072 C 
ATOM     29  C   UNL     1       1.771   7.588   0.771  0.00  0.00    -0.010 C 
ATOM     30  C   UNL     1       3.533   7.574  -0.971  0.00  0.00    -0.010 C 
ATOM     31  C   UNL     1       5.665   6.552   3.110  0.00  0.00    -0.010 C 
ATOM     32  N   UNL     1       4.181   7.268   1.339  0.00  0.00    +0.386 N 
ATOM     33  H   UNL     1       5.081   7.191   0.850  0.00  0.00    -0.084 HD
ATOM     34  H   UNL     1       4.044   8.236   1.653  0.00  0.00    -0.084 HD
ENDBRANCH  21  26
ENDBRANCH   1  21
TORSDOF 6
