REMARK  Name = ZINC41123987
REMARK  9 active torsions:
REMARK  status: ('A' for Active; 'I' for Inactive)
REMARK    1  A    between atoms: C_1  and  C_2
REMARK    2  A    between atoms: C_5  and  C_20
REMARK    3  A    between atoms: C_6  and  C_8
REMARK    4  A    between atoms: C_10  and  C_13
REMARK    5  A    between atoms: C_13  and  C_15
REMARK    6  A    between atoms: C_13  and  N_19
REMARK    7  A    between atoms: C_15  and  C_16
REMARK    8  A    between atoms: C_15  and  C_17
REMARK    9  A    between atoms: C_15  and  C_18
REMARK                            x       y       z     vdW  Elec       q    Type
REMARK                         _______ _______ _______ _____ _____    ______ ____
ROOT
ATOM      1  C   UNL     1       0.307  -3.151   2.232  0.00  0.00    +0.259 A 
ATOM      2  N   UNL     1       0.376  -2.790   3.493  0.00  0.00    -0.194 NA
ATOM      3  C   UNL     1       0.506  -3.868   4.270  0.00  0.00    +0.158 A 
ATOM      4  N   UNL     1       0.521  -4.934   3.521  0.00  0.00    -0.063 NA
ATOM      5  O   UNL     1       0.387  -4.492   2.178  0.00  0.00    -0.333 OA
ENDROOT
BRANCH   1  11
ATOM      6  C   UNL     1       1.665   0.982  -0.212  0.00  0.00    +0.044 C 
ATOM      7  C   UNL     1       0.810  -0.254  -0.105  0.00  0.00    -0.050 A 
ATOM      8  C   UNL     1      -0.116  -0.540  -1.092  0.00  0.00    +0.003 A 
ATOM      9  C   UNL     1      -0.905  -1.673  -1.002  0.00  0.00    +0.004 A 
ATOM     10  C   UNL     1      -0.772  -2.526   0.075  0.00  0.00    -0.038 A 
ATOM     11  C   UNL     1       0.160  -2.243   1.075  0.00  0.00    +0.043 A 
ATOM     12  C   UNL     1       0.957  -1.101   0.974  0.00  0.00    +0.017 A 
ATOM     13  C   UNL     1      -1.633  -3.759   0.173  0.00  0.00    +0.044 C 
ENDBRANCH   1  11
BRANCH   3  14
ATOM     14  C   UNL     1       0.617  -3.854   5.772  0.00  0.00    +0.003 C 
BRANCH  14  15
ATOM     15  C   UNL     1       2.066  -4.130   6.180  0.00  0.00    -0.044 C 
ATOM     16  C   UNL     1       2.975  -3.049   5.591  0.00  0.00    +0.009 C 
ATOM     17  C   UNL     1       2.178  -4.116   7.705  0.00  0.00    +0.009 C 
ATOM     18  C   UNL     1       2.493  -5.500   5.649  0.00  0.00    +0.009 C 
ENDBRANCH  14  15
BRANCH  14  19
ATOM     19  N   UNL     1      -0.257  -4.892   6.337  0.00  0.00    +0.385 N 
ATOM     20  H   UNL     1       0.025  -5.795   5.988  0.00  0.00    -0.089 HD
ATOM     21  H   UNL     1      -0.182  -4.883   7.344  0.00  0.00    -0.089 HD
ATOM     22  H   UNL     1      -1.212  -4.710   6.069  0.00  0.00    -0.089 HD
ENDBRANCH  14  19
ENDBRANCH   3  14
TORSDOF 4
