REMARK  Name = ZINC39637040
REMARK  15 active torsions:
REMARK  status: ('A' for Active; 'I' for Inactive)
REMARK    1  A    between atoms: C_1  and  C_2
REMARK    2  A    between atoms: C_2  and  C_3
REMARK    3  A    between atoms: C_3  and  C_4
REMARK    4  A    between atoms: C_4  and  C_5
REMARK    5  A    between atoms: C_5  and  C_7
REMARK    6  A    between atoms: C_5  and  C_8
REMARK    7  A    between atoms: C_12  and  C_21
REMARK    8  A    between atoms: N_23  and  C_24
REMARK    9  A    between atoms: C_24  and  C_25
REMARK   10  A    between atoms: C_27  and  O_35
REMARK   11  A    between atoms: C_28  and  O_33
REMARK   12  A    between atoms: C_29  and  O_31
REMARK   13  A    between atoms: O_31  and  C_32
REMARK   14  A    between atoms: O_33  and  C_34
REMARK   15  A    between atoms: O_35  and  C_36
REMARK                            x       y       z     vdW  Elec       q    Type
REMARK                         _______ _______ _______ _____ _____    ______ ____
ROOT
ATOM      1  C   UNL     1      -2.959  -3.842   0.024  0.00  0.00    +0.218 C 
ATOM      2  O   UNL     1      -1.857  -4.345  -0.029  0.00  0.00    -0.275 OA
ATOM      3  N   UNL     1      -4.058  -4.619  -0.041  0.00  0.00    -0.300 N 
ATOM      4  C   UNL     1      -5.476  -4.191   0.001  0.00  0.00    +0.121 C 
ATOM      5  C   UNL     1      -6.188  -5.099  -1.027  0.00  0.00    +0.100 C 
ATOM      6  C   UNL     1      -5.296  -6.347  -1.132  0.00  0.00    -0.004 C 
ATOM      7  C   UNL     1      -4.122  -6.094  -0.175  0.00  0.00    +0.115 C 
ATOM      8  C   UNL     1      -6.071  -7.589  -0.703  0.00  0.00    -0.010 C 
ATOM      9  C   UNL     1      -5.182  -8.824  -0.871  0.00  0.00    -0.082 C 
ATOM     10  N   UNL     1      -4.767  -8.943  -2.274  0.00  0.00    +0.379 N 
ATOM     11  C   UNL     1      -3.943  -7.788  -2.652  0.00  0.00    -0.082 C 
ATOM     12  C   UNL     1      -4.781  -6.509  -2.559  0.00  0.00    -0.010 C 
ATOM     13  H   UNL     1      -4.232  -9.790  -2.394  0.00  0.00    -0.086 HD
ATOM     14  H   UNL     1      -5.585  -8.978  -2.864  0.00  0.00    -0.086 HD
ENDROOT
BRANCH   5  15
ATOM     15  C   UNL     1      -6.285  -4.406  -2.362  0.00  0.00    +0.218 C 
ATOM     16  O   UNL     1      -5.434  -3.607  -2.693  0.00  0.00    -0.275 OA
ATOM     17  N   UNL     1      -7.316  -4.674  -3.187  0.00  0.00    -0.311 N 
ATOM     18  H   UNL     1      -7.996  -5.313  -2.922  0.00  0.00    +0.149 HD
BRANCH  17  19
ATOM     19  C   UNL     1      -7.409  -4.000  -4.485  0.00  0.00    +0.139 C 
BRANCH  19  20
ATOM     20  C   UNL     1      -8.644  -4.473  -5.208  0.00  0.00    -0.023 A 
ATOM     21  C   UNL     1      -8.577  -5.575  -6.039  0.00  0.00    +0.054 A 
ATOM     22  C   UNL     1      -9.710  -6.013  -6.707  0.00  0.00    +0.165 A 
ATOM     23  C   UNL     1     -10.916  -5.341  -6.539  0.00  0.00    +0.204 A 
ATOM     24  C   UNL     1     -10.979  -4.234  -5.703  0.00  0.00    +0.165 A 
ATOM     25  C   UNL     1      -9.842  -3.805  -5.035  0.00  0.00    +0.054 A 
BRANCH  24  26
ATOM     26  O   UNL     1     -12.157  -3.573  -5.536  0.00  0.00    -0.491 OA
ATOM     27  C   UNL     1     -12.148  -2.443  -4.661  0.00  0.00    +0.277 C 
ENDBRANCH  24  26
BRANCH  23  28
ATOM     28  O   UNL     1     -12.031  -5.768  -7.193  0.00  0.00    -0.488 OA
ATOM     29  C   UNL     1     -12.848  -6.729  -6.523  0.00  0.00    +0.277 C 
ENDBRANCH  23  28
BRANCH  22  30
ATOM     30  O   UNL     1      -9.643  -7.097  -7.525  0.00  0.00    -0.491 OA
ATOM     31  C   UNL     1      -8.371  -7.738  -7.649  0.00  0.00    +0.277 C 
ENDBRANCH  22  30
ENDBRANCH  19  20
ENDBRANCH  17  19
ENDBRANCH   5  15
BRANCH   1  32
ATOM     32  C   UNL     1      -3.099  -2.348   0.161  0.00  0.00    +0.072 C 
ATOM     33  C   UNL     1      -3.857  -2.023   1.450  0.00  0.00    +0.017 C 
BRANCH  32  34
ATOM     34  C   UNL     1      -1.710  -1.708   0.211  0.00  0.00    +0.012 C 
BRANCH  34  35
ATOM     35  C   UNL     1      -1.851  -0.184   0.225  0.00  0.00    +0.000 C 
BRANCH  35  37
ATOM     36  C   UNL     1      -0.603   1.979   0.288  0.00  0.00    +0.004 C 
ATOM     37  C   UNL     1      -0.462   0.456   0.274  0.00  0.00    -0.003 C 
ENDBRANCH  35  37
ENDBRANCH  34  35
ENDBRANCH  32  34
ENDBRANCH   1  32
TORSDOF 10
