REMARK  Name = ZINC08556714
REMARK  10 active torsions:
REMARK  status: ('A' for Active; 'I' for Inactive)
REMARK    1  A    between atoms: C_1  and  C_2
REMARK    2  A    between atoms: C_2  and  C_3
REMARK    3  A    between atoms: C_2  and  C_4
REMARK    4  A    between atoms: C_2  and  N_5
REMARK    5  A    between atoms: C_6  and  C_8
REMARK    6  A    between atoms: C_13  and  N_14
REMARK    7  A    between atoms: N_14  and  C_15
REMARK    8  A    between atoms: C_15  and  N_17
REMARK    9  A    between atoms: C_18  and  C_20
REMARK   10  A    between atoms: C_21  and  C_22
REMARK                            x       y       z     vdW  Elec       q    Type
REMARK                         _______ _______ _______ _____ _____    ______ ____
ROOT
ATOM      1  N   UNL     1      -3.703   2.932   0.247  0.00  0.00    -0.296 N 
ATOM      2  H   UNL     1      -3.048   3.469  -0.225  0.00  0.00    +0.154 HD
ENDROOT
BRANCH   1   8
ATOM      3  C   UNL     1      -2.464   0.851   0.227  0.00  0.00    +0.058 A 
ATOM      4  C   UNL     1      -2.453  -0.541   0.104  0.00  0.00    +0.015 A 
ATOM      5  C   UNL     1      -3.634  -1.222  -0.097  0.00  0.00    +0.001 A 
ATOM      6  C   UNL     1      -4.833  -0.533  -0.190  0.00  0.00    +0.002 A 
ATOM      7  C   UNL     1      -4.859   0.842  -0.076  0.00  0.00    +0.024 A 
ATOM      8  C   UNL     1      -3.679   1.545   0.132  0.00  0.00    +0.045 A 
BRANCH   3  10
ATOM      9  N   UNL     1      -0.054   0.910   0.638  0.00  0.00    -0.307 N 
ATOM     10  C   UNL     1      -1.205   1.586   0.448  0.00  0.00    +0.246 C 
ATOM     11  O   UNL     1      -1.204   2.802   0.459  0.00  0.00    -0.270 OA
ATOM     12  H   UNL     1      -0.055  -0.060   0.629  0.00  0.00    +0.150 HD
BRANCH   9  14
ATOM     13  C   UNL     1       1.074   2.509   2.106  0.00  0.00    +0.031 C 
ATOM     14  C   UNL     1       1.198   1.640   0.852  0.00  0.00    +0.026 C 
ATOM     15  C   UNL     1       2.345   0.644   1.033  0.00  0.00    +0.031 C 
ATOM     16  C   UNL     1       1.482   2.531  -0.359  0.00  0.00    +0.031 C 
ENDBRANCH   9  14
ENDBRANCH   3  10
ENDBRANCH   1   8
BRANCH   1  17
ATOM     17  C   UNL     1      -4.637   3.529   1.014  0.00  0.00    +0.141 C 
ATOM     18  S   UNL     1      -5.711   2.579   1.950  0.00  0.00    -0.018 S 
BRANCH  17  19
ATOM     19  N   UNL     1      -4.725   4.873   1.045  0.00  0.00    -0.264 N 
ATOM     20  C   UNL     1      -5.659   5.470   1.812  0.00  0.00    +0.242 C 
ATOM     21  O   UNL     1      -6.423   4.794   2.478  0.00  0.00    -0.270 OA
ATOM     22  H   UNL     1      -4.117   5.412   0.515  0.00  0.00    +0.157 HD
BRANCH  20  23
ATOM     23  C   UNL     1      -5.752   6.880   1.845  0.00  0.00    +0.069 C 
ATOM     24  C   UNL     1      -6.692   7.481   2.618  0.00  0.00    +0.020 C 
BRANCH  24  25
ATOM     25  C   UNL     1      -6.785   8.893   2.650  0.00  0.00    +0.012 A 
ATOM     26  C   UNL     1      -7.665   9.697   3.365  0.00  0.00    +0.015 A 
ATOM     27  C   UNL     1      -7.533  11.054   3.211  0.00  0.00    +0.008 A 
ATOM     28  C   UNL     1      -6.569  11.539   2.384  0.00  0.00    +0.046 A 
ATOM     29  S   UNL     1      -5.798  10.104   1.790  0.00  0.00    -0.097 S 
ENDBRANCH  24  25
ENDBRANCH  20  23
ENDBRANCH  17  19
ENDBRANCH   1  17
TORSDOF 7
