REMARK  Name = ZINC59447156
REMARK  12 active torsions:
REMARK  status: ('A' for Active; 'I' for Inactive)
REMARK    1  A    between atoms: C_1  and  O_2
REMARK    2  A    between atoms: O_2  and  C_3
REMARK    3  A    between atoms: C_6  and  N_9
REMARK    4  A    between atoms: C_10  and  C_12
REMARK    5  A    between atoms: C_12  and  N_13
REMARK    6  A    between atoms: N_13  and  C_14
REMARK    7  A    between atoms: C_14  and  C_15
REMARK    8  A    between atoms: C_15  and  C_16
REMARK    9  A    between atoms: C_16  and  N_17
REMARK   10  A    between atoms: N_17  and  C_18
REMARK   11  A    between atoms: C_21  and  C_27
REMARK   12  A    between atoms: C_23  and  N_24
REMARK                            x       y       z     vdW  Elec       q    Type
REMARK                         _______ _______ _______ _____ _____    ______ ____
ROOT
ATOM      1  C   UNL     1      -7.402  -6.757  -0.118  0.00  0.00    -0.080 C 
ENDROOT
BRANCH   1   2
ATOM      2  N   UNL     1      -6.107  -6.082   0.041  0.00  0.00    +0.385 N 
ATOM      3  H   UNL     1      -5.533  -6.260  -0.769  0.00  0.00    -0.085 HD
ATOM      4  H   UNL     1      -5.643  -6.434   0.865  0.00  0.00    -0.085 HD
BRANCH   2   5
ATOM      5  C   UNL     1      -6.323  -4.636   0.181  0.00  0.00    +0.015 C 
BRANCH   5   7
ATOM      6  N   UNL     1      -4.946  -2.604   0.491  0.00  0.00    -0.287 N 
ATOM      7  C   UNL     1      -4.994  -3.943   0.345  0.00  0.00    +0.200 C 
ATOM      8  O   UNL     1      -3.969  -4.590   0.345  0.00  0.00    -0.278 OA
ATOM      9  H   UNL     1      -5.768  -2.095   0.566  0.00  0.00    +0.155 HD
BRANCH   6  13
ATOM     10  C   UNL     1      -1.264  -0.652   0.617  0.00  0.00    +0.120 A 
ATOM     11  C   UNL     1      -1.421  -1.784  -0.169  0.00  0.00    +0.047 A 
ATOM     12  C   UNL     1      -2.640  -2.431  -0.211  0.00  0.00    +0.027 A 
ATOM     13  C   UNL     1      -3.708  -1.948   0.533  0.00  0.00    +0.034 A 
ATOM     14  C   UNL     1      -3.550  -0.815   1.319  0.00  0.00    +0.027 A 
ATOM     15  C   UNL     1      -2.329  -0.172   1.365  0.00  0.00    +0.047 A 
BRANCH  10  17
ATOM     16  C   UNL     1       0.990  -0.564  -0.138  0.00  0.00    +0.277 C 
ATOM     17  O   UNL     1      -0.063  -0.015   0.658  0.00  0.00    -0.495 OA
ENDBRANCH  10  17
ENDBRANCH   6  13
ENDBRANCH   5   7
ENDBRANCH   2   5
ENDBRANCH   1   2
BRANCH   1  18
ATOM     18  C   UNL     1      -7.177  -8.264  -0.264  0.00  0.00    -0.000 C 
BRANCH  18  19
ATOM     19  C   UNL     1      -8.525  -8.967  -0.430  0.00  0.00    +0.100 C 
BRANCH  19  20
ATOM     20  N   UNL     1      -8.310 -10.409  -0.569  0.00  0.00    -0.342 N 
ATOM     21  H   UNL     1      -7.410 -10.770  -0.547  0.00  0.00    +0.146 HD
BRANCH  20  22
ATOM     22  C   UNL     1      -9.401 -11.265  -0.734  0.00  0.00    +0.058 A 
ATOM     23  C   UNL     1     -10.683 -10.744  -0.856  0.00  0.00    +0.026 A 
ATOM     24  C   UNL     1     -11.760 -11.593  -1.020  0.00  0.00    +0.014 A 
ATOM     25  C   UNL     1     -11.563 -12.962  -1.062  0.00  0.00    +0.057 A 
ATOM     26  C   UNL     1     -10.288 -13.484  -0.941  0.00  0.00    +0.047 A 
ATOM     27  C   UNL     1      -9.206 -12.640  -0.782  0.00  0.00    +0.147 A 
BRANCH  25  28
ATOM     28  C   UNL     1     -12.740 -13.885  -1.241  0.00  0.00    +0.417 C 
ATOM     29  F   UNL     1     -13.914 -13.131  -1.339  0.00  0.00    -0.166 F 
ATOM     30  F   UNL     1     -12.569 -14.638  -2.408  0.00  0.00    -0.166 F 
ATOM     31  F   UNL     1     -12.829 -14.745  -0.141  0.00  0.00    -0.166 F 
ENDBRANCH  25  28
BRANCH  27  32
ATOM     32  N   UNL     1      -7.842 -13.199  -0.658  0.00  0.00    +0.058 N 
ATOM     33  O   UNL     1      -6.907 -12.633  -1.175  0.00  0.00    -0.126 OA
ATOM     34  O   UNL     1      -7.662 -14.223  -0.041  0.00  0.00    -0.126 OA
ENDBRANCH  27  32
ENDBRANCH  20  22
ENDBRANCH  19  20
ENDBRANCH  18  19
ENDBRANCH   1  18
TORSDOF 11
