REMARK  Name = ZINC34868031
REMARK  16 active torsions:
REMARK  status: ('A' for Active; 'I' for Inactive)
REMARK    1  A    between atoms: C_1  and  C_2
REMARK    2  A    between atoms: C_5  and  C_8
REMARK    3  A    between atoms: C_8  and  C_10
REMARK    4  A    between atoms: C_8  and  O_16
REMARK    5  A    between atoms: O_16  and  C_17
REMARK    6  A    between atoms: C_17  and  C_18
REMARK    7  A    between atoms: C_18  and  C_20
REMARK    8  A    between atoms: C_18  and  O_38
REMARK    9  A    between atoms: C_20  and  N_21
REMARK   10  A    between atoms: N_21  and  C_22
REMARK   11  A    between atoms: C_22  and  C_24
REMARK   12  A    between atoms: C_22  and  C_26
REMARK   13  A    between atoms: C_24  and  O_25
REMARK   14  A    between atoms: C_26  and  C_28
REMARK   15  A    between atoms: C_26  and  O_37
REMARK   16  A    between atoms: C_31  and  N_34
REMARK                            x       y       z     vdW  Elec       q    Type
REMARK                         _______ _______ _______ _____ _____    ______ ____
ROOT
ATOM      1  C   UNK A   0      -3.116  -7.757   1.331  0.00  0.00    -0.048 C 
ENDROOT
BRANCH   1   2
ATOM      2  N   UNK A   1      -3.977  -8.066   2.481  0.00  0.00    +0.386 N 
ATOM      3  H   UNK A   1      -3.411  -8.147   3.313  0.00  0.00    -0.085 HD
ATOM      4  H   UNK A   1      -4.652  -7.326   2.604  0.00  0.00    -0.085 HD
BRANCH   2   5
ATOM      5  C   UNK A   1      -4.678  -9.334   2.240  0.00  0.00    -0.012 C 
BRANCH   5   6
ATOM      6  C   UNK A   1      -3.661 -10.476   2.178  0.00  0.00    +0.143 C 
BRANCH   6   7
ATOM      7  O   UNK A   1      -3.019 -10.612   3.448  0.00  0.00    -0.397 OA
ATOM      8  H   UNK A   1      -2.360 -11.319   3.482  0.00  0.00    +0.209 HD
ENDBRANCH   6   7
ENDBRANCH   5   6
BRANCH   5   9
ATOM      9  C   UNK A   1      -5.667  -9.594   3.379  0.00  0.00    +0.133 C 
BRANCH   9  10
ATOM     10  C   UNK A   1      -6.726  -8.522   3.379  0.00  0.00    -0.020 A 
ATOM     11  C   UNK A   1      -7.838  -8.649   2.568  0.00  0.00    +0.008 A 
ATOM     12  C   UNK A   1      -8.810  -7.666   2.568  0.00  0.00    +0.033 A 
ATOM     13  C   UNK A   1      -8.669  -6.556   3.379  0.00  0.00    +0.126 A 
ATOM     14  C   UNK A   1      -7.557  -6.428   4.190  0.00  0.00    +0.033 A 
ATOM     15  C   UNK A   1      -6.588  -7.414   4.193  0.00  0.00    +0.008 A 
BRANCH  13  16
ATOM     16  N   UNK A   1      -9.709  -5.502   3.378  0.00  0.00    +0.056 N 
ATOM     17  O   UNK A   1     -10.681  -5.613   2.668  0.00  0.00    -0.126 OA
ATOM     18  O   UNK A   1      -9.586  -4.531   4.087  0.00  0.00    -0.126 OA
ENDBRANCH  13  16
ENDBRANCH   9  10
BRANCH   9  19
ATOM     19  O   UNK A   1      -6.281 -10.871   3.194  0.00  0.00    -0.389 OA
ATOM     20  H   UNK A   1      -6.696 -10.986   2.328  0.00  0.00    +0.210 HD
ENDBRANCH   9  19
ENDBRANCH   5   9
ENDBRANCH   2   5
ENDBRANCH   1   2
BRANCH   1  21
ATOM     21  C   UNK A   0      -2.385  -6.436   1.582  0.00  0.00    +0.123 C 
BRANCH  21  22
ATOM     22  O   UNK A   0      -1.496  -6.586   2.691  0.00  0.00    -0.391 OA
ATOM     23  H   UNK A   0      -0.821  -7.266   2.564  0.00  0.00    +0.210 HD
ENDBRANCH  21  22
BRANCH  21  24
ATOM     24  C   UNK A   0      -1.586  -6.051   0.336  0.00  0.00    +0.190 C 
BRANCH  24  25
ATOM     25  O   UNK A   0      -0.998  -4.762   0.526  0.00  0.00    -0.365 OA
BRANCH  25  26
ATOM     26  C   UNK A   0      -0.226  -4.306  -0.586  0.00  0.00    +0.178 C 
BRANCH  26  31
ATOM     27  C   UNK A   0      -0.418   1.465  -0.825  0.00  0.00    +0.044 C 
ATOM     28  C   UNK A   0      -0.368  -0.040  -0.762  0.00  0.00    -0.050 A 
ATOM     29  C   UNK A   0      -0.431  -0.783  -1.927  0.00  0.00    +0.004 A 
ATOM     30  C   UNK A   0      -0.384  -2.163  -1.870  0.00  0.00    +0.007 A 
ATOM     31  C   UNK A   0      -0.275  -2.801  -0.648  0.00  0.00    -0.014 A 
ATOM     32  C   UNK A   0      -0.211  -2.059   0.516  0.00  0.00    +0.007 A 
ATOM     33  C   UNK A   0      -0.253  -0.678   0.459  0.00  0.00    +0.004 A 
ENDBRANCH  26  31
BRANCH  26  34
ATOM     34  C   UNK A   0       1.204  -4.755  -0.423  0.00  0.00    -0.015 A 
ATOM     35  C   UNK A   0       1.768  -4.822   0.837  0.00  0.00    +0.006 A 
ATOM     36  C   UNK A   0       3.079  -5.234   0.987  0.00  0.00    +0.000 A 
ATOM     37  C   UNK A   0       3.825  -5.580  -0.123  0.00  0.00    +0.000 A 
ATOM     38  C   UNK A   0       3.261  -5.514  -1.384  0.00  0.00    +0.000 A 
ATOM     39  C   UNK A   0       1.949  -5.106  -1.533  0.00  0.00    +0.006 A 
ENDBRANCH  26  34
ENDBRANCH  25  26
ENDBRANCH  24  25
ENDBRANCH  21  24
ENDBRANCH   1  21
TORSDOF 15
