REMARK  Name = ZINC28731455
REMARK  14 active torsions:
REMARK  status: ('A' for Active; 'I' for Inactive)
REMARK    1  A    between atoms: C_1  and  C_2
REMARK    2  A    between atoms: C_2  and  C_3
REMARK    3  A    between atoms: C_3  and  C_4
REMARK    4  A    between atoms: C_7  and  C_10
REMARK    5  A    between atoms: C_10  and  C_12
REMARK    6  A    between atoms: C_10  and  N_15
REMARK    7  A    between atoms: C_12  and  C_13
REMARK    8  A    between atoms: C_12  and  C_14
REMARK    9  A    between atoms: N_15  and  C_16
REMARK   10  A    between atoms: C_16  and  C_17
REMARK   11  A    between atoms: N_19  and  N_20
REMARK   12  A    between atoms: C_23  and  C_27
REMARK   13  A    between atoms: C_23  and  C_28
REMARK   14  A    between atoms: C_28  and  C_29
REMARK                            x       y       z     vdW  Elec       q    Type
REMARK                         _______ _______ _______ _____ _____    ______ ____
ROOT
ATOM      1  N   UNL     1      -5.759  -0.056   5.660  0.00  0.00    +0.389 N 
ATOM      2  H   UNL     1      -5.482   0.792   6.304  0.00  0.00    -0.084 HD
ATOM      3  H   UNL     1      -4.923  -0.769   5.613  0.00  0.00    -0.084 HD
ENDROOT
BRANCH   1   4
ATOM      4  C   UNL     1      -6.943  -0.726   6.214  0.00  0.00    -0.038 C 
BRANCH   4   8
ATOM      5  C   UNL     1      -9.608   2.197   7.829  0.00  0.00    -0.047 A 
ATOM      6  C   UNL     1     -10.110   1.115   7.129  0.00  0.00    +0.004 A 
ATOM      7  C   UNL     1      -9.247   0.170   6.607  0.00  0.00    +0.002 A 
ATOM      8  C   UNL     1      -7.883   0.306   6.784  0.00  0.00    -0.061 A 
ATOM      9  C   UNL     1      -7.381   1.385   7.487  0.00  0.00    +0.002 A 
ATOM     10  C   UNL     1      -8.243   2.333   8.005  0.00  0.00    +0.004 A 
BRANCH   5  11
ATOM     11  C   UNL     1     -10.548   3.228   8.399  0.00  0.00    +0.035 C 
BRANCH  11  13
ATOM     12  C   UNL     1     -11.903   3.869  10.397  0.00  0.00    +0.004 C 
ATOM     13  C   UNL     1     -10.949   2.822   9.818  0.00  0.00    +0.001 C 
ENDBRANCH  11  13
ENDBRANCH   5  11
ENDBRANCH   4   8
BRANCH   4  14
ATOM     14  C   UNL     1      -6.512  -1.689   7.322  0.00  0.00    -0.027 C 
ATOM     15  C   UNL     1      -7.736  -2.444   7.846  0.00  0.00    +0.006 C 
ATOM     16  C   UNL     1      -5.498  -2.689   6.762  0.00  0.00    +0.006 C 
ENDBRANCH   4  14
ENDBRANCH   1   4
BRANCH   1  17
ATOM     17  C   UNL     1      -6.025   0.448   4.306  0.00  0.00    +0.017 C 
BRANCH  17  18
ATOM     18  C   UNL     1      -4.822   1.207   3.808  0.00  0.00    +0.213 C 
ATOM     19  O   UNL     1      -3.840   1.317   4.511  0.00  0.00    -0.276 OA
ATOM     20  N   UNL     1      -4.838   1.764   2.580  0.00  0.00    -0.225 N 
ATOM     21  H   UNL     1      -5.729   1.664   1.942  0.00  0.00    +0.173 HD
BRANCH  20  22
ATOM     22  N   UNL     1      -3.720   2.470   2.117  0.00  0.00    -0.137 N 
ATOM     23  C   UNL     1      -3.653   3.813   2.035  0.00  0.00    +0.263 C 
ATOM     24  O   UNL     1      -4.516   4.609   2.338  0.00  0.00    -0.271 OA
ATOM     25  C   UNL     1      -2.274   4.122   1.487  0.00  0.00    +0.111 C 
ATOM     26  N   UNL     1      -1.667   2.792   1.307  0.00  0.00    -0.284 N 
ATOM     27  C   UNL     1      -2.587   1.893   1.701  0.00  0.00    +0.326 C 
ATOM     28  O   UNL     1      -2.408   0.691   1.681  0.00  0.00    -0.251 OA
ATOM     29  C   UNL     1      -2.378   4.853   0.147  0.00  0.00    +0.041 C 
ATOM     30  H   UNL     1      -0.643   2.704   0.914  0.00  0.00    +0.151 HD
BRANCH  25  31
ATOM     31  C   UNL     1      -1.467   4.951   2.489  0.00  0.00    +0.032 C 
ATOM     32  C   UNL     1      -0.064   5.199   1.932  0.00  0.00    +0.006 C 
ENDBRANCH  25  31
ENDBRANCH  20  22
ENDBRANCH  17  18
ENDBRANCH   1  17
TORSDOF 9
