REMARK  Name = ZINC25401570
REMARK  6 active torsions:
REMARK  status: ('A' for Active; 'I' for Inactive)
REMARK    1  A    between atoms: C_4  and  C_7
REMARK    2  A    between atoms: N_10  and  C_18
REMARK    3  A    between atoms: C_18  and  C_19
REMARK    4  A    between atoms: N_21  and  C_22
REMARK    5  A    between atoms: C_22  and  C_23
REMARK    6  A    between atoms: N_25  and  C_26
REMARK                            x       y       z     vdW  Elec       q    Type
REMARK                         _______ _______ _______ _____ _____    ______ ____
ROOT
ATOM      1  C   UNL     1      -8.431   2.357  -0.427  0.00  0.00    +0.019 C 
ENDROOT
BRANCH   1   4
ATOM      2  C   UNL     1     -12.015   2.988  -1.296  0.00  0.00    +0.033 C 
ATOM      3  C   UNL     1     -10.809   2.159  -0.853  0.00  0.00    -0.065 C 
ATOM      4  N   UNL     1      -9.707   3.078  -0.522  0.00  0.00    +0.389 N 
ATOM      5  C   UNL     1     -10.000   3.794   0.723  0.00  0.00    -0.042 C 
ATOM      6  C   UNL     1     -11.355   4.448   0.649  0.00  0.00    -0.060 A 
ATOM      7  C   UNL     1     -12.295   4.071  -0.286  0.00  0.00    -0.040 A 
ATOM      8  C   UNL     1     -13.532   4.695  -0.311  0.00  0.00    +0.004 A 
ATOM      9  C   UNL     1     -13.828   5.694   0.594  0.00  0.00    +0.000 A 
ATOM     10  C   UNL     1     -12.886   6.075   1.530  0.00  0.00    +0.000 A 
ATOM     11  C   UNL     1     -11.653   5.454   1.557  0.00  0.00    +0.002 A 
ATOM     12  H   UNL     1      -9.613   3.817  -1.331  0.00  0.00    -0.081 HD
BRANCH   2  16
ATOM     13  C   UNL     1     -15.432   0.447  -1.636  0.00  0.00    +0.000 A 
ATOM     14  C   UNL     1     -14.975   1.141  -2.740  0.00  0.00    +0.000 A 
ATOM     15  C   UNL     1     -13.869   1.964  -2.630  0.00  0.00    +0.004 A 
ATOM     16  C   UNL     1     -13.221   2.092  -1.416  0.00  0.00    -0.042 A 
ATOM     17  C   UNL     1     -13.675   1.394  -0.313  0.00  0.00    +0.004 A 
ATOM     18  C   UNL     1     -14.784   0.576  -0.421  0.00  0.00    +0.000 A 
ENDBRANCH   2  16
ENDBRANCH   1   4
BRANCH   1  19
ATOM     19  C   UNL     1      -7.300   3.348  -0.333  0.00  0.00    +0.197 C 
ATOM     20  O   UNL     1      -7.534   4.537  -0.345  0.00  0.00    -0.278 OA
ATOM     21  N   UNL     1      -6.028   2.911  -0.237  0.00  0.00    -0.308 N 
ATOM     22  H   UNL     1      -5.816   1.832  -0.227  0.00  0.00    +0.149 HD
BRANCH  21  23
ATOM     23  C   UNL     1      -4.928   3.875  -0.146  0.00  0.00    +0.200 C 
BRANCH  23  24
ATOM     24  C   UNL     1      -3.619   3.135  -0.048  0.00  0.00    +0.234 C 
ATOM     25  O   UNL     1      -3.606   1.922  -0.054  0.00  0.00    -0.274 OA
ATOM     26  N   UNL     1      -2.463   3.821   0.046  0.00  0.00    -0.282 N 
ATOM     27  H   UNL     1      -2.479   4.916   0.143  0.00  0.00    +0.155 HD
BRANCH  26  28
ATOM     28  C   UNL     1      -1.239   3.138   0.019  0.00  0.00    +0.072 A 
ATOM     29  C   UNL     1      -1.149   1.897  -0.595  0.00  0.00    +0.029 A 
ATOM     30  C   UNL     1       0.057   1.222  -0.616  0.00  0.00    +0.043 A 
ATOM     31  C   UNL     1       1.179   1.787  -0.034  0.00  0.00    +0.161 A 
ATOM     32  C   UNL     1       1.095   3.029   0.575  0.00  0.00    +0.195 A 
ATOM     33  C   UNL     1      -0.113   3.706   0.603  0.00  0.00    +0.182 A 
ATOM     34  F   UNL     1      -0.196   4.917   1.197  0.00  0.00    -0.200 F 
ATOM     35  F   UNL     1       2.191   3.579   1.142  0.00  0.00    -0.199 F 
ATOM     36  F   UNL     1       2.357   1.127  -0.061  0.00  0.00    -0.202 F 
ENDBRANCH  26  28
ENDBRANCH  23  24
ENDBRANCH  21  23
ENDBRANCH   1  19
TORSDOF 6
