REMARK  Name = ZINC23144489
REMARK  6 active torsions:
REMARK  status: ('A' for Active; 'I' for Inactive)
REMARK    1  A    between atoms: C_4  and  C_7
REMARK    2  A    between atoms: C_12  and  N_13
REMARK    3  A    between atoms: C_19  and  C_22
REMARK    4  A    between atoms: C_22  and  N_23
REMARK    5  A    between atoms: C_25  and  C_28
REMARK    6  A    between atoms: C_28  and  N_29
REMARK                            x       y       z     vdW  Elec       q    Type
REMARK                         _______ _______ _______ _____ _____    ______ ____
ROOT
ATOM      1  N   UNL     1       2.778  -2.138  -1.899  0.00  0.00    -0.269 N 
ATOM      2  C   UNL     1       3.602  -2.795  -2.740  0.00  0.00    +0.306 C 
ATOM      3  O   UNL     1       3.621  -4.010  -2.745  0.00  0.00    -0.252 OA
ATOM      4  N   UNL     1       4.403  -2.104  -3.575  0.00  0.00    -0.285 N 
ATOM      5  C   UNL     1       4.465  -0.637  -3.511  0.00  0.00    +0.109 C 
ATOM      6  C   UNL     1       4.191  -0.066  -4.901  0.00  0.00    +0.024 C 
ATOM      7  C   UNL     1       5.159  -0.693  -5.907  0.00  0.00    +0.013 C 
ATOM      8  C   UNL     1       4.940  -2.207  -5.953  0.00  0.00    +0.024 C 
ATOM      9  C   UNL     1       5.226  -2.803  -4.571  0.00  0.00    +0.109 C 
ATOM     10  H   UNL     1       2.728  -1.039  -1.925  0.00  0.00    +0.156 HD
ENDROOT
BRANCH   1  16
ATOM     11  C   UNL     1       1.577  -2.255   0.203  0.00  0.00    +0.003 A 
ATOM     12  C   UNL     1       0.785  -2.974   1.095  0.00  0.00    +0.010 A 
ATOM     13  C   UNL     1       0.415  -4.270   0.799  0.00  0.00    +0.001 A 
ATOM     14  C   UNL     1       0.829  -4.861  -0.383  0.00  0.00    +0.002 A 
ATOM     15  C   UNL     1       1.614  -4.158  -1.276  0.00  0.00    +0.024 A 
ATOM     16  C   UNL     1       1.989  -2.852  -0.994  0.00  0.00    +0.042 A 
BRANCH  11  20
ATOM     17  C   UNL     1       2.723   1.739   1.103  0.00  0.00    +0.000 A 
ATOM     18  C   UNL     1       1.395   1.364   1.203  0.00  0.00    +0.001 A 
ATOM     19  C   UNL     1       1.017   0.069   0.912  0.00  0.00    +0.008 A 
ATOM     20  C   UNL     1       1.976  -0.862   0.517  0.00  0.00    -0.016 A 
ATOM     21  C   UNL     1       3.313  -0.478   0.418  0.00  0.00    +0.008 A 
ATOM     22  C   UNL     1       3.679   0.819   0.711  0.00  0.00    +0.001 A 
ENDBRANCH  11  20
ENDBRANCH   1  16
BRANCH   7  23
ATOM     23  C   UNL     1       4.907  -0.099  -7.294  0.00  0.00    +0.148 C 
BRANCH  23  24
ATOM     24  N   UNL     1       5.232   1.330  -7.280  0.00  0.00    -0.251 N 
ATOM     25  C   UNL     1       6.094   1.955  -8.114  0.00  0.00    +0.131 A 
ATOM     26  C   UNL     1       6.091   3.259  -7.752  0.00  0.00    +0.066 A 
ATOM     27  N   UNL     1       5.238   3.366  -6.727  0.00  0.00    -0.136 NA
ATOM     28  N   UNL     1       4.742   2.207  -6.475  0.00  0.00    -0.066 NA
BRANCH  26  29
ATOM     29  C   UNL     1       6.891   4.371  -8.379  0.00  0.00    -0.027 C 
BRANCH  29  30
ATOM     30  N   UNL     1       6.072   5.054  -9.389  0.00  0.00    +0.382 N 
ATOM     31  H   UNL     1       6.657   5.866  -9.847  0.00  0.00    -0.090 HD
ATOM     32  H   UNL     1       5.175   5.473  -8.911  0.00  0.00    -0.090 HD
ATOM     33  H   UNL     1       5.773   4.335 -10.166  0.00  0.00    -0.090 HD
ENDBRANCH  29  30
ENDBRANCH  26  29
ENDBRANCH  23  24
ENDBRANCH   7  23
TORSDOF 6
