REMARK  Name = ZINC31469594
REMARK  8 active torsions:
REMARK  status: ('A' for Active; 'I' for Inactive)
REMARK    1  A    between atoms: C_1  and  C_2
REMARK    2  A    between atoms: C_8  and  N_10
REMARK    3  A    between atoms: N_10  and  C_11
REMARK    4  A    between atoms: N_10  and  C_21
REMARK    5  A    between atoms: C_11  and  C_12
REMARK    6  A    between atoms: N_17  and  C_18
REMARK    7  A    between atoms: C_21  and  C_22
REMARK    8  A    between atoms: N_27  and  C_28
REMARK                            x       y       z     vdW  Elec       q    Type
REMARK                         _______ _______ _______ _____ _____    ______ ____
ROOT
ATOM      1  N   UNL     1       7.802   0.204  -3.461  0.00  0.00    +0.393 N 
ATOM      2  H   UNL     1       8.445   0.362  -2.583  0.00  0.00    -0.080 HD
ENDROOT
BRANCH   1   9
ATOM      3  C   UNL     1       9.078  -1.813  -1.816  0.00  0.00    +0.006 C 
ATOM      4  C   UNL     1       8.361  -2.157  -3.123  0.00  0.00    -0.028 C 
ATOM      5  C   UNL     1       7.772  -3.565  -3.026  0.00  0.00    +0.002 C 
ATOM      6  C   UNL     1       7.055  -3.909  -4.333  0.00  0.00    +0.000 C 
ATOM      7  C   UNL     1       5.930  -2.901  -4.578  0.00  0.00    -0.002 C 
ATOM      8  C   UNL     1       6.519  -1.493  -4.675  0.00  0.00    -0.015 C 
ATOM      9  C   UNL     1       7.236  -1.149  -3.368  0.00  0.00    -0.064 C 
ENDBRANCH   1   9
BRANCH   1  10
ATOM     10  C   UNL     1       6.742   1.221  -3.433  0.00  0.00    +0.020 C 
BRANCH  10  11
ATOM     11  C   UNL     1       6.068   1.206  -2.086  0.00  0.00    +0.204 C 
ATOM     12  O   UNL     1       6.433   0.426  -1.233  0.00  0.00    -0.277 OA
ATOM     13  N   UNL     1       5.058   2.061  -1.829  0.00  0.00    -0.242 N 
ATOM     14  C   UNL     1       4.454   2.048  -0.624  0.00  0.00    +0.306 C 
ATOM     15  O   UNL     1       4.821   1.266   0.231  0.00  0.00    -0.252 OA
ATOM     16  N   UNL     1       3.444   2.903  -0.366  0.00  0.00    -0.296 N 
ATOM     17  H   UNL     1       4.726   2.769  -2.602  0.00  0.00    +0.159 HD
ATOM     18  H   UNL     1       3.113   3.611  -1.140  0.00  0.00    +0.151 HD
BRANCH  16  19
ATOM     19  C   UNL     1       2.788   2.889   0.943  0.00  0.00    +0.075 C 
ATOM     20  C   UNL     1       2.103   4.176   1.404  0.00  0.00    +0.024 C 
ATOM     21  C   UNL     1       1.261   2.975   0.970  0.00  0.00    +0.024 C 
ENDBRANCH  16  19
ENDBRANCH  10  11
ENDBRANCH   1  10
BRANCH   1  22
ATOM     22  C   UNL     1       8.635   0.344  -4.663  0.00  0.00    +0.020 C 
BRANCH  22  23
ATOM     23  C   UNL     1      10.090   0.276  -4.276  0.00  0.00    +0.204 C 
ATOM     24  O   UNL     1      10.405   0.235  -3.106  0.00  0.00    -0.277 OA
ATOM     25  N   UNL     1      11.041   0.259  -5.231  0.00  0.00    -0.242 N 
ATOM     26  C   UNL     1      12.342   0.197  -4.885  0.00  0.00    +0.306 C 
ATOM     27  O   UNL     1      12.658   0.157  -3.712  0.00  0.00    -0.252 OA
ATOM     28  N   UNL     1      13.293   0.180  -5.840  0.00  0.00    -0.296 N 
ATOM     29  H   UNL     1      10.755   0.295  -6.293  0.00  0.00    +0.159 HD
ATOM     30  H   UNL     1      13.007   0.217  -6.902  0.00  0.00    +0.151 HD
BRANCH  28  31
ATOM     31  C   UNL     1      14.708   0.114  -5.465  0.00  0.00    +0.075 C 
ATOM     32  C   UNL     1      15.681   1.028  -6.211  0.00  0.00    +0.024 C 
ATOM     33  C   UNL     1      15.683  -0.477  -6.485  0.00  0.00    +0.024 C 
ENDBRANCH  28  31
ENDBRANCH  22  23
ENDBRANCH   1  22
TORSDOF 7
