REMARK  Name = ZINC54242554
REMARK  6 active torsions:
REMARK  status: ('A' for Active; 'I' for Inactive)
REMARK    1  A    between atoms: C_1  and  N_2
REMARK    2  A    between atoms: C_6  and  C_9
REMARK    3  A    between atoms: C_9  and  N_10
REMARK    4  A    between atoms: N_10  and  C_11
REMARK    5  A    between atoms: C_13  and  S_18
REMARK    6  A    between atoms: S_18  and  N_21
REMARK                            x       y       z     vdW  Elec       q    Type
REMARK                         _______ _______ _______ _____ _____    ______ ____
ROOT
ATOM      1  C   UNL     1       1.862  -4.667   3.625  0.00  0.00    +0.048 A 
ATOM      2  C   UNL     1       2.586  -3.976   4.588  0.00  0.00    +0.053 A 
ATOM      3  C   UNL     1       3.173  -4.662   5.633  0.00  0.00    +0.107 A 
ATOM      4  C   UNL     1       3.043  -6.036   5.721  0.00  0.00    +0.030 A 
ATOM      5  C   UNL     1       2.323  -6.728   4.764  0.00  0.00    +0.024 A 
ATOM      6  C   UNL     1       1.728  -6.048   3.719  0.00  0.00    +0.062 A 
ATOM      7 CL   UNL     1       0.819  -6.916   2.522  0.00  0.00    -0.082 Cl
ENDROOT
BRANCH   3   8
ATOM      8  S   UNL     1       4.091  -3.786   6.855  0.00  0.00    +0.056 S 
ATOM      9  O   UNL     1       4.999  -4.718   7.427  0.00  0.00    -0.153 OA
ATOM     10  O   UNL     1       4.524  -2.576   6.248  0.00  0.00    -0.153 OA
BRANCH   8  11
ATOM     11  N   UNL     1       3.031  -3.362   8.054  0.00  0.00    -0.204 NA
ATOM     12  H   UNL     1       2.095  -3.608   7.983  0.00  0.00    +0.144 HD
ATOM     13  H   UNL     1       3.345  -2.867   8.827  0.00  0.00    +0.144 HD
ENDBRANCH   8  11
ENDBRANCH   3   8
BRANCH   1  14
ATOM     14  N   UNL     1       1.265  -3.976   2.567  0.00  0.00    -0.342 N 
ATOM     15  H   UNL     1       0.757  -4.459   1.897  0.00  0.00    +0.146 HD
BRANCH  14  16
ATOM     16  C   UNL     1       1.408  -2.521   2.470  0.00  0.00    +0.103 C 
BRANCH  16  22
ATOM     17  C   UNL     1      -0.018   1.465   0.010  0.00  0.00    -0.096 C 
ATOM     18  N   UNL     1       0.002  -0.004   0.002  0.00  0.00    +0.378 N 
ATOM     19  C   UNL     1       0.681  -0.476  -1.210  0.00  0.00    -0.079 C 
ATOM     20  C   UNL     1       0.634  -2.005  -1.264  0.00  0.00    -0.018 C 
ATOM     21  C   UNL     1       1.336  -2.575  -0.029  0.00  0.00    +0.001 C 
ATOM     22  C   UNL     1       0.666  -2.018   1.230  0.00  0.00    -0.011 C 
ATOM     23  C   UNL     1       0.712  -0.489   1.192  0.00  0.00    -0.074 C 
ATOM     24  H   UNL     1      -0.945  -0.352   0.012  0.00  0.00    -0.082 HD
ENDBRANCH  16  22
ENDBRANCH  14  16
ENDBRANCH   1  14
TORSDOF 5
