REMARK  Name = ZINC45125121
REMARK  10 active torsions:
REMARK  status: ('A' for Active; 'I' for Inactive)
REMARK    1  A    between atoms: C_1  and  C_2
REMARK    2  A    between atoms: C_2  and  C_4
REMARK    3  A    between atoms: C_2  and  N_14
REMARK    4  A    between atoms: C_8  and  S_10
REMARK    5  A    between atoms: S_10  and  N_13
REMARK    6  A    between atoms: N_20  and  C_23
REMARK    7  A    between atoms: C_23  and  C_24
REMARK    8  A    between atoms: C_24  and  C_25
REMARK    9  A    between atoms: C_25  and  C_26
REMARK   10  A    between atoms: C_25  and  C_27
REMARK                            x       y       z     vdW  Elec       q    Type
REMARK                         _______ _______ _______ _____ _____    ______ ____
ROOT
ATOM      1  N   UNL     1       0.689  -0.472  -1.204  0.00  0.00    -0.293 N 
ATOM      2  C   UNL     1       0.006  -0.608  -2.358  0.00  0.00    +0.303 C 
ATOM      3  O   UNL     1      -1.196  -0.427  -2.379  0.00  0.00    -0.253 OA
ATOM      4  N   UNL     1       0.656  -0.945  -3.490  0.00  0.00    -0.289 N 
ATOM      5  C   UNL     1       2.087  -1.287  -3.467  0.00  0.00    +0.091 C 
ATOM      6  C   UNL     1       2.281  -2.617  -4.202  0.00  0.00    -0.059 C 
ATOM      7  N   UNL     1       1.702  -2.520  -5.548  0.00  0.00    +0.382 N 
ATOM      8  C   UNL     1       0.250  -2.328  -5.456  0.00  0.00    -0.059 C 
ATOM      9  C   UNL     1      -0.046  -0.988  -4.782  0.00  0.00    +0.091 C 
ATOM     10  H   UNL     1       1.634  -0.687  -1.171  0.00  0.00    +0.151 HD
ATOM     11  H   UNL     1       2.114  -1.737  -6.034  0.00  0.00    -0.082 HD
ENDROOT
BRANCH   1  13
ATOM     12  C   UNL     1      -0.024   1.530   0.007  0.00  0.00    +0.033 C 
ATOM     13  C   UNL     1       0.002  -0.000   0.001  0.00  0.00    +0.102 C 
BRANCH  13  14
ATOM     14  C   UNL     1       0.734  -0.495   1.222  0.00  0.00    -0.026 A 
ATOM     15  C   UNL     1       2.117  -0.500   1.244  0.00  0.00    +0.005 A 
ATOM     16  C   UNL     1       2.788  -0.954   2.364  0.00  0.00    +0.002 A 
ATOM     17  C   UNL     1       2.077  -1.401   3.462  0.00  0.00    +0.028 A 
ATOM     18  C   UNL     1       0.695  -1.395   3.440  0.00  0.00    +0.105 A 
ATOM     19  C   UNL     1       0.024  -0.937   2.322  0.00  0.00    +0.034 A 
BRANCH  18  20
ATOM     20  S   UNL     1      -0.211  -1.966   4.839  0.00  0.00    +0.056 S 
ATOM     21  O   UNL     1      -1.487  -2.368   4.360  0.00  0.00    -0.153 OA
ATOM     22  O   UNL     1       0.649  -2.848   5.548  0.00  0.00    -0.153 OA
BRANCH  20  23
ATOM     23  N   UNL     1      -0.466  -0.660   5.824  0.00  0.00    -0.204 NA
ATOM     24  H   UNL     1      -1.257  -0.621   6.383  0.00  0.00    +0.144 HD
ATOM     25  H   UNL     1       0.177   0.067   5.843  0.00  0.00    +0.144 HD
ENDBRANCH  20  23
ENDBRANCH  18  20
ENDBRANCH  13  14
ENDBRANCH   1  13
BRANCH   7  26
ATOM     26  C   UNL     1       1.985  -3.755  -6.291  0.00  0.00    -0.078 C 
BRANCH  26  27
ATOM     27  C   UNL     1       1.493  -3.608  -7.732  0.00  0.00    -0.016 C 
BRANCH  27  28
ATOM     28  C   UNL     1       1.786  -4.895  -8.506  0.00  0.00    -0.019 C 
ATOM     29  C   UNL     1       0.968  -6.044  -7.914  0.00  0.00    +0.007 C 
ATOM     30  C   UNL     1       1.409  -4.704  -9.976  0.00  0.00    +0.007 C 
ENDBRANCH  27  28
ENDBRANCH  26  27
ENDBRANCH   7  26
TORSDOF 7
