REMARK  Name = ZINC67157214
REMARK  5 active torsions:
REMARK  status: ('A' for Active; 'I' for Inactive)
REMARK    1  A    between atoms: C_2  and  C_3
REMARK    2  A    between atoms: C_3  and  N_4
REMARK    3  A    between atoms: C_5  and  C_7
REMARK    4  A    between atoms: C_7  and  N_8
REMARK    5  A    between atoms: C_9  and  C_11
REMARK                            x       y       z     vdW  Elec       q    Type
REMARK                         _______ _______ _______ _____ _____    ______ ____
ROOT
ATOM      1  N   UNL     1       4.014  -3.724   2.707  0.00  0.00    -0.303 N 
ATOM      2  C   UNL     1       4.371  -4.490   3.757  0.00  0.00    +0.244 C 
ATOM      3  O   UNL     1       3.633  -4.586   4.718  0.00  0.00    -0.270 OA
ATOM      4  H   UNL     1       4.603  -3.647   1.940  0.00  0.00    +0.150 HD
ENDROOT
BRANCH   2   5
ATOM      5  C   UNL     1       5.662  -5.211   3.741  0.00  0.00    +0.037 A 
ATOM      6  C   UNL     1       6.515  -5.098   2.642  0.00  0.00    +0.013 A 
ATOM      7  C   UNL     1       7.716  -5.774   2.636  0.00  0.00    +0.004 A 
ATOM      8  C   UNL     1       8.082  -6.566   3.714  0.00  0.00    -0.044 A 
ATOM      9  C   UNL     1       7.240  -6.682   4.806  0.00  0.00    -0.043 A 
ATOM     10  C   UNL     1       6.035  -6.004   4.825  0.00  0.00    +0.017 A 
ATOM     11  C   UNL     1       7.865  -7.595   5.839  0.00  0.00    +0.036 C 
ATOM     12  C   UNL     1       8.966  -8.367   5.082  0.00  0.00    +0.009 C 
ATOM     13  C   UNL     1       9.329  -7.394   3.941  0.00  0.00    +0.036 C 
ENDBRANCH   2   5
BRANCH   1  14
ATOM     14  C   UNL     1       2.736  -3.009   2.723  0.00  0.00    +0.200 C 
BRANCH  14  16
ATOM     15  N   UNL     1       1.470  -1.494   1.232  0.00  0.00    -0.309 N 
ATOM     16  C   UNL     1       2.578  -2.233   1.440  0.00  0.00    +0.230 C 
ATOM     17  O   UNL     1       3.448  -2.273   0.597  0.00  0.00    -0.274 OA
ATOM     18  H   UNL     1       0.774  -1.462   1.907  0.00  0.00    +0.149 HD
BRANCH  15  19
ATOM     19  C   UNL     1       1.317  -0.740  -0.015  0.00  0.00    +0.146 C 
BRANCH  19  21
ATOM     20  C   UNL     1      -0.016   1.307   0.009  0.00  0.00    +0.021 C 
ATOM     21  C   UNL     1       0.002  -0.004   0.002  0.00  0.00    +0.005 C 
ATOM     22 BR   UNL     1      -1.623  -0.972   0.012  0.00  0.00    -0.054 Br
ENDBRANCH  19  21
ENDBRANCH  15  19
ENDBRANCH  14  16
ENDBRANCH   1  14
TORSDOF 5
