REMARK  Name = ZINC61595175
REMARK  8 active torsions:
REMARK  status: ('A' for Active; 'I' for Inactive)
REMARK    1  A    between atoms: C_1  and  C_2
REMARK    2  A    between atoms: C_2  and  C_3
REMARK    3  A    between atoms: C_2  and  N_4
REMARK    4  A    between atoms: C_10  and  S_11
REMARK    5  A    between atoms: S_11  and  C_12
REMARK    6  A    between atoms: C_12  and  C_14
REMARK    7  A    between atoms: C_12  and  C_16
REMARK    8  A    between atoms: C_14  and  N_15
REMARK                            x       y       z     vdW  Elec       q    Type
REMARK                         _______ _______ _______ _____ _____    ______ ____
ROOT
ATOM      1  C   UNL     1      -2.369  -2.995  -3.167  0.00  0.00    +0.067 C 
ENDROOT
BRANCH   1   2
ATOM      2  C   UNL     1      -1.793  -3.841  -4.272  0.00  0.00    -0.036 A 
ATOM      3  C   UNL     1      -1.271  -3.240  -5.402  0.00  0.00    +0.006 A 
ATOM      4  C   UNL     1      -0.742  -4.016  -6.416  0.00  0.00    +0.015 A 
ATOM      5  C   UNL     1      -0.736  -5.395  -6.301  0.00  0.00    +0.018 A 
ATOM      6  C   UNL     1      -1.259  -5.996  -5.170  0.00  0.00    +0.015 A 
ATOM      7  C   UNL     1      -1.783  -5.219  -4.154  0.00  0.00    +0.006 A 
ATOM      8 BR   UNL     1      -0.014  -6.457  -7.688  0.00  0.00    -0.050 Br
ENDBRANCH   1   2
BRANCH   1   9
ATOM      9  S   UNL     1      -1.087  -1.883  -2.526  0.00  0.00    -0.080 S 
BRANCH   9  16
ATOM     10  N   UNL     1      -1.204  -0.297  -0.224  0.00  0.00    -0.268 N 
ATOM     11  C   UNL     1      -2.091   0.052   0.729  0.00  0.00    +0.345 A 
ATOM     12  O   UNL     1      -1.883   0.802   1.666  0.00  0.00    -0.245 OA
ATOM     13  N   UNL     1      -3.252  -0.580   0.456  0.00  0.00    -0.226 N 
ATOM     14  H   UNL     1      -4.072  -0.520   0.969  0.00  0.00    +0.194 HD
ATOM     15  N   UNL     1      -3.053  -1.338  -0.706  0.00  0.00    -0.145 NA
ATOM     16  C   UNL     1      -1.827  -1.153  -1.103  0.00  0.00    +0.193 A 
BRANCH  10  18
ATOM     17  C   UNL     1       0.211   1.686  -0.433  0.00  0.00    +0.031 C 
ATOM     18  C   UNL     1       0.185   0.162  -0.312  0.00  0.00    +0.088 C 
ATOM     19  C   UNL     1       0.943  -0.263   0.947  0.00  0.00    +0.031 C 
ENDBRANCH  10  18
ENDBRANCH   9  16
ENDBRANCH   1   9
BRANCH   1  20
ATOM     20  C   UNL     1      -3.535  -2.168  -3.712  0.00  0.00    -0.067 C 
BRANCH  20  21
ATOM     21  N   UNL     1      -4.628  -3.065  -4.109  0.00  0.00    +0.379 N 
ATOM     22  H   UNL     1      -5.428  -2.517  -4.388  0.00  0.00    -0.090 HD
ATOM     23  H   UNL     1      -4.328  -3.640  -4.882  0.00  0.00    -0.090 HD
ATOM     24  H   UNL     1      -4.880  -3.654  -3.329  0.00  0.00    -0.090 HD
ENDBRANCH  20  21
ENDBRANCH   1  20
TORSDOF 6
