REMARK  Name = ZINC64144014
REMARK  12 active torsions:
REMARK  status: ('A' for Active; 'I' for Inactive)
REMARK    1  A    between atoms: C_1  and  C_2
REMARK    2  A    between atoms: C_4  and  C_13
REMARK    3  A    between atoms: C_5  and  C_12
REMARK    4  A    between atoms: N_6  and  C_8
REMARK    5  A    between atoms: C_8  and  C_9
REMARK    6  A    between atoms: C_9  and  C_10
REMARK    7  A    between atoms: C_9  and  C_11
REMARK    8  A    between atoms: C_13  and  C_14
REMARK    9  A    between atoms: N_16  and  C_17
REMARK   10  A    between atoms: C_17  and  C_18
REMARK   11  A    between atoms: C_18  and  C_20
REMARK   12  A    between atoms: C_18  and  C_26
REMARK                            x       y       z     vdW  Elec       q    Type
REMARK                         _______ _______ _______ _____ _____    ______ ____
ROOT
ATOM      1  C   UNL     1      -2.095  -2.305  -4.769  0.00  0.00    +0.116 C 
ENDROOT
BRANCH   1   4
ATOM      2  C   UNL     1      -0.634  -1.315  -3.088  0.00  0.00    +0.217 C 
ATOM      3  O   UNL     1      -1.018  -2.155  -2.302  0.00  0.00    -0.275 OA
ATOM      4  N   UNL     1      -1.112  -1.303  -4.348  0.00  0.00    -0.314 N 
ATOM      5  H   UNL     1      -0.805  -0.631  -4.977  0.00  0.00    +0.149 HD
BRANCH   2   6
ATOM      6  C   UNL     1       0.377  -0.284  -2.656  0.00  0.00    +0.129 C 
BRANCH   6   9
ATOM      7  C   UNL     1      -0.019   1.526   0.010  0.00  0.00    +0.030 C 
ATOM      8  C   UNL     1       0.002  -0.004   0.002  0.00  0.00    +0.098 C 
ATOM      9  C   UNL     1       0.745  -0.517  -1.213  0.00  0.00    -0.025 C 
ATOM     10  C   UNL     1       1.776  -1.206  -0.766  0.00  0.00    +0.020 C 
ATOM     11  N   UNL     1       1.821  -1.222   0.614  0.00  0.00    -0.270 N 
ATOM     12  N   UNL     1       0.778  -0.516   1.149  0.00  0.00    -0.234 NA
ATOM     13  C   UNL     1       2.781  -1.893  -1.654  0.00  0.00    +0.062 C 
ATOM     14  H   UNL     1       1.111   0.240   1.727  0.00  0.00    +0.145 HD
BRANCH  11  15
ATOM     15  C   UNL     1       2.849  -1.907   1.401  0.00  0.00    +0.126 C 
BRANCH  15  16
ATOM     16  C   UNL     1       4.013  -0.949   1.663  0.00  0.00    +0.002 C 
ATOM     17  C   UNL     1       5.028  -1.622   2.589  0.00  0.00    +0.009 C 
ATOM     18  C   UNL     1       4.689  -0.594   0.338  0.00  0.00    +0.009 C 
ENDBRANCH  15  16
ENDBRANCH  11  15
ENDBRANCH   6   9
ENDBRANCH   2   6
ENDBRANCH   1   4
BRANCH   1  19
ATOM     19  C   UNL     1      -2.469  -2.069  -6.233  0.00  0.00    +0.064 C 
BRANCH  19  20
ATOM     20  C   UNL     1      -3.568  -3.020  -6.630  0.00  0.00    -0.033 C 
ATOM     21  C   UNL     1      -4.800  -2.695  -7.083  0.00  0.00    -0.000 A 
ATOM     22  C   UNL     1      -5.461  -1.408  -7.331  0.00  0.00    +0.010 A 
ATOM     23  C   UNL     1      -6.731  -1.402  -7.796  0.00  0.00    +0.001 A 
ATOM     24  C   UNL     1      -7.431  -2.591  -8.046  0.00  0.00    +0.002 A 
ATOM     25  C   UNL     1      -6.891  -3.811  -7.842  0.00  0.00    +0.026 A 
ATOM     26  C   UNL     1      -5.561  -3.936  -7.355  0.00  0.00    +0.043 A 
ATOM     27  N   UNL     1      -4.827  -4.987  -7.081  0.00  0.00    -0.380 N 
ATOM     28  C   UNL     1      -3.514  -4.532  -6.609  0.00  0.00    +0.145 C 
ATOM     29  H   UNL     1      -5.104  -5.912  -7.178  0.00  0.00    +0.160 HD
ENDBRANCH  19  20
BRANCH  19  30
ATOM     30  C   UNL     1      -1.262  -2.304  -7.104  0.00  0.00    -0.039 A 
ATOM     31  C   UNL     1      -0.649  -3.544  -7.116  0.00  0.00    +0.004 A 
ATOM     32  C   UNL     1       0.458  -3.760  -7.915  0.00  0.00    +0.000 A 
ATOM     33  C   UNL     1       0.953  -2.737  -8.702  0.00  0.00    +0.000 A 
ATOM     34  C   UNL     1       0.340  -1.498  -8.691  0.00  0.00    +0.000 A 
ATOM     35  C   UNL     1      -0.770  -1.283  -7.896  0.00  0.00    +0.004 A 
ENDBRANCH  19  30
ENDBRANCH   1  19
TORSDOF 8
