REMARK  Name = ZINC39631264
REMARK  11 active torsions:
REMARK  status: ('A' for Active; 'I' for Inactive)
REMARK    1  A    between atoms: C_1  and  C_2
REMARK    2  A    between atoms: C_2  and  C_4
REMARK    3  A    between atoms: C_2  and  N_11
REMARK    4  A    between atoms: C_4  and  C_5
REMARK    5  A    between atoms: C_5  and  C_6
REMARK    6  A    between atoms: C_6  and  C_7
REMARK    7  A    between atoms: C_7  and  C_8
REMARK    8  A    between atoms: C_7  and  C_9
REMARK    9  A    between atoms: C_7  and  O_10
REMARK   10  A    between atoms: C_12  and  C_14
REMARK   11  A    between atoms: C_25  and  C_27
REMARK                            x       y       z     vdW  Elec       q    Type
REMARK                         _______ _______ _______ _____ _____    ______ ____
ROOT
ATOM      1  C   UNL     1      -3.465  -1.164  -1.134  0.00  0.00    +0.100 C 
ATOM      2  C   UNL     1      -3.486  -2.652  -0.717  0.00  0.00    +0.121 C 
ATOM      3  N   UNL     1      -4.545  -3.261  -1.556  0.00  0.00    -0.296 N 
ATOM      4  C   UNL     1      -4.384  -2.614  -2.880  0.00  0.00    +0.115 C 
ATOM      5  C   UNL     1      -4.054  -1.143  -2.554  0.00  0.00    -0.004 C 
ATOM      6  C   UNL     1      -3.027  -0.602  -3.545  0.00  0.00    -0.010 C 
ATOM      7  C   UNL     1      -3.655  -0.536  -4.939  0.00  0.00    -0.082 C 
ATOM      8  N   UNL     1      -4.838   0.334  -4.905  0.00  0.00    +0.379 N 
ATOM      9  C   UNL     1      -5.858  -0.244  -4.021  0.00  0.00    -0.082 C 
ATOM     10  C   UNL     1      -5.323  -0.297  -2.587  0.00  0.00    -0.010 C 
ATOM     11  C   UNL     1      -5.451  -4.192  -1.196  0.00  0.00    +0.252 C 
ATOM     12  O   UNL     1      -6.263  -4.595  -2.007  0.00  0.00    -0.270 OA
ATOM     13  H   UNL     1      -4.574   1.245  -4.561  0.00  0.00    -0.086 HD
ATOM     14  H   UNL     1      -5.214   0.424  -5.837  0.00  0.00    -0.086 HD
ENDROOT
BRANCH  11  15
ATOM     15  C   UNL     1      -5.457  -4.721   0.181  0.00  0.00    +0.107 A 
ATOM     16  C   UNL     1      -6.231  -4.103   1.169  0.00  0.00    +0.138 A 
ATOM     17  C   UNL     1      -6.232  -4.607   2.456  0.00  0.00    +0.039 A 
ATOM     18  C   UNL     1      -5.470  -5.718   2.769  0.00  0.00    +0.006 A 
ATOM     19  C   UNL     1      -4.701  -6.335   1.798  0.00  0.00    +0.039 A 
ATOM     20  C   UNL     1      -4.694  -5.848   0.504  0.00  0.00    +0.138 A 
ATOM     21  F   UNL     1      -3.947  -6.456  -0.444  0.00  0.00    -0.205 F 
ATOM     22  F   UNL     1      -6.976  -3.018   0.865  0.00  0.00    -0.205 F 
ENDBRANCH  11  15
BRANCH   1  24
ATOM     23  N   UNL     1      -1.812   0.661  -0.903  0.00  0.00    -0.312 N 
ATOM     24  C   UNL     1      -2.051  -0.643  -1.145  0.00  0.00    +0.218 C 
ATOM     25  O   UNL     1      -1.128  -1.397  -1.371  0.00  0.00    -0.275 OA
ATOM     26  H   UNL     1      -2.550   1.264  -0.722  0.00  0.00    +0.149 HD
BRANCH  23  28
ATOM     27  C   UNL     1      -0.031   1.511  -2.348  0.00  0.00    +0.028 C 
ATOM     28  C   UNL     1      -0.438   1.169  -0.913  0.00  0.00    +0.070 C 
BRANCH  28  29
ATOM     29  C   UNL     1      -0.351   2.425  -0.045  0.00  0.00    +0.022 C 
BRANCH  29  30
ATOM     30  C   UNL     1      -0.636   2.058   1.413  0.00  0.00    +0.005 C 
BRANCH  30  31
ATOM     31  C   UNL     1      -0.549   3.315   2.281  0.00  0.00    +0.034 C 
BRANCH  31  32
ATOM     32  C   UNL     1      -0.835   2.948   3.739  0.00  0.00    +0.061 C 
ATOM     33  C   UNL     1       0.197   1.925   4.219  0.00  0.00    +0.041 C 
ATOM     34  C   UNL     1      -0.748   4.205   4.608  0.00  0.00    +0.041 C 
BRANCH  32  35
ATOM     35  O   UNL     1      -2.145   2.388   3.842  0.00  0.00    -0.389 OA
ATOM     36  H   UNL     1      -2.851   2.983   3.554  0.00  0.00    +0.210 HD
ENDBRANCH  32  35
ENDBRANCH  31  32
ENDBRANCH  30  31
ENDBRANCH  29  30
ENDBRANCH  28  29
ENDBRANCH  23  28
ENDBRANCH   1  24
TORSDOF 8
