REMARK  Name = ZINC33455106
REMARK  8 active torsions:
REMARK  status: ('A' for Active; 'I' for Inactive)
REMARK    1  A    between atoms: C_1  and  C_2
REMARK    2  A    between atoms: C_2  and  O_3
REMARK    3  A    between atoms: O_3  and  C_4
REMARK    4  A    between atoms: C_6  and  C_11
REMARK    5  A    between atoms: C_9  and  O_10
REMARK    6  A    between atoms: C_11  and  C_13
REMARK    7  A    between atoms: C_11  and  N_15
REMARK    8  A    between atoms: C_13  and  N_14
REMARK                            x       y       z     vdW  Elec       q    Type
REMARK                         _______ _______ _______ _____ _____    ______ ____
ROOT
ATOM      1  C   UNL     1       0.654  -4.954  -0.032  0.00  0.00    +0.086 C 
ENDROOT
BRANCH   1   2
ATOM      2  N   UNL     1       0.359  -6.152  -0.830  0.00  0.00    -0.324 N 
ATOM      3  C   UNL     1      -0.681  -6.962  -0.195  0.00  0.00    +0.106 C 
ATOM      4  C   UNL     1      -0.965  -8.181  -1.082  0.00  0.00    +0.024 C 
ATOM      5  C   UNL     1      -1.629  -7.683  -2.368  0.00  0.00    +0.038 C 
ATOM      6  C   UNL     1      -0.859  -6.507  -2.914  0.00  0.00    -0.026 A 
ATOM      7  C   UNL     1       0.061  -5.812  -2.148  0.00  0.00    +0.033 A 
ATOM      8  C   UNL     1       0.731  -4.722  -2.704  0.00  0.00    +0.023 A 
ATOM      9  C   UNL     1       0.484  -4.340  -4.006  0.00  0.00    +0.002 A 
ATOM     10  C   UNL     1      -0.432  -5.041  -4.769  0.00  0.00    +0.000 A 
ATOM     11  C   UNL     1      -1.100  -6.120  -4.223  0.00  0.00    +0.005 A 
ENDBRANCH   1   2
BRANCH   1  14
ATOM     12  C   UNL     1      -2.788  -3.577   0.697  0.00  0.00    +0.162 A 
ATOM     13  C   UNL     1      -1.678  -4.407   0.692  0.00  0.00    +0.054 A 
ATOM     14  C   UNL     1      -0.550  -4.048  -0.023  0.00  0.00    -0.025 A 
ATOM     15  C   UNL     1      -0.523  -2.857  -0.725  0.00  0.00    +0.009 A 
ATOM     16  C   UNL     1      -1.625  -2.022  -0.719  0.00  0.00    +0.049 A 
ATOM     17  C   UNL     1      -2.760  -2.378  -0.009  0.00  0.00    +0.158 A 
BRANCH  17  18
ATOM     18  O   UNL     1      -3.845  -1.558  -0.003  0.00  0.00    -0.503 OA
ATOM     19  H   UNL     1      -3.822  -0.611  -0.561  0.00  0.00    +0.292 HD
ENDBRANCH  17  18
BRANCH  12  20
ATOM     20  O   UNL     1      -3.900  -3.931   1.395  0.00  0.00    -0.489 OA
BRANCH  20  22
ATOM     21  C   UNL     1      -5.188  -5.401   2.818  0.00  0.00    +0.048 C 
ATOM     22  C   UNL     1      -3.857  -5.175   2.097  0.00  0.00    +0.226 C 
ENDBRANCH  20  22
ENDBRANCH  12  20
ENDBRANCH   1  14
BRANCH   1  23
ATOM     23  C   UNL     1       0.992  -5.367   1.402  0.00  0.00    -0.059 C 
BRANCH  23  24
ATOM     24  N   UNL     1       2.090  -6.343   1.385  0.00  0.00    +0.380 N 
ATOM     25  H   UNL     1       2.333  -6.640   2.416  0.00  0.00    -0.090 HD
ATOM     26  H   UNL     1       2.975  -5.891   0.915  0.00  0.00    -0.090 HD
ATOM     27  H   UNL     1       1.782  -7.230   0.811  0.00  0.00    -0.090 HD
ENDBRANCH  23  24
ENDBRANCH   1  23
TORSDOF 7
