REMARK  Name = ZINC24776364
REMARK  4 active torsions:
REMARK  status: ('A' for Active; 'I' for Inactive)
REMARK    1  A    between atoms: C_5  and  C_7
REMARK    2  A    between atoms: N_12  and  C_15
REMARK    3  A    between atoms: C_15  and  C_16
REMARK    4  A    between atoms: N_18  and  C_19
REMARK                            x       y       z     vdW  Elec       q    Type
REMARK                         _______ _______ _______ _____ _____    ______ ____
ROOT
ATOM      1  C   UNL     1      -0.542   3.903   2.440  0.00  0.00    +0.248 C 
ATOM      2  O   UNL     1      -0.507   5.105   2.258  0.00  0.00    -0.270 OA
ATOM      3  N   UNL     1      -0.954   3.084   1.452  0.00  0.00    -0.301 N 
ATOM      4  C   UNL     1      -0.886   1.623   1.605  0.00  0.00    +0.089 C 
ATOM      5  C   UNL     1      -0.170   1.038   0.383  0.00  0.00    -0.059 C 
ATOM      6  N   UNL     1      -0.836   1.504  -0.840  0.00  0.00    +0.387 N 
ATOM      7  C   UNL     1      -0.744   2.964  -0.974  0.00  0.00    -0.059 C 
ATOM      8  C   UNL     1      -1.484   3.628   0.192  0.00  0.00    +0.089 C 
ATOM      9  H   UNL     1      -1.901   1.242  -0.762  0.00  0.00    -0.081 HD
ENDROOT
BRANCH   1  14
ATOM     10  C   UNL     1      -0.603   1.965   5.655  0.00  0.00    +0.001 A 
ATOM     11  C   UNL     1       0.634   2.286   6.187  0.00  0.00    +0.001 A 
ATOM     12  C   UNL     1       1.490   3.131   5.505  0.00  0.00    +0.021 A 
ATOM     13  C   UNL     1       1.114   3.661   4.286  0.00  0.00    +0.053 A 
ATOM     14  C   UNL     1      -0.133   3.341   3.743  0.00  0.00    +0.055 A 
ATOM     15  C   UNL     1      -0.993   2.491   4.442  0.00  0.00    +0.014 A 
ATOM     16 CL   UNL     1       2.188   4.723   3.430  0.00  0.00    -0.083 Cl
ENDBRANCH   1  14
BRANCH   6  17
ATOM     17  C   UNL     1      -0.289   0.831  -2.026  0.00  0.00    +0.019 C 
BRANCH  17  18
ATOM     18  C   UNL     1      -1.150   1.144  -3.223  0.00  0.00    +0.201 C 
ATOM     19  O   UNL     1      -2.123   1.857  -3.100  0.00  0.00    -0.278 OA
ATOM     20  N   UNL     1      -0.838   0.631  -4.430  0.00  0.00    -0.286 N 
ATOM     21  H   UNL     1       0.002  -0.072  -4.528  0.00  0.00    +0.155 HD
BRANCH  20  22
ATOM     22  C   UNL     1      -1.584   0.994  -5.559  0.00  0.00    +0.051 A 
ATOM     23  C   UNL     1      -2.946   1.233  -5.444  0.00  0.00    +0.073 A 
ATOM     24  C   UNL     1      -3.684   1.593  -6.561  0.00  0.00    +0.164 A 
ATOM     25  C   UNL     1      -3.057   1.715  -7.796  0.00  0.00    +0.163 A 
ATOM     26  C   UNL     1      -1.696   1.474  -7.908  0.00  0.00    +0.066 A 
ATOM     27  C   UNL     1      -0.959   1.120  -6.793  0.00  0.00    +0.043 A 
ATOM     28 BR   UNL     1       0.898   0.800  -6.950  0.00  0.00    -0.048 Br
ATOM     29  O   UNL     1      -3.765   2.071  -8.904  0.00  0.00    -0.485 OA
ATOM     30  C   UNL     1      -5.188   1.938  -8.828  0.00  0.00    +0.270 C 
ATOM     31  C   UNL     1      -5.656   2.538  -7.495  0.00  0.00    +0.270 C 
ATOM     32  O   UNL     1      -5.020   1.820  -6.433  0.00  0.00    -0.485 OA
ENDBRANCH  20  22
ENDBRANCH  17  18
ENDBRANCH   6  17
TORSDOF 4
