REMARK  Name = ZINC43248637
REMARK  10 active torsions:
REMARK  status: ('A' for Active; 'I' for Inactive)
REMARK    1  A    between atoms: C_1  and  C_2
REMARK    2  A    between atoms: C_2  and  C_3
REMARK    3  A    between atoms: C_3  and  C_5
REMARK    4  A    between atoms: C_3  and  N_22
REMARK    5  A    between atoms: C_5  and  C_7
REMARK    6  A    between atoms: C_5  and  N_13
REMARK    7  A    between atoms: C_8  and  C_12
REMARK    8  A    between atoms: N_13  and  C_14
REMARK    9  A    between atoms: N_13  and  C_15
REMARK   10  A    between atoms: C_15  and  C_16
REMARK                            x       y       z     vdW  Elec       q    Type
REMARK                         _______ _______ _______ _____ _____    ______ ____
ROOT
ATOM      1  C   UNL     1      -1.501  -2.103   0.169  0.00  0.00    -0.013 C 
ENDROOT
BRANCH   1   2
ATOM      2  C   UNL     1      -2.916  -2.612   0.071  0.00  0.00    -0.019 A 
ATOM      3  C   UNL     1      -3.510  -3.294  -0.938  0.00  0.00    -0.042 A 
ATOM      4  C   UNL     1      -4.836  -3.664  -0.808  0.00  0.00    +0.011 A 
ATOM      5  C   UNL     1      -5.502  -3.334   0.326  0.00  0.00    +0.045 A 
ATOM      6  S   UNL     1      -4.242  -2.479   1.259  0.00  0.00    -0.103 S 
ATOM      7  C   UNL     1      -2.738  -3.643  -2.184  0.00  0.00    +0.044 C 
ENDBRANCH   1   2
BRANCH   1   8
ATOM      8  N   UNL     1      -0.955  -2.424   1.494  0.00  0.00    +0.386 N 
ATOM      9  C   UNL     1       0.414  -1.901   1.600  0.00  0.00    -0.095 C 
ATOM     10  H   UNL     1      -1.532  -2.002   2.207  0.00  0.00    -0.081 HD
BRANCH   8  11
ATOM     11  C   UNL     1      -0.938  -3.881   1.677  0.00  0.00    -0.042 C 
BRANCH  11  12
ATOM     12  C   UNL     1      -0.495  -4.207   3.081  0.00  0.00    -0.056 A 
ATOM     13  C   UNL     1       0.846  -4.385   3.369  0.00  0.00    +0.024 A 
ATOM     14  C   UNL     1       1.210  -4.677   4.642  0.00  0.00    +0.055 A 
ATOM     15  S   UNL     1      -0.365  -4.706   5.481  0.00  0.00    -0.090 S 
ATOM     16  C   UNL     1      -1.403  -4.322   4.080  0.00  0.00    +0.048 A 
ATOM     17 BR   UNL     1       2.940  -4.976   5.347  0.00  0.00    -0.043 Br
ENDBRANCH  11  12
ENDBRANCH   8  11
ENDBRANCH   1   8
BRANCH   1  18
ATOM     18  C   UNL     1      -1.489  -0.587  -0.035  0.00  0.00    +0.042 C 
BRANCH  18  19
ATOM     19  N   UNL     1      -2.297   0.054   1.011  0.00  0.00    -0.328 NA
ATOM     20  H   UNL     1      -3.253  -0.270   0.978  0.00  0.00    +0.118 HD
ATOM     21  H   UNL     1      -1.895  -0.099   1.924  0.00  0.00    +0.118 HD
ENDBRANCH  18  19
BRANCH  18  23
ATOM     22  C   UNL     1      -1.923   1.247  -1.674  0.00  0.00    +0.005 C 
ATOM     23  C   UNL     1      -2.073  -0.252  -1.408  0.00  0.00    +0.014 C 
ENDBRANCH  18  23
ENDBRANCH   1  18
TORSDOF 7
