REMARK  Name = ZINC09403001
REMARK  6 active torsions:
REMARK  status: ('A' for Active; 'I' for Inactive)
REMARK    1  A    between atoms: C_3  and  N_15
REMARK    2  A    between atoms: C_5  and  S_7
REMARK    3  A    between atoms: S_7  and  N_10
REMARK    4  A    between atoms: N_15  and  C_16
REMARK    5  A    between atoms: C_16  and  N_18
REMARK    6  A    between atoms: C_19  and  C_21
REMARK                            x       y       z     vdW  Elec       q    Type
REMARK                         _______ _______ _______ _____ _____    ______ ____
ROOT
ATOM      1  C   UNL     1       3.501   1.057   2.831  0.00  0.00    +0.004 A 
ATOM      2  C   UNL     1       3.310   0.254   3.938  0.00  0.00    +0.023 A 
ATOM      3  C   UNL     1       2.690  -0.981   3.800  0.00  0.00    +0.034 A 
ATOM      4  C   UNL     1       2.265  -1.405   2.547  0.00  0.00    +0.052 A 
ATOM      5  C   UNL     1       2.459  -0.598   1.444  0.00  0.00    +0.110 A 
ATOM      6  C   UNL     1       3.081   0.630   1.584  0.00  0.00    +0.029 A 
ENDROOT
BRANCH   5   7
ATOM      7  S   UNL     1       1.920  -1.134  -0.145  0.00  0.00    +0.073 S 
ATOM      8  O   UNL     1       1.864  -2.553  -0.097  0.00  0.00    -0.150 OA
ATOM      9  O   UNL     1       2.708  -0.435  -1.099  0.00  0.00    -0.150 OA
BRANCH   7  10
ATOM     10  N   UNL     1       0.363  -0.606  -0.338  0.00  0.00    -0.205 N 
ATOM     11  C   UNL     1       0.097   0.737  -0.395  0.00  0.00    +0.088 C 
ATOM     12  C   UNL     1       0.410   3.006  -0.405  0.00  0.00    +0.114 C 
ATOM     13  C   UNL     1      -1.104   2.813  -0.158  0.00  0.00    +0.028 C 
ATOM     14  C   UNL     1      -1.282   1.331  -0.575  0.00  0.00    +0.072 C 
ATOM     15  H   UNL     1      -0.362  -1.247  -0.411  0.00  0.00    +0.175 HD
ATOM     16  N   UNL     1       1.008   1.657  -0.306  0.00  0.00    -0.375 N 
ATOM     17  H   UNL     1       2.010   1.473  -0.184  0.00  0.00    +0.161 HD
ENDBRANCH   7  10
ENDBRANCH   5   7
BRANCH   3  18
ATOM     18  N   UNL     1       2.496  -1.797   4.919  0.00  0.00    -0.297 N 
ATOM     19  H   UNL     1       2.201  -1.408   5.757  0.00  0.00    +0.154 HD
BRANCH  18  20
ATOM     20  C   UNL     1       2.718  -3.124   4.833  0.00  0.00    +0.141 C 
ATOM     21  S   UNL     1       3.373  -3.791   3.399  0.00  0.00    -0.018 S 
BRANCH  20  22
ATOM     22  N   UNL     1       2.425  -3.925   5.876  0.00  0.00    -0.264 N 
ATOM     23  C   UNL     1       2.647  -5.252   5.790  0.00  0.00    +0.251 C 
ATOM     24  O   UNL     1       3.112  -5.725   4.772  0.00  0.00    -0.270 OA
ATOM     25  H   UNL     1       2.053  -3.547   6.689  0.00  0.00    +0.157 HD
BRANCH  23  26
ATOM     26  C   UNL     1       2.325  -6.129   6.932  0.00  0.00    +0.056 A 
ATOM     27  C   UNL     1       1.791  -5.588   8.104  0.00  0.00    +0.017 A 
ATOM     28  C   UNL     1       1.492  -6.412   9.167  0.00  0.00    +0.039 A 
ATOM     29  C   UNL     1       1.721  -7.777   9.076  0.00  0.00    +0.125 A 
ATOM     30  C   UNL     1       2.252  -8.321   7.918  0.00  0.00    +0.059 A 
ATOM     31  C   UNL     1       2.550  -7.506   6.844  0.00  0.00    +0.056 A 
ATOM     32 CL   UNL     1       3.207  -8.190   5.390  0.00  0.00    -0.083 Cl
ATOM     33  F   UNL     1       1.426  -8.580  10.122  0.00  0.00    -0.205 F 
ENDBRANCH  23  26
ENDBRANCH  20  22
ENDBRANCH  18  20
ENDBRANCH   3  18
TORSDOF 6
