REMARK  Name = ZINC67517106
REMARK  3 active torsions:
REMARK  status: ('A' for Active; 'I' for Inactive)
REMARK    1  A    between atoms: C_1  and  C_2
REMARK    2  A    between atoms: C_15  and  C_17
REMARK    3  A    between atoms: C_21  and  C_27
REMARK                            x       y       z     vdW  Elec       q    Type
REMARK                         _______ _______ _______ _____ _____    ______ ____
ROOT
ATOM      1  C   UNL     1       0.607   1.207   2.439  0.00  0.00    +0.007 C 
ATOM      2  C   UNL     1       0.489  -0.235   1.942  0.00  0.00    -0.014 C 
ATOM      3  C   UNL     1       0.958  -0.314   0.487  0.00  0.00    +0.005 C 
ATOM      4  C   UNL     1       0.828  -1.754  -0.009  0.00  0.00    +0.023 C 
ATOM      5  C   UNL     1       1.701  -2.675   0.847  0.00  0.00    +0.079 C 
ATOM      6  C   UNL     1       1.269  -2.574   2.312  0.00  0.00    +0.010 C 
ATOM      7  C   UNL     1       1.366  -1.145   2.805  0.00  0.00    +0.008 C 
ATOM      8  C   UNL     1      -0.175  -3.057   2.451  0.00  0.00    +0.007 C 
ATOM      9  C   UNL     1      -0.263  -4.527   2.030  0.00  0.00    +0.019 C 
ATOM     10  C   UNL     1       0.167  -4.664   0.566  0.00  0.00    +0.108 C 
ATOM     11  N   UNL     1       1.509  -4.062   0.392  0.00  0.00    -0.297 N 
ATOM     12  C   UNL     1       2.528  -4.756  -0.153  0.00  0.00    +0.237 C 
ATOM     13  O   UNL     1       2.380  -5.925  -0.441  0.00  0.00    -0.274 OA
ENDROOT
BRANCH  12  14
ATOM     14  C   UNL     1       3.851  -4.080  -0.405  0.00  0.00    +0.173 C 
ATOM     15  C   UNL     1       3.700  -3.156  -1.637  0.00  0.00    +0.103 C 
ATOM     16  S   UNL     1       5.274  -3.540  -2.530  0.00  0.00    -0.133 S 
ATOM     17  C   UNL     1       5.424  -5.266  -1.907  0.00  0.00    +0.082 C 
ATOM     18  N   UNL     1       4.882  -5.114  -0.535  0.00  0.00    -0.275 N 
ATOM     19  C   UNL     1       5.553  -5.986   0.266  0.00  0.00    +0.217 C 
ATOM     20  O   UNL     1       5.196  -6.319   1.377  0.00  0.00    -0.276 OA
ATOM     21  C   UNL     1       6.803  -6.483  -0.422  0.00  0.00    +0.099 C 
ATOM     22  C   UNL     1       6.904  -5.628  -1.699  0.00  0.00    +0.046 C 
ATOM     23  C   UNL     1       4.672  -6.285  -2.767  0.00  0.00    +0.044 C 
ENDBRANCH  12  14
TORSDOF 1
