REMARK  Name = ZINC12070803
REMARK  13 active torsions:
REMARK  status: ('A' for Active; 'I' for Inactive)
REMARK    1  A    between atoms: C_1  and  C_2
REMARK    2  A    between atoms: N_11  and  C_12
REMARK    3  A    between atoms: C_12  and  C_13
REMARK    4  A    between atoms: C_13  and  C_14
REMARK    5  A    between atoms: C_14  and  N_63
REMARK    6  A    between atoms: C_15  and  N_63
REMARK    7  A    between atoms: C_16  and  N_63
REMARK    8  A    between atoms: C_17  and  C_19
REMARK    9  A    between atoms: C_19  and  C_20
REMARK   10  A    between atoms: C_23  and  S_26
REMARK   11  A    between atoms: S_26  and  C_29
REMARK   12  A    between atoms: C_29  and  C_30
REMARK   13  A    between atoms: C_29  and  C_31
REMARK                            x       y       z     vdW  Elec       q    Type
REMARK                         _______ _______ _______ _____ _____    ______ ____
ROOT
ATOM      1  C   UNL     1       2.317   0.122   8.643  0.00  0.00    +0.047 C 
ATOM      2  C   UNL     1       1.580   0.529   9.893  0.00  0.00    -0.006 A 
ATOM      3  C   UNL     1       2.114   0.234  11.121  0.00  0.00    +0.046 A 
ATOM      4  C   UNL     1       1.467   0.590  12.297  0.00  0.00    +0.021 A 
ATOM      5  C   UNL     1       0.258   1.258  12.229  0.00  0.00    +0.019 A 
ATOM      6  C   UNL     1      -0.283   1.558  11.004  0.00  0.00    +0.041 A 
ATOM      7  C   UNL     1       0.346   1.211   9.786  0.00  0.00    +0.085 A 
ATOM      8  N   UNL     1      -0.311   1.575   8.664  0.00  0.00    -0.224 NA
ATOM      9  C   UNL     1      -1.460   2.210   8.694  0.00  0.00    +0.168 A 
ATOM     10  S   UNL     1      -1.756   2.381  10.448  0.00  0.00    -0.052 S 
ATOM     11  N   UNL     1      -2.241   2.642   7.634  0.00  0.00    -0.250 N 
ATOM     12  C   UNL     1      -1.840   2.421   6.367  0.00  0.00    +0.226 C 
ATOM     13  O   UNL     1      -0.795   1.843   6.154  0.00  0.00    -0.275 OA
ATOM     14 CL   UNL     1       3.631  -0.605  11.208  0.00  0.00    -0.083 Cl
ENDROOT
BRANCH  11  15
ATOM     15  C   UNL     1      -3.503   3.340   7.892  0.00  0.00    +0.114 C 
BRANCH  15  16
ATOM     16  C   UNL     1      -4.641   2.320   7.981  0.00  0.00    +0.001 C 
BRANCH  16  17
ATOM     17  C   UNL     1      -5.959   3.049   8.250  0.00  0.00    -0.078 C 
BRANCH  17  20
ATOM     18  C   UNL     1      -8.285   2.699   8.825  0.00  0.00    -0.097 C 
ATOM     19  C   UNL     1      -7.272   1.414   7.040  0.00  0.00    -0.097 C 
ATOM     20  N   UNL     1      -7.043   2.050   8.354  0.00  0.00    +0.376 N 
ATOM     21  H   UNL     1      -6.767   1.328   9.031  0.00  0.00    -0.083 HD
ENDBRANCH  17  20
ENDBRANCH  16  17
ENDBRANCH  15  16
ENDBRANCH  11  15
BRANCH  12  22
ATOM     22  C   UNL     1      -2.690   2.891   5.215  0.00  0.00    +0.131 C 
BRANCH  22  23
ATOM     23  C   UNL     1      -2.022   2.523   3.915  0.00  0.00    -0.038 A 
ATOM     24  C   UNL     1      -2.295   1.306   3.318  0.00  0.00    +0.006 A 
ATOM     25  C   UNL     1      -1.683   0.968   2.126  0.00  0.00    +0.027 A 
ATOM     26  C   UNL     1      -0.798   1.847   1.530  0.00  0.00    +0.088 A 
ATOM     27  C   UNL     1      -0.521   3.062   2.129  0.00  0.00    +0.027 A 
ATOM     28  C   UNL     1      -1.137   3.402   3.319  0.00  0.00    +0.006 A 
BRANCH  26  29
ATOM     29  S   UNL     1      -0.017   1.417   0.010  0.00  0.00    -0.001 S 
ATOM     30  O   UNL     1       0.002  -0.004   0.002  0.00  0.00    -0.169 OA
ATOM     31  O   UNL     1       1.195   2.158   0.002  0.00  0.00    -0.169 OA
BRANCH  29  32
ATOM     32  C   UNL     1      -1.135   2.034  -1.279  0.00  0.00    +0.130 C 
ATOM     33  C   UNL     1      -0.615   1.603  -2.653  0.00  0.00    +0.032 C 
ATOM     34  C   UNL     1      -2.534   1.457  -1.060  0.00  0.00    +0.032 C 
ENDBRANCH  29  32
ENDBRANCH  26  29
ENDBRANCH  22  23
ENDBRANCH  12  22
TORSDOF 8
