REMARK  Name = ZINC39942414
REMARK  10 active torsions:
REMARK  status: ('A' for Active; 'I' for Inactive)
REMARK    1  A    between atoms: C_1  and  C_2
REMARK    2  A    between atoms: C_2  and  C_4
REMARK    3  A    between atoms: C_2  and  S_17
REMARK    4  A    between atoms: C_4  and  C_6
REMARK    5  A    between atoms: C_9  and  N_12
REMARK    6  A    between atoms: N_12  and  S_13
REMARK    7  A    between atoms: S_13  and  C_16
REMARK    8  A    between atoms: S_17  and  C_18
REMARK    9  A    between atoms: C_22  and  C_27
REMARK   10  A    between atoms: N_23  and  C_24
REMARK                            x       y       z     vdW  Elec       q    Type
REMARK                         _______ _______ _______ _____ _____    ______ ____
ROOT
ATOM      1  C   UNL     1      -1.965  -0.424   0.538  0.00  0.00    +0.237 C 
ATOM      2  N   UNL     1      -1.148  -0.896   1.667  0.00  0.00    -0.237 N 
ATOM      3  N   UNL     1      -0.602   0.244   2.268  0.00  0.00    -0.169 NA
ATOM      4  C   UNL     1      -0.980   1.333   1.651  0.00  0.00    +0.147 C 
ATOM      5  N   UNL     1      -1.823   1.041   0.572  0.00  0.00    -0.282 N 
ATOM      6  H   UNL     1      -1.014  -1.817   1.942  0.00  0.00    +0.171 HD
ENDROOT
BRANCH   4   7
ATOM      7  C   UNL     1      -0.594   2.629   2.025  0.00  0.00    +0.022 C 
ATOM      8  C   UNL     1       0.154   2.996   3.144  0.00  0.00    +0.006 A 
ATOM      9  C   UNL     1       0.730   2.248   4.193  0.00  0.00    +0.010 A 
ATOM     10  C   UNL     1       1.423   2.885   5.173  0.00  0.00    +0.001 A 
ATOM     11  C   UNL     1       1.583   4.272   5.172  0.00  0.00    +0.002 A 
ATOM     12  C   UNL     1       1.057   5.052   4.196  0.00  0.00    +0.026 A 
ATOM     13  C   UNL     1       0.321   4.459   3.138  0.00  0.00    +0.043 A 
ATOM     14  N   UNL     1      -0.279   4.987   2.089  0.00  0.00    -0.380 N 
ATOM     15  C   UNL     1      -0.896   3.919   1.296  0.00  0.00    +0.152 C 
ATOM     16  H   UNL     1      -0.305   5.932   1.874  0.00  0.00    +0.160 HD
ENDBRANCH   4   7
BRANCH   5  17
ATOM     17  C   UNL     1      -2.442   2.003  -0.344  0.00  0.00    +0.078 C 
ATOM     18  C   UNL     1      -3.968   2.115  -0.326  0.00  0.00    +0.024 C 
ATOM     19  C   UNL     1      -3.265   1.442  -1.506  0.00  0.00    +0.024 C 
ENDBRANCH   5  17
BRANCH   1  20
ATOM     20  S   UNL     1      -1.329  -1.086  -1.027  0.00  0.00    -0.107 S 
BRANCH  20  22
ATOM     21  C   UNL     1       0.443   0.994  -1.154  0.00  0.00    +0.027 C 
ATOM     22  C   UNL     1       0.398  -0.533  -1.068  0.00  0.00    +0.118 C 
BRANCH  22  23
ATOM     23  C   UNL     1       1.086  -1.124  -2.271  0.00  0.00    +0.176 C 
ATOM     24  O   UNL     1       0.436  -1.449  -3.243  0.00  0.00    -0.291 OA
BRANCH  23  25
ATOM     25  C   UNL     1       2.542  -1.307  -2.268  0.00  0.00    +0.019 A 
ATOM     26  C   UNL     1       3.294  -0.938  -1.144  0.00  0.00    +0.013 A 
ATOM     27  C   UNL     1       4.648  -1.110  -1.145  0.00  0.00    +0.025 A 
ATOM     28  C   UNL     1       5.283  -1.652  -2.260  0.00  0.00    +0.048 A 
ATOM     29  C   UNL     1       4.540  -2.020  -3.380  0.00  0.00    +0.025 A 
ATOM     30  C   UNL     1       3.184  -1.857  -3.385  0.00  0.00    +0.013 A 
BRANCH  28  31
ATOM     31  N   UNL     1       6.661  -1.825  -2.257  0.00  0.00    -0.221 N 
ATOM     32  H   UNL     1       7.227  -1.220  -2.761  0.00  0.00    +0.173 HD
BRANCH  31  33
ATOM     33  S   UNL     1       7.338  -3.064  -1.391  0.00  0.00    +0.040 S 
ATOM     34  O   UNL     1       8.737  -2.933  -1.603  0.00  0.00    -0.155 OA
ATOM     35  O   UNL     1       6.788  -2.938  -0.087  0.00  0.00    -0.155 OA
ATOM     36  C   UNL     1       6.725  -4.576  -2.184  0.00  0.00    +0.218 C 
ENDBRANCH  31  33
ENDBRANCH  28  31
ENDBRANCH  23  25
ENDBRANCH  22  23
ENDBRANCH  20  22
ENDBRANCH   1  20
TORSDOF 8
