REMARK  Name = ZINC08443702
REMARK  8 active torsions:
REMARK  status: ('A' for Active; 'I' for Inactive)
REMARK    1  A    between atoms: C_1  and  C_2
REMARK    2  A    between atoms: C_2  and  C_3
REMARK    3  A    between atoms: C_2  and  C_4
REMARK    4  A    between atoms: C_2  and  C_22
REMARK    5  A    between atoms: C_4  and  N_5
REMARK    6  A    between atoms: C_6  and  C_8
REMARK    7  A    between atoms: C_22  and  N_23
REMARK    8  A    between atoms: C_24  and  C_26
REMARK                            x       y       z     vdW  Elec       q    Type
REMARK                         _______ _______ _______ _____ _____    ______ ____
ROOT
ATOM      1  C   UNL     1      -2.188   1.063  -1.221  0.00  0.00    +0.014 C 
ATOM      2  C   UNL     1      -0.753   1.593  -1.232  0.00  0.00    -0.004 C 
ATOM      3  C   UNL     1      -0.773   3.123  -1.223  0.00  0.00    +0.014 C 
ENDROOT
BRANCH   2   4
ATOM      4  C   UNL     1      -0.013   1.086   0.008  0.00  0.00    +0.112 C 
BRANCH   4   5
ATOM      5  N   UNL     1      -0.698   1.558   1.213  0.00  0.00    -0.314 N 
ATOM      6  C   UNL     1      -0.222   1.232   2.431  0.00  0.00    +0.225 C 
ATOM      7  O   UNL     1       0.774   0.548   2.529  0.00  0.00    -0.275 OA
ATOM      8  H   UNL     1      -1.495   2.106   1.135  0.00  0.00    +0.149 HD
BRANCH   6   9
ATOM      9  C   UNL     1      -0.927   1.718   3.671  0.00  0.00    +0.142 C 
ATOM     10  C   UNL     1      -0.956   3.223   3.669  0.00  0.00    +0.011 A 
ATOM     11  C   UNL     1      -1.873   3.883   2.869  0.00  0.00    +0.008 A 
ATOM     12  C   UNL     1      -1.916   5.264   2.854  0.00  0.00    +0.001 A 
ATOM     13  C   UNL     1      -1.041   5.992   3.639  0.00  0.00    +0.004 A 
ATOM     14  C   UNL     1      -0.124   5.339   4.438  0.00  0.00    +0.046 A 
ATOM     15  C   UNL     1      -0.079   3.950   4.456  0.00  0.00    +0.133 A 
ATOM     16  O   UNL     1       0.828   3.327   5.247  0.00  0.00    -0.455 OA
ATOM     17  C   UNL     1       0.637   2.037   5.612  0.00  0.00    +0.133 A 
ATOM     18  C   UNL     1      -0.203   1.207   4.887  0.00  0.00    +0.011 A 
ATOM     19  C   UNL     1      -0.381  -0.107   5.281  0.00  0.00    +0.008 A 
ATOM     20  C   UNL     1       0.275  -0.595   6.395  0.00  0.00    +0.001 A 
ATOM     21  C   UNL     1       1.114   0.231   7.120  0.00  0.00    +0.004 A 
ATOM     22  C   UNL     1       1.296   1.543   6.731  0.00  0.00    +0.046 A 
ENDBRANCH   6   9
ENDBRANCH   4   5
ENDBRANCH   2   4
BRANCH   2  23
ATOM     23  C   UNL     1      -0.037   1.099  -2.490  0.00  0.00    +0.112 C 
BRANCH  23  24
ATOM     24  N   UNL     1      -0.745   1.585  -3.677  0.00  0.00    -0.314 N 
ATOM     25  C   UNL     1      -0.292   1.272  -4.907  0.00  0.00    +0.225 C 
ATOM     26  O   UNL     1       0.702   0.589  -5.032  0.00  0.00    -0.275 OA
ATOM     27  H   UNL     1      -1.540   2.131  -3.578  0.00  0.00    +0.149 HD
BRANCH  25  28
ATOM     28  C   UNL     1      -1.021   1.771  -6.128  0.00  0.00    +0.142 C 
ATOM     29  C   UNL     1      -2.435   1.258  -6.107  0.00  0.00    +0.011 A 
ATOM     30  C   UNL     1      -3.366   1.867  -5.283  0.00  0.00    +0.008 A 
ATOM     31  C   UNL     1      -4.670   1.411  -5.250  0.00  0.00    +0.001 A 
ATOM     32  C   UNL     1      -5.050   0.343  -6.041  0.00  0.00    +0.004 A 
ATOM     33  C   UNL     1      -4.126  -0.269  -6.865  0.00  0.00    +0.046 A 
ATOM     34  C   UNL     1      -2.813   0.188  -6.900  0.00  0.00    +0.133 A 
ATOM     35  O   UNL     1      -1.921  -0.425  -7.715  0.00  0.00    -0.455 OA
ATOM     36  C   UNL     1      -0.792   0.221  -8.093  0.00  0.00    +0.133 A 
ATOM     37  C   UNL     1      -0.306   1.294  -7.363  0.00  0.00    +0.011 A 
ATOM     38  C   UNL     1       0.850   1.937  -7.770  0.00  0.00    +0.008 A 
ATOM     39  C   UNL     1       1.520   1.513  -8.902  0.00  0.00    +0.001 A 
ATOM     40  C   UNL     1       1.038   0.442  -9.632  0.00  0.00    +0.004 A 
ATOM     41  C   UNL     1      -0.114  -0.204  -9.230  0.00  0.00    +0.046 A 
ENDBRANCH  25  28
ENDBRANCH  23  24
ENDBRANCH   2  23
TORSDOF 6
