REMARK  Name = ZINC02336666
REMARK  9 active torsions:
REMARK  status: ('A' for Active; 'I' for Inactive)
REMARK    1  A    between atoms: C_4  and  C_8
REMARK    2  A    between atoms: C_5  and  O_7
REMARK    3  A    between atoms: N_9  and  N_10
REMARK    4  A    between atoms: C_11  and  C_13
REMARK    5  A    between atoms: C_13  and  C_14
REMARK    6  A    between atoms: C_14  and  C_15
REMARK    7  A    between atoms: N_17  and  N_18
REMARK    8  A    between atoms: C_19  and  C_20
REMARK    9  A    between atoms: C_21  and  O_27
REMARK                            x       y       z     vdW  Elec       q    Type
REMARK                         _______ _______ _______ _____ _____    ______ ____
ROOT
ATOM      1  C   UNL     1       6.299  -4.724  -0.087  0.00  0.00    +0.107 C 
ENDROOT
BRANCH   1   3
ATOM      2  N   UNL     1       4.954  -2.648  -0.062  0.00  0.00    -0.207 N 
ATOM      3  C   UNL     1       4.980  -3.996  -0.069  0.00  0.00    +0.233 C 
ATOM      4  O   UNL     1       3.941  -4.623  -0.062  0.00  0.00    -0.274 OA
ATOM      5  H   UNL     1       5.784  -2.147  -0.068  0.00  0.00    +0.177 HD
BRANCH   2   7
ATOM      6  C   UNL     1       3.702  -0.674  -0.038  0.00  0.00    +0.142 C 
ATOM      7  N   UNL     1       3.727  -1.972  -0.046  0.00  0.00    -0.188 NA
BRANCH   6  11
ATOM      8  C   UNL     1      -0.017   1.378   0.010  0.00  0.00    +0.019 A 
ATOM      9  C   UNL     1       1.169   2.095   0.002  0.00  0.00    +0.019 A 
ATOM     10  C   UNL     1       2.380   1.434  -0.013  0.00  0.00    +0.028 A 
ATOM     11  C   UNL     1       2.412   0.038  -0.021  0.00  0.00    +0.037 A 
ATOM     12  C   UNL     1       1.210  -0.682  -0.013  0.00  0.00    +0.126 A 
ATOM     13  C   UNL     1       0.002  -0.004   0.002  0.00  0.00    +0.047 A 
ATOM     14 BR   UNL     1       1.127   3.985   0.013  0.00  0.00    -0.050 Br
BRANCH  12  15
ATOM     15  O   UNL     1       1.228  -2.041  -0.021  0.00  0.00    -0.506 OA
ATOM     16  H   UNL     1       1.243  -2.439   0.860  0.00  0.00    +0.292 HD
ENDBRANCH  12  15
ENDBRANCH   6  11
ENDBRANCH   2   7
ENDBRANCH   1   3
BRANCH   1  17
ATOM     17  C   UNL     1       6.049  -6.233  -0.092  0.00  0.00    +0.107 C 
BRANCH  17  18
ATOM     18  C   UNL     1       7.368  -6.961  -0.110  0.00  0.00    +0.233 C 
ATOM     19  O   UNL     1       8.407  -6.334  -0.117  0.00  0.00    -0.274 OA
ATOM     20  N   UNL     1       7.395  -8.309  -0.117  0.00  0.00    -0.207 N 
ATOM     21  H   UNL     1       6.564  -8.810  -0.112  0.00  0.00    +0.177 HD
BRANCH  20  22
ATOM     22  N   UNL     1       8.621  -8.986  -0.134  0.00  0.00    -0.188 NA
ATOM     23  C   UNL     1       8.646 -10.283  -0.141  0.00  0.00    +0.142 C 
BRANCH  23  24
ATOM     24  C   UNL     1       9.937 -10.995  -0.158  0.00  0.00    +0.037 A 
ATOM     25  C   UNL     1      11.139 -10.275  -0.161  0.00  0.00    +0.126 A 
ATOM     26  C   UNL     1      12.346 -10.953  -0.176  0.00  0.00    +0.047 A 
ATOM     27  C   UNL     1      12.365 -12.335  -0.190  0.00  0.00    +0.019 A 
ATOM     28  C   UNL     1      11.180 -13.052  -0.188  0.00  0.00    +0.019 A 
ATOM     29  C   UNL     1       9.968 -12.391  -0.166  0.00  0.00    +0.028 A 
ATOM     30 BR   UNL     1      11.222 -14.942  -0.207  0.00  0.00    -0.050 Br
BRANCH  25  31
ATOM     31  O   UNL     1      11.120  -8.917  -0.149  0.00  0.00    -0.506 OA
ATOM     32  H   UNL     1      11.121  -8.531   0.738  0.00  0.00    +0.292 HD
ENDBRANCH  25  31
ENDBRANCH  23  24
ENDBRANCH  20  22
ENDBRANCH  17  18
ENDBRANCH   1  17
TORSDOF 9
