REMARK  Name = ZINC20759482
REMARK  10 active torsions:
REMARK  status: ('A' for Active; 'I' for Inactive)
REMARK    1  A    between atoms: C_1  and  C_2
REMARK    2  A    between atoms: C_2  and  O_3
REMARK    3  A    between atoms: O_3  and  C_4
REMARK    4  A    between atoms: C_9  and  N_10
REMARK    5  A    between atoms: C_11  and  C_13
REMARK    6  A    between atoms: C_13  and  S_14
REMARK    7  A    between atoms: S_14  and  C_15
REMARK    8  A    between atoms: C_19  and  C_23
REMARK    9  A    between atoms: N_26  and  C_27
REMARK   10  A    between atoms: C_31  and  C_33
REMARK                            x       y       z     vdW  Elec       q    Type
REMARK                         _______ _______ _______ _____ _____    ______ ____
ROOT
ATOM      1  C   UNL     1      -4.595   2.536   2.230  0.00  0.00    +0.177 A 
ATOM      2  N   UNL     1      -3.569   2.632   3.040  0.00  0.00    -0.201 NA
ATOM      3  C   UNL     1      -2.321   2.324   2.658  0.00  0.00    +0.187 A 
ATOM      4  C   UNL     1      -2.086   1.879   1.350  0.00  0.00    +0.082 A 
ATOM      5  C   UNL     1      -0.708   1.626   1.234  0.00  0.00    +0.046 A 
ATOM      6  N   UNL     1      -0.141   1.908   2.375  0.00  0.00    -0.279 N 
ATOM      7  N   UNL     1      -1.113   2.339   3.285  0.00  0.00    -0.153 NA
ATOM      8  H   UNL     1       0.947   1.788   2.493  0.00  0.00    +0.189 HD
ATOM      9  C   UNL     1      -0.002   1.143  -0.007  0.00  0.00    +0.066 C 
ATOM     10  C   UNL     1      -3.230   1.773   0.434  0.00  0.00    +0.124 A 
ATOM     11  N   UNL     1      -3.077   1.376  -0.805  0.00  0.00    -0.384 N 
ATOM     12  N   UNL     1      -4.479   2.108   0.936  0.00  0.00    -0.275 N 
ATOM     13  H   UNL     1      -3.949   1.305  -1.471  0.00  0.00    +0.157 HD
ATOM     14  H   UNL     1      -2.076   1.114  -1.179  0.00  0.00    +0.157 HD
ENDROOT
BRANCH  12  15
ATOM     15  C   UNL     1      -5.612   2.022   0.118  0.00  0.00    +0.051 A 
ATOM     16  C   UNL     1      -6.040   0.786  -0.351  0.00  0.00    +0.026 A 
ATOM     17  C   UNL     1      -7.160   0.704  -1.153  0.00  0.00    +0.002 A 
ATOM     18  C   UNL     1      -7.851   1.851  -1.499  0.00  0.00    +0.003 A 
ATOM     19  C   UNL     1      -7.425   3.083  -1.038  0.00  0.00    -0.048 A 
ATOM     20  C   UNL     1      -6.307   3.171  -0.231  0.00  0.00    +0.029 A 
ATOM     21  C   UNL     1      -8.180   4.330  -1.418  0.00  0.00    +0.044 C 
ENDBRANCH  12  15
BRANCH   1  22
ATOM     22  S   UNL     1      -6.192   2.972   2.835  0.00  0.00    -0.078 S 
BRANCH  22  23
ATOM     23  C   UNL     1      -5.768   3.446   4.529  0.00  0.00    +0.173 C 
BRANCH  23  25
ATOM     24  N   UNL     1      -6.943   4.266   6.546  0.00  0.00    -0.282 N 
ATOM     25  C   UNL     1      -7.016   3.869   5.260  0.00  0.00    +0.228 C 
ATOM     26  O   UNL     1      -8.087   3.852   4.691  0.00  0.00    -0.275 OA
ATOM     27  H   UNL     1      -5.989   4.195   7.090  0.00  0.00    +0.155 HD
BRANCH  24  33
ATOM     28  C   UNL     1      -8.184   4.702   8.578  0.00  0.00    +0.142 A 
ATOM     29  C   UNL     1      -9.312   5.201   9.209  0.00  0.00    +0.047 A 
ATOM     30  C   UNL     1     -10.332   5.763   8.463  0.00  0.00    +0.004 A 
ATOM     31  C   UNL     1     -10.229   5.829   7.086  0.00  0.00    +0.002 A 
ATOM     32  C   UNL     1      -9.105   5.338   6.448  0.00  0.00    +0.027 A 
ATOM     33  C   UNL     1      -8.081   4.768   7.190  0.00  0.00    +0.076 A 
BRANCH  28  34
ATOM     34  O   UNL     1      -7.181   4.151   9.311  0.00  0.00    -0.490 OA
BRANCH  34  36
ATOM     35  C   UNL     1      -6.133   3.465  11.378  0.00  0.00    +0.048 C 
ATOM     36  C   UNL     1      -7.356   4.117  10.728  0.00  0.00    +0.226 C 
ENDBRANCH  34  36
ENDBRANCH  28  34
ENDBRANCH  24  33
ENDBRANCH  23  25
ENDBRANCH  22  23
ENDBRANCH   1  22
TORSDOF 7
