REMARK  Name = ZINC09845285
REMARK  12 active torsions:
REMARK  status: ('A' for Active; 'I' for Inactive)
REMARK    1  A    between atoms: C_1  and  C_2
REMARK    2  A    between atoms: C_2  and  C_4
REMARK    3  A    between atoms: C_2  and  O_17
REMARK    4  A    between atoms: N_6  and  C_7
REMARK    5  A    between atoms: C_10  and  S_13
REMARK    6  A    between atoms: S_13  and  N_16
REMARK    7  A    between atoms: O_17  and  C_18
REMARK    8  A    between atoms: C_18  and  C_20
REMARK    9  A    between atoms: C_27  and  C_30
REMARK   10  A    between atoms: C_30  and  C_31
REMARK   11  A    between atoms: C_30  and  C_32
REMARK   12  A    between atoms: C_30  and  C_33
REMARK                            x       y       z     vdW  Elec       q    Type
REMARK                         _______ _______ _______ _____ _____    ______ ____
ROOT
ATOM      1  C   UNL     1       5.401   1.469   1.411  0.00  0.00    +0.062 C 
ATOM      2  C   UNL     1       4.915   1.657  -0.027  0.00  0.00    +0.259 C 
ENDROOT
BRANCH   2   3
ATOM      3  C   UNL     1       5.836   2.606  -0.749  0.00  0.00    +0.258 C 
ATOM      4  O   UNL     1       5.422   3.681  -1.130  0.00  0.00    -0.271 OA
ATOM      5  N   UNL     1       7.119   2.260  -0.973  0.00  0.00    -0.282 N 
ATOM      6  H   UNL     1       7.468   1.430  -0.611  0.00  0.00    +0.155 HD
BRANCH   5   7
ATOM      7  C   UNL     1       7.948   3.098  -1.727  0.00  0.00    +0.034 A 
ATOM      8  C   UNL     1       8.920   2.552  -2.556  0.00  0.00    +0.025 A 
ATOM      9  C   UNL     1       9.732   3.381  -3.304  0.00  0.00    +0.030 A 
ATOM     10  C   UNL     1       9.588   4.754  -3.218  0.00  0.00    +0.105 A 
ATOM     11  C   UNL     1       8.625   5.301  -2.389  0.00  0.00    +0.030 A 
ATOM     12  C   UNL     1       7.805   4.476  -1.643  0.00  0.00    +0.025 A 
BRANCH  10  13
ATOM     13  S   UNL     1      10.632   5.809  -4.168  0.00  0.00    +0.056 S 
ATOM     14  O   UNL     1      11.084   5.042  -5.276  0.00  0.00    -0.153 OA
ATOM     15  O   UNL     1       9.933   7.037  -4.325  0.00  0.00    -0.153 OA
BRANCH  13  16
ATOM     16  N   UNL     1      11.966   6.138  -3.244  0.00  0.00    -0.204 NA
ATOM     17  H   UNL     1      12.820   6.310  -3.670  0.00  0.00    +0.144 HD
ATOM     18  H   UNL     1      11.893   6.160  -2.277  0.00  0.00    +0.144 HD
ENDBRANCH  13  16
ENDBRANCH  10  13
ENDBRANCH   5   7
ENDBRANCH   2   3
BRANCH   2  19
ATOM     19  O   UNL     1       3.569   2.203  -0.016  0.00  0.00    -0.448 OA
BRANCH  19  20
ATOM     20  C   UNL     1       2.550   1.319  -0.003  0.00  0.00    +0.347 C 
ATOM     21  O   UNL     1       2.780   0.125  -0.002  0.00  0.00    -0.244 OA
BRANCH  20  22
ATOM     22  C   UNL     1       1.166   1.798   0.009  0.00  0.00    +0.097 A 
ATOM     23  C   UNL     1      -0.009   1.069   0.022  0.00  0.00    +0.026 A 
ATOM     24  C   UNL     1      -1.208   1.762   0.028  0.00  0.00    -0.036 A 
ATOM     25  C   UNL     1      -1.131   3.126   0.028  0.00  0.00    -0.006 A 
ATOM     26  S   UNL     1       0.556   3.476   0.011  0.00  0.00    -0.086 S 
ATOM     27  C   UNL     1      -2.272   4.096   0.036  0.00  0.00    +0.043 C 
ATOM     28  C   UNL     1      -3.556   3.334  -0.324  0.00  0.00    +0.009 C 
ATOM     29  C   UNL     1      -3.626   2.059   0.521  0.00  0.00    -0.001 C 
ATOM     30  C   UNL     1      -2.566   1.064   0.051  0.00  0.00    +0.040 C 
BRANCH  29  31
ATOM     31  C   UNL     1      -5.013   1.430   0.377  0.00  0.00    -0.035 C 
ATOM     32  C   UNL     1      -5.267   1.084  -1.091  0.00  0.00    +0.011 C 
ATOM     33  C   UNL     1      -5.085   0.156   1.221  0.00  0.00    +0.011 C 
ATOM     34  C   UNL     1      -6.075   2.421   0.859  0.00  0.00    +0.011 C 
ENDBRANCH  29  31
ENDBRANCH  20  22
ENDBRANCH  19  20
ENDBRANCH   2  19
TORSDOF 8
