REMARK  Name = ZINC22939048
REMARK  8 active torsions:
REMARK  status: ('A' for Active; 'I' for Inactive)
REMARK    1  A    between atoms: C_4  and  N_7
REMARK    2  A    between atoms: C_8  and  C_10
REMARK    3  A    between atoms: C_14  and  N_15
REMARK    4  A    between atoms: C_16  and  C_18
REMARK    5  A    between atoms: C_18  and  N_19
REMARK    6  A    between atoms: N_22  and  C_25
REMARK    7  A    between atoms: C_25  and  C_26
REMARK    8  A    between atoms: C_26  and  O_27
REMARK                            x       y       z     vdW  Elec       q    Type
REMARK                         _______ _______ _______ _____ _____    ______ ____
ROOT
ATOM      1  C   UNL     1       4.926  -2.701   0.152  0.00  0.00    +0.069 A 
ATOM      2  C   UNL     1       5.544  -2.986   1.446  0.00  0.00    -0.023 A 
ATOM      3  C   UNL     1       6.717  -3.639   1.361  0.00  0.00    -0.004 A 
ATOM      4  S   UNL     1       6.979  -3.865  -0.380  0.00  0.00    -0.077 S 
ATOM      5  C   UNL     1       5.595  -3.130  -0.979  0.00  0.00    +0.084 A 
ATOM      6  C   UNL     1       7.312  -3.902   2.718  0.00  0.00    +0.043 C 
ATOM      7  C   UNL     1       6.558  -2.945   3.667  0.00  0.00    +0.010 C 
ATOM      8  C   UNL     1       5.224  -2.746   2.919  0.00  0.00    +0.037 C 
ENDROOT
BRANCH   1  10
ATOM      9  N   UNL     1       3.621  -0.650  -0.036  0.00  0.00    -0.281 N 
ATOM     10  C   UNL     1       3.644  -1.994   0.058  0.00  0.00    +0.251 C 
ATOM     11  O   UNL     1       2.601  -2.622   0.065  0.00  0.00    -0.270 OA
ATOM     12  H   UNL     1       4.451  -0.155  -0.119  0.00  0.00    +0.155 HD
BRANCH   9  16
ATOM     13  C   UNL     1      -0.015   1.380   0.029  0.00  0.00    +0.000 A 
ATOM     14  C   UNL     1       0.140   0.219   0.763  0.00  0.00    +0.002 A 
ATOM     15  C   UNL     1       1.344  -0.457   0.744  0.00  0.00    +0.023 A 
ATOM     16  C   UNL     1       2.400   0.031  -0.015  0.00  0.00    +0.034 A 
ATOM     17  C   UNL     1       2.241   1.198  -0.751  0.00  0.00    +0.023 A 
ATOM     18  C   UNL     1       1.034   1.869  -0.728  0.00  0.00    +0.002 A 
ENDBRANCH   9  16
ENDBRANCH   1  10
BRANCH   5  19
ATOM     19  N   UNL     1       5.213  -2.984  -2.304  0.00  0.00    -0.281 N 
ATOM     20  C   UNL     1       5.995  -3.468  -3.288  0.00  0.00    +0.201 C 
ATOM     21  O   UNL     1       7.034  -4.031  -3.016  0.00  0.00    -0.278 OA
ATOM     22  H   UNL     1       4.382  -2.533  -2.522  0.00  0.00    +0.155 HD
BRANCH  20  23
ATOM     23  C   UNL     1       5.579  -3.309  -4.728  0.00  0.00    +0.019 C 
BRANCH  23  24
ATOM     24  N   UNL     1       6.593  -3.917  -5.601  0.00  0.00    +0.387 N 
ATOM     25  C   UNL     1       7.854  -3.175  -5.475  0.00  0.00    -0.063 C 
ATOM     26  C   UNL     1       8.916  -3.818  -6.369  0.00  0.00    +0.066 C 
ATOM     27  N   UNL     1       8.454  -3.800  -7.764  0.00  0.00    -0.304 NA
ATOM     28  C   UNL     1       7.179  -4.518  -7.901  0.00  0.00    +0.066 C 
ATOM     29  C   UNL     1       6.131  -3.869  -6.994  0.00  0.00    -0.063 C 
ATOM     30  H   UNL     1       6.739  -4.877  -5.328  0.00  0.00    -0.081 HD
BRANCH  27  31
ATOM     31  C   UNL     1       9.472  -4.359  -8.664  0.00  0.00    +0.112 C 
BRANCH  31  32
ATOM     32  C   UNL     1       9.068  -4.098 -10.116  0.00  0.00    +0.171 C 
BRANCH  32  33
ATOM     33  O   UNL     1       9.073  -2.692 -10.367  0.00  0.00    -0.394 OA
ATOM     34  H   UNL     1       8.826  -2.452 -11.271  0.00  0.00    +0.209 HD
ENDBRANCH  32  33
ENDBRANCH  31  32
ENDBRANCH  27  31
ENDBRANCH  23  24
ENDBRANCH  20  23
ENDBRANCH   5  19
TORSDOF 8
