REMARK  Name = ZINC40776857
REMARK  13 active torsions:
REMARK  status: ('A' for Active; 'I' for Inactive)
REMARK    1  A    between atoms: CD1_1  and  CG_2
REMARK    2  A    between atoms: CG_2  and  CD2_3
REMARK    3  A    between atoms: CG_2  and  CB_4
REMARK    4  A    between atoms: CB_4  and  CA_5
REMARK    5  A    between atoms: CA_5  and  C_7
REMARK    6  A    between atoms: CA_5  and  N_9
REMARK    7  A    between atoms: C_7  and  O_8
REMARK    8  A    between atoms: N_9  and  C_10
REMARK    9  A    between atoms: C_10  and  C_11
REMARK   10  A    between atoms: C_11  and  C_13
REMARK   11  A    between atoms: C_11  and  O_23
REMARK   12  A    between atoms: C_13  and  O_14
REMARK   13  A    between atoms: O_14  and  C_15
REMARK                            x       y       z     vdW  Elec       q    Type
REMARK                         _______ _______ _______ _____ _____    ______ ____
ROOT
ATOM      1  C   UNK A   0      -3.481  -1.089   3.651  0.00  0.00    +0.135 C 
ENDROOT
BRANCH   1   2
ATOM      2  O   UNK A   0      -3.267  -2.483   3.878  0.00  0.00    -0.390 OA
ATOM      3  H   UNK A   0      -2.831  -2.683   4.718  0.00  0.00    +0.210 HD
ENDBRANCH   1   2
BRANCH   1   4
ATOM      4  C   UNK A   0      -2.135  -0.361   3.644  0.00  0.00    -0.047 C 
BRANCH   4   5
ATOM      5  N   LEU A   1      -1.334  -0.823   2.503  0.00  0.00    +0.384 N 
ATOM      6  H1  LEU A   1      -1.826  -0.626   1.645  0.00  0.00    -0.085 HD
ATOM      7  H2  LEU A   1      -1.178  -1.816   2.582  0.00  0.00    -0.085 HD
BRANCH   5   8
ATOM      8  CA  LEU A   1      -0.042  -0.124   2.497  0.00  0.00    -0.046 C 
BRANCH   8   9
ATOM      9  CB  LEU A   1       0.742  -0.511   1.242  0.00  0.00    -0.011 C 
BRANCH   9  11
ATOM     10  CD1 LEU A   1      -0.019   1.526   0.010  0.00  0.00    +0.007 C 
ATOM     11  CG  LEU A   1       0.002  -0.004   0.002  0.00  0.00    -0.019 C 
ATOM     12  CD2 LEU A   1       0.718  -0.497  -1.257  0.00  0.00    +0.007 C 
ENDBRANCH   9  11
ENDBRANCH   8   9
BRANCH   8  13
ATOM     13  C   LEU A   1       0.758  -0.520   3.740  0.00  0.00    +0.140 C 
BRANCH  13  14
ATOM     14  O   LEU A   1       1.080  -1.911   3.676  0.00  0.00    -0.397 OA
ATOM     15  H   LEU A   1       1.589  -2.232   4.433  0.00  0.00    +0.209 HD
ENDBRANCH  13  14
ENDBRANCH   8  13
ENDBRANCH   5   8
ENDBRANCH   4   5
ENDBRANCH   1   4
BRANCH   1  16
ATOM     16  C   UNK A   0      -4.363  -0.520   4.763  0.00  0.00    +0.258 C 
BRANCH  16  17
ATOM     17  O   UNK A   0      -5.660  -1.117   4.695  0.00  0.00    -0.487 OA
BRANCH  17  18
ATOM     18  C   UNK A   0      -6.572  -0.718   5.621  0.00  0.00    +0.157 A 
ATOM     19  C   UNK A   0      -6.670  -1.387   6.833  0.00  0.00    +0.084 A 
ATOM     20  C   UNK A   0      -7.599  -0.979   7.773  0.00  0.00    +0.024 A 
ATOM     21  C   UNK A   0      -8.430   0.093   7.505  0.00  0.00    +0.003 A 
ATOM     22  C   UNK A   0      -8.335   0.761   6.298  0.00  0.00    +0.024 A 
ATOM     23  C   UNK A   0      -7.404   0.361   5.357  0.00  0.00    +0.084 A 
ATOM     24 CL   UNK A   0      -7.279   1.205   3.845  0.00  0.00    -0.080 Cl
ATOM     25 CL   UNK A   0      -5.628  -2.733   7.170  0.00  0.00    -0.080 Cl
ENDBRANCH  17  18
ENDBRANCH  16  17
ENDBRANCH   1  16
TORSDOF 11
