REMARK  Name = ZINC20301701
REMARK  4 active torsions:
REMARK  status: ('A' for Active; 'I' for Inactive)
REMARK    1  A    between atoms: C_1  and  C_2
REMARK    2  A    between atoms: C_2  and  C_4
REMARK    3  A    between atoms: C_2  and  N_10
REMARK    4  A    between atoms: N_10  and  C_11
REMARK                            x       y       z     vdW  Elec       q    Type
REMARK                         _______ _______ _______ _____ _____    ______ ____
ROOT
ATOM      1  C   UNL     1      -0.753   1.593  -1.232  0.00  0.00    +0.034 C 
ATOM      2  C   UNL     1      -0.013   1.086   0.008  0.00  0.00    +0.138 C 
ENDROOT
BRANCH   2   3
ATOM      3  C   UNL     1      -0.718   1.572   1.248  0.00  0.00    +0.237 C 
ATOM      4  O   UNL     1      -0.131   2.272   2.044  0.00  0.00    -0.274 OA
ATOM      5  N   UNL     1      -2.002   1.228   1.472  0.00  0.00    -0.239 N 
ATOM      6  C   UNL     1      -2.633   1.662   2.580  0.00  0.00    +0.303 C 
ATOM      7  O   UNL     1      -2.044   2.365   3.379  0.00  0.00    -0.253 OA
ATOM      8  N   UNL     1      -3.916   1.318   2.804  0.00  0.00    -0.313 N 
ATOM      9  H   UNL     1      -2.535   0.592   0.749  0.00  0.00    +0.159 HD
ATOM     10  H   UNL     1      -4.431   1.673   3.709  0.00  0.00    +0.146 HD
ATOM     11  H   UNL     1      -4.449   0.682   2.082  0.00  0.00    +0.146 HD
ENDBRANCH   2   3
BRANCH   2  12
ATOM     12  N   UNL     1       1.365   1.594  -0.002  0.00  0.00    -0.305 NA
ATOM     13  H   UNL     1       1.380   2.605  -0.435  0.00  0.00    +0.123 HD
BRANCH  12  14
ATOM     14  C   UNL     1       2.241   0.727  -0.802  0.00  0.00    +0.041 C 
ATOM     15  C   UNL     1       2.758  -0.422   0.068  0.00  0.00    -0.060 C 
ATOM     16  N   UNL     1       4.226  -0.369   0.123  0.00  0.00    +0.381 N 
ATOM     17  C   UNL     1       4.811  -0.541  -1.214  0.00  0.00    -0.078 C 
ATOM     18  C   UNL     1       4.351   0.604  -2.120  0.00  0.00    -0.014 C 
ATOM     19  C   UNL     1       3.438   1.537  -1.315  0.00  0.00    +0.001 C 
ATOM     20  C   UNL     1       4.222   2.069  -0.109  0.00  0.00    -0.014 C 
ATOM     21  C   UNL     1       4.685   0.883   0.741  0.00  0.00    -0.078 C 
ATOM     22  H   UNL     1       4.569  -1.203   0.753  0.00  0.00    -0.082 HD
ENDBRANCH  12  14
ENDBRANCH   2  12
TORSDOF 3
