REMARK  Name = ZINC13635048
REMARK  1 active torsions:
REMARK  status: ('A' for Active; 'I' for Inactive)
REMARK    1  A    between atoms: C_6  and  C_7
REMARK                            x       y       z     vdW  Elec       q    Type
REMARK                         _______ _______ _______ _____ _____    ______ ____
ROOT
ATOM      1  C   UNL     1      -1.042  -3.559  -0.006  0.00  0.00    +0.028 C 
ATOM      2  C   UNL     1      -0.437  -2.389  -0.336  0.00  0.00    +0.081 A 
ATOM      3  C   UNL     1      -1.008  -1.036  -0.438  0.00  0.00    +0.272 A 
ATOM      4  O   UNL     1      -2.185  -0.832  -0.213  0.00  0.00    -0.266 OA
ATOM      5  N   UNL     1      -0.186  -0.040  -0.787  0.00  0.00    -0.242 N 
ATOM      6  C   UNL     1      -0.268   1.332  -0.999  0.00  0.00    +0.233 A 
ATOM      7  N   UNL     1       0.916   1.755  -1.330  0.00  0.00    -0.137 NA
ATOM      8  N   UNL     1       1.749   0.775  -1.349  0.00  0.00    -0.122 NA
ATOM      9  C   UNL     1       1.135  -0.324  -1.030  0.00  0.00    +0.203 A 
ATOM     10  S   UNL     1       1.270  -2.075  -0.765  0.00  0.00    -0.044 S 
ENDROOT
BRANCH   1  16
ATOM     11  C   UNL     1       0.942  -4.857  -0.758  0.00  0.00    +0.009 A 
ATOM     12  C   UNL     1       1.625  -6.049  -0.866  0.00  0.00    +0.016 A 
ATOM     13  C   UNL     1       1.072  -7.216  -0.366  0.00  0.00    +0.018 A 
ATOM     14  C   UNL     1      -0.168  -7.195   0.252  0.00  0.00    +0.016 A 
ATOM     15  C   UNL     1      -0.861  -6.010   0.373  0.00  0.00    +0.009 A 
ATOM     16  C   UNL     1      -0.309  -4.826  -0.131  0.00  0.00    -0.024 A 
ATOM     17 BR   UNL     1       2.015  -8.848  -0.527  0.00  0.00    -0.050 Br
ENDBRANCH   1  16
TORSDOF 1
