REMARK  Name = ZINC59806938
REMARK  9 active torsions:
REMARK  status: ('A' for Active; 'I' for Inactive)
REMARK    1  A    between atoms: C_1  and  N_2
REMARK    2  A    between atoms: N_2  and  C_3
REMARK    3  A    between atoms: C_3  and  C_4
REMARK    4  A    between atoms: N_6  and  C_7
REMARK    5  A    between atoms: C_14  and  C_16
REMARK    6  A    between atoms: C_16  and  N_17
REMARK    7  A    between atoms: N_17  and  C_18
REMARK    8  A    between atoms: C_23  and  N_24
REMARK    9  A    between atoms: C_27  and  O_30
REMARK                            x       y       z     vdW  Elec       q    Type
REMARK                         _______ _______ _______ _____ _____    ______ ____
ROOT
ATOM      1  C   UNL     1      -0.084   0.063  -2.516  0.00  0.00    +0.197 C 
ENDROOT
BRANCH   1   4
ATOM      2  C   UNL     1      -0.035   1.403  -0.019  0.00  0.00    +0.132 C 
ATOM      3  N   UNL     1      -0.029  -0.062  -0.046  0.00  0.00    -0.294 N 
ATOM      4  C   UNL     1      -0.052  -0.715  -1.226  0.00  0.00    +0.233 C 
ATOM      5  O   UNL     1      -0.046  -1.927  -1.248  0.00  0.00    -0.274 OA
BRANCH   3   6
ATOM      6  C   UNL     1       0.003  -0.818   1.208  0.00  0.00    +0.203 C 
BRANCH   6   7
ATOM      7  C   UNL     1      -1.407  -1.084   1.670  0.00  0.00    +0.235 C 
ATOM      8  O   UNL     1      -2.345  -0.682   1.016  0.00  0.00    -0.274 OA
ATOM      9  N   UNL     1      -1.624  -1.769   2.811  0.00  0.00    -0.283 N 
ATOM     10  H   UNL     1      -0.876  -2.146   3.300  0.00  0.00    +0.155 HD
BRANCH   9  11
ATOM     11  C   UNL     1      -2.929  -1.935   3.289  0.00  0.00    +0.052 A 
ATOM     12  C   UNL     1      -3.983  -2.086   2.397  0.00  0.00    +0.025 A 
ATOM     13  C   UNL     1      -5.269  -2.250   2.872  0.00  0.00    +0.002 A 
ATOM     14  C   UNL     1      -5.509  -2.265   4.234  0.00  0.00    +0.002 A 
ATOM     15  C   UNL     1      -4.463  -2.116   5.125  0.00  0.00    +0.022 A 
ATOM     16  C   UNL     1      -3.172  -1.956   4.657  0.00  0.00    +0.062 A 
ATOM     17 CL   UNL     1      -1.857  -1.776   5.776  0.00  0.00    -0.082 Cl
ENDBRANCH   9  11
ENDBRANCH   6   7
ENDBRANCH   3   6
ENDBRANCH   1   4
BRANCH   1  18
ATOM     18  N   UNL     1      -0.105  -0.869  -3.647  0.00  0.00    -0.334 N 
ATOM     19  H   UNL     1      -0.097  -1.825  -3.487  0.00  0.00    +0.147 HD
BRANCH  18  20
ATOM     20  C   UNL     1      -0.137  -0.379  -4.955  0.00  0.00    +0.047 A 
ATOM     21  C   UNL     1      -0.042   0.987  -5.189  0.00  0.00    +0.025 A 
ATOM     22  C   UNL     1      -0.073   1.468  -6.483  0.00  0.00    +0.002 A 
ATOM     23  C   UNL     1      -0.199   0.591  -7.545  0.00  0.00    +0.002 A 
ATOM     24  C   UNL     1      -0.293  -0.769  -7.316  0.00  0.00    +0.023 A 
ATOM     25  C   UNL     1      -0.257  -1.257  -6.024  0.00  0.00    +0.035 A 
BRANCH  25  26
ATOM     26  N   UNL     1      -0.346  -2.633  -5.793  0.00  0.00    -0.392 NA
ATOM     27  C   UNL     1      -1.666  -3.114  -6.217  0.00  0.00    +0.087 C 
ATOM     28  C   UNL     1      -1.799  -4.603  -5.892  0.00  0.00    +0.048 C 
ATOM     29  C   UNL     1      -0.709  -5.382  -6.633  0.00  0.00    +0.117 C 
ATOM     30  C   UNL     1       0.661  -4.822  -6.239  0.00  0.00    +0.048 C 
ATOM     31  C   UNL     1       0.703  -3.324  -6.551  0.00  0.00    +0.087 C 
ATOM     32  H   UNL     1      -0.224  -2.816  -4.808  0.00  0.00    +0.126 HD
BRANCH  29  33
ATOM     33  O   UNL     1      -0.781  -6.763  -6.276  0.00  0.00    -0.392 OA
ATOM     34  H   UNL     1      -0.117  -7.317  -6.710  0.00  0.00    +0.210 HD
ENDBRANCH  29  33
ENDBRANCH  25  26
ENDBRANCH  18  20
ENDBRANCH   1  18
TORSDOF 8
