REMARK  Name = ZINC42625557
REMARK  9 active torsions:
REMARK  status: ('A' for Active; 'I' for Inactive)
REMARK    1  A    between atoms: C_1  and  C_2
REMARK    2  A    between atoms: C_5  and  N_9
REMARK    3  A    between atoms: C_6  and  C_8
REMARK    4  A    between atoms: C_13  and  C_15
REMARK    5  A    between atoms: C_15  and  C_17
REMARK    6  A    between atoms: C_15  and  N_18
REMARK    7  A    between atoms: N_18  and  C_19
REMARK    8  A    between atoms: C_19  and  C_20
REMARK    9  A    between atoms: C_20  and  N_26
REMARK                            x       y       z     vdW  Elec       q    Type
REMARK                         _______ _______ _______ _____ _____    ______ ____
ROOT
ATOM      1  C   UNL     1      -0.322  -8.304  -2.399  0.00  0.00    +0.013 C 
ATOM      2  C   UNL     1       0.938  -8.862  -1.732  0.00  0.00    -0.004 C 
ENDROOT
BRANCH   1   7
ATOM      3  N   UNL     1      -0.003  -4.069  -0.146  0.00  0.00    -0.269 N 
ATOM      4  C   UNL     1      -0.095  -4.761  -1.299  0.00  0.00    +0.310 C 
ATOM      5  O   UNL     1      -0.120  -4.171  -2.361  0.00  0.00    -0.252 OA
ATOM      6  N   UNL     1      -0.158  -6.107  -1.274  0.00  0.00    -0.241 N 
ATOM      7  C   UNL     1      -0.250  -6.799  -2.427  0.00  0.00    +0.206 C 
ATOM      8  O   UNL     1      -0.276  -6.210  -3.486  0.00  0.00    -0.277 OA
ATOM      9  H   UNL     1       0.071  -4.541   0.698  0.00  0.00    +0.156 HD
ATOM     10  H   UNL     1      -0.138  -6.578  -0.426  0.00  0.00    +0.159 HD
BRANCH   3  15
ATOM     11  C   UNL     1      -0.048   1.603  -0.231  0.00  0.00    +0.044 C 
ATOM     12  C   UNL     1      -0.036   0.097  -0.209  0.00  0.00    -0.050 A 
ATOM     13  C   UNL     1       0.559  -0.604  -1.242  0.00  0.00    +0.005 A 
ATOM     14  C   UNL     1       0.572  -1.985  -1.224  0.00  0.00    +0.024 A 
ATOM     15  C   UNL     1      -0.013  -2.670  -0.167  0.00  0.00    +0.038 A 
ATOM     16  C   UNL     1      -0.610  -1.963   0.869  0.00  0.00    -0.029 A 
ATOM     17  C   UNL     1      -0.615  -0.582   0.847  0.00  0.00    +0.008 A 
ATOM     18  C   UNL     1      -1.247  -2.702   2.018  0.00  0.00    +0.045 C 
ENDBRANCH   3  15
ENDBRANCH   1   7
BRANCH   1  19
ATOM     19  N   UNL     1      -0.416  -8.815  -3.773  0.00  0.00    +0.388 N 
ATOM     20  H   UNL     1      -1.200  -8.384  -4.239  0.00  0.00    -0.085 HD
ATOM     21  H   UNL     1       0.433  -8.598  -4.272  0.00  0.00    -0.085 HD
BRANCH  19  22
ATOM     22  C   UNL     1      -0.606 -10.272  -3.741  0.00  0.00    -0.059 C 
BRANCH  22  23
ATOM     23  C   UNL     1      -0.604 -10.817  -5.170  0.00  0.00    +0.007 C 
ATOM     24  C   UNL     1       0.748 -10.527  -5.825  0.00  0.00    +0.020 C 
ATOM     25  C   UNL     1       1.860 -11.202  -5.020  0.00  0.00    +0.002 C 
ATOM     26  C   UNL     1       1.623 -12.713  -4.990  0.00  0.00    +0.000 C 
ATOM     27  C   UNL     1       0.271 -13.003  -4.335  0.00  0.00    +0.002 C 
ATOM     28  C   UNL     1      -0.842 -12.328  -5.140  0.00  0.00    +0.020 C 
BRANCH  23  29
ATOM     29  N   UNL     1      -1.672 -10.169  -5.944  0.00  0.00    -0.294 NA
ATOM     30  C   UNL     1      -2.964 -10.278  -5.251  0.00  0.00    +0.113 C 
ATOM     31  C   UNL     1      -4.034  -9.540  -6.060  0.00  0.00    +0.175 C 
ATOM     32  O   UNL     1      -4.082 -10.081  -7.383  0.00  0.00    -0.377 OA
ATOM     33  C   UNL     1      -2.840  -9.990  -8.087  0.00  0.00    +0.175 C 
ATOM     34  C   UNL     1      -1.758 -10.733  -7.299  0.00  0.00    +0.113 C 
ENDBRANCH  23  29
ENDBRANCH  22  23
ENDBRANCH  19  22
ENDBRANCH   1  19
TORSDOF 6
