REMARK  Name = ZINC08739822
REMARK  5 active torsions:
REMARK  status: ('A' for Active; 'I' for Inactive)
REMARK    1  A    between atoms: C_9  and  C_11
REMARK    2  A    between atoms: C_12  and  O_29
REMARK    3  A    between atoms: C_14  and  S_28
REMARK    4  A    between atoms: N_15  and  C_18
REMARK    5  A    between atoms: C_22  and  C_24
REMARK                            x       y       z     vdW  Elec       q    Type
REMARK                         _______ _______ _______ _____ _____    ______ ____
ROOT
ATOM      1  C   UNL     1       3.663  -0.898   0.062  0.00  0.00    +0.069 A 
ATOM      2  C   UNL     1       4.818  -0.142  -0.052  0.00  0.00    +0.222 A 
ATOM      3  N   UNL     1       4.736   1.188  -0.142  0.00  0.00    -0.188 NA
ATOM      4  C   UNL     1       3.571   1.802  -0.131  0.00  0.00    +0.177 A 
ATOM      5  N   UNL     1       2.404   1.105  -0.015  0.00  0.00    -0.256 N 
ATOM      6  C   UNL     1       2.427  -0.241   0.080  0.00  0.00    +0.265 A 
ATOM      7  O   UNL     1       1.388  -0.874   0.179  0.00  0.00    -0.267 OA
ENDROOT
BRANCH   1  16
ATOM      8  C   UNL     1       2.384  -3.553   4.055  0.00  0.00    +0.000 A 
ATOM      9  C   UNL     1       3.212  -2.458   3.894  0.00  0.00    +0.000 A 
ATOM     10  C   UNL     1       3.639  -2.098   2.632  0.00  0.00    +0.002 A 
ATOM     11  C   UNL     1       3.236  -2.829   1.520  0.00  0.00    -0.054 A 
ATOM     12  C   UNL     1       2.413  -3.920   1.683  0.00  0.00    -0.047 A 
ATOM     13  C   UNL     1       1.987  -4.281   2.952  0.00  0.00    +0.004 A 
ATOM     14  C   UNL     1       1.950  -4.742   0.507  0.00  0.00    +0.016 C 
ATOM     15  C   UNL     1       2.832  -4.456  -0.709  0.00  0.00    -0.077 C 
ATOM     16  C   UNL     1       3.735  -2.399   0.165  0.00  0.00    +0.001 C 
ATOM     17  N   UNL     1       2.913  -2.995  -0.897  0.00  0.00    +0.387 N 
ATOM     18  H   UNL     1       1.968  -2.595  -0.862  0.00  0.00    -0.085 HD
ATOM     19  H   UNL     1       3.337  -2.792  -1.810  0.00  0.00    -0.085 HD
ENDBRANCH   1  16
BRANCH   5  20
ATOM     20  C   UNL     1       1.180   1.787   0.000  0.00  0.00    +0.052 A 
ATOM     21  C   UNL     1       0.636   2.214   1.205  0.00  0.00    +0.026 A 
ATOM     22  C   UNL     1      -0.573   2.881   1.217  0.00  0.00    +0.003 A 
ATOM     23  C   UNL     1      -1.238   3.132   0.031  0.00  0.00    +0.012 A 
ATOM     24  C   UNL     1      -0.699   2.709  -1.170  0.00  0.00    +0.057 A 
ATOM     25  C   UNL     1       0.508   2.037  -1.188  0.00  0.00    +0.038 A 
BRANCH  24  26
ATOM     26  C   UNL     1      -1.429   2.981  -2.460  0.00  0.00    +0.417 C 
ATOM     27  F   UNL     1      -2.292   1.917  -2.740  0.00  0.00    -0.166 F 
ATOM     28  F   UNL     1      -2.168   4.162  -2.337  0.00  0.00    -0.166 F 
ATOM     29  F   UNL     1      -0.503   3.117  -3.500  0.00  0.00    -0.166 F 
ENDBRANCH  24  26
ENDBRANCH   5  20
BRANCH   4  30
ATOM     30  S   UNL     1       3.519   3.559  -0.260  0.00  0.00    -0.105 S 
ATOM     31  H   UNL     1       4.898   3.838  -0.356  0.00  0.00    +0.110 HD
ENDBRANCH   4  30
BRANCH   2  32
ATOM     32  O   UNL     1       6.027  -0.751  -0.072  0.00  0.00    -0.492 OA
ATOM     33  H   UNL     1       6.773  -0.141  -0.154  0.00  0.00    +0.294 HD
ENDBRANCH   2  32
TORSDOF 5
