REMARK  Name = ZINC09639899
REMARK  10 active torsions:
REMARK  status: ('A' for Active; 'I' for Inactive)
REMARK    1  A    between atoms: C_1  and  C_2
REMARK    2  A    between atoms: C_2  and  O_3
REMARK    3  A    between atoms: O_3  and  C_4
REMARK    4  A    between atoms: C_4  and  C_6
REMARK    5  A    between atoms: C_10  and  N_11
REMARK    6  A    between atoms: C_12  and  C_14
REMARK    7  A    between atoms: C_23  and  C_28
REMARK    8  A    between atoms: C_23  and  C_29
REMARK    9  A    between atoms: C_24  and  C_26
REMARK   10  A    between atoms: C_24  and  C_27
REMARK                            x       y       z     vdW  Elec       q    Type
REMARK                         _______ _______ _______ _____ _____    ______ ____
ROOT
ATOM      1  C   UNL     1      -4.112   1.041  -0.440  0.00  0.00    +0.091 A 
ATOM      2  C   UNL     1      -2.973   1.642   0.225  0.00  0.00    -0.024 A 
ATOM      3  C   UNL     1      -2.664   2.897  -0.171  0.00  0.00    -0.016 A 
ATOM      4  S   UNL     1      -3.869   3.288  -1.407  0.00  0.00    -0.079 S 
ATOM      5  C   UNL     1      -4.766   1.805  -1.402  0.00  0.00    +0.086 A 
ATOM      6  C   UNL     1      -1.543   3.745   0.338  0.00  0.00    -0.041 C 
ATOM      7  C   UNL     1      -0.729   1.579   1.268  0.00  0.00    -0.069 C 
ATOM      8  C   UNL     1      -2.139   0.981   1.314  0.00  0.00    +0.024 C 
ATOM      9  C   UNL     1      -0.013   1.086   0.008  0.00  0.00    -0.010 C 
ATOM     10  C   UNL     1       0.047   1.048   2.488  0.00  0.00    -0.010 C 
ATOM     11  C   UNL     1      -2.153   4.999   0.996  0.00  0.00    -0.005 C 
ATOM     12  C   UNL     1      -0.669   4.207  -0.834  0.00  0.00    -0.005 C 
ATOM     13  N   UNL     1      -0.720   3.061   1.374  0.00  0.00    +0.389 N 
ATOM     14  H   UNL     1      -1.082   3.321   2.299  0.00  0.00    -0.084 HD
ATOM     15  H   UNL     1       0.250   3.385   1.283  0.00  0.00    -0.084 HD
ENDROOT
BRANCH   5  16
ATOM     16  N   UNL     1      -5.866   1.461  -2.169  0.00  0.00    -0.275 N 
ATOM     17  C   UNL     1      -6.367   2.339  -3.060  0.00  0.00    +0.249 C 
ATOM     18  O   UNL     1      -5.853   3.433  -3.190  0.00  0.00    -0.270 OA
ATOM     19  H   UNL     1      -6.276   0.588  -2.065  0.00  0.00    +0.156 HD
BRANCH  17  20
ATOM     20  C   UNL     1      -7.540   1.973  -3.877  0.00  0.00    +0.038 A 
ATOM     21  C   UNL     1      -8.136   0.712  -3.739  0.00  0.00    +0.015 A 
ATOM     22  C   UNL     1      -9.218   0.355  -4.476  0.00  0.00    +0.029 A 
ATOM     23  C   UNL     1      -9.777   1.245  -5.423  0.00  0.00    +0.078 A 
ATOM     24  C   UNL     1      -9.156   2.511  -5.550  0.00  0.00    +0.040 A 
ATOM     25  C   UNL     1      -8.067   2.877  -4.804  0.00  0.00    +0.030 A 
ATOM     26  S   UNL     1     -10.143   3.286  -6.806  0.00  0.00    -0.075 S 
ATOM     27  C   UNL     1     -11.248   1.973  -7.071  0.00  0.00    +0.157 A 
ATOM     28  N   UNL     1     -10.835   1.059  -6.236  0.00  0.00    -0.247 NA
ENDBRANCH  17  20
ENDBRANCH   5  16
BRANCH   1  29
ATOM     29  C   UNL     1      -4.567  -0.312  -0.117  0.00  0.00    +0.342 C 
ATOM     30  O   UNL     1      -5.395  -0.483   0.757  0.00  0.00    -0.245 OA
BRANCH  29  31
ATOM     31  O   UNL     1      -4.069  -1.370  -0.790  0.00  0.00    -0.461 OA
BRANCH  31  33
ATOM     32  C   UNL     1      -3.890  -3.748  -1.283  0.00  0.00    +0.048 C 
ATOM     33  C   UNL     1      -4.566  -2.682  -0.417  0.00  0.00    +0.229 C 
ENDBRANCH  31  33
ENDBRANCH  29  31
ENDBRANCH   1  29
TORSDOF 5
