REMARK  Name = ZINC33500721
REMARK  7 active torsions:
REMARK  status: ('A' for Active; 'I' for Inactive)
REMARK    1  A    between atoms: C_1  and  C_2
REMARK    2  A    between atoms: C_3  and  C_13
REMARK    3  A    between atoms: N_4  and  C_8
REMARK    4  A    between atoms: C_8  and  C_9
REMARK    5  A    between atoms: C_9  and  C_10
REMARK    6  A    between atoms: C_10  and  C_11
REMARK    7  A    between atoms: C_11  and  N_12
REMARK                            x       y       z     vdW  Elec       q    Type
REMARK                         _______ _______ _______ _____ _____    ______ ____
ROOT
ATOM      1  C   UNL     1       4.155  -2.806  -3.100  0.00  0.00    +0.054 C 
ATOM      2  C   UNL     1       4.925  -1.725  -3.814  0.00  0.00    +0.016 A 
ATOM      3  C   UNL     1       4.843  -0.385  -3.669  0.00  0.00    +0.062 A 
ATOM      4  N   UNL     1       5.662   0.397  -4.438  0.00  0.00    -0.302 N 
ATOM      5  C   UNL     1       6.510  -0.194  -5.309  0.00  0.00    +0.291 A 
ATOM      6  O   UNL     1       7.307   0.327  -6.069  0.00  0.00    -0.259 OA
ATOM      7  S   UNL     1       6.180  -1.880  -5.072  0.00  0.00    -0.031 S 
ENDROOT
BRANCH   3   8
ATOM      8  C   UNL     1       3.900   0.221  -2.704  0.00  0.00    +0.001 A 
ATOM      9  C   UNL     1       3.974  -0.114  -1.351  0.00  0.00    +0.013 A 
ATOM     10  C   UNL     1       3.095   0.451  -0.449  0.00  0.00    +0.048 A 
ATOM     11  C   UNL     1       2.137   1.352  -0.884  0.00  0.00    +0.142 A 
ATOM     12  C   UNL     1       2.057   1.690  -2.235  0.00  0.00    +0.076 A 
ATOM     13  C   UNL     1       2.934   1.127  -3.144  0.00  0.00    +0.037 A 
ATOM     14  N   UNL     1       1.079   2.602  -2.657  0.00  0.00    -0.280 N 
ATOM     15  C   UNL     1       0.456   3.367  -1.734  0.00  0.00    +0.255 C 
ATOM     16  O   UNL     1      -0.414   4.142  -2.072  0.00  0.00    -0.272 OA
ATOM     17  C   UNL     1       0.845   3.253  -0.282  0.00  0.00    +0.325 C 
ATOM     18  O   UNL     1       1.268   1.916  -0.002  0.00  0.00    -0.481 OA
ATOM     19  H   UNL     1       0.830   2.688  -3.725  0.00  0.00    +0.155 HD
ENDBRANCH   3   8
BRANCH   4  20
ATOM     20  C   UNL     1       5.620   1.857  -4.319  0.00  0.00    +0.126 C 
BRANCH  20  21
ATOM     21  C   UNL     1       6.523   2.301  -3.167  0.00  0.00    +0.020 C 
BRANCH  21  22
ATOM     22  C   UNL     1       6.479   3.825  -3.042  0.00  0.00    -0.018 C 
BRANCH  22  23
ATOM     23  C   UNL     1       7.383   4.269  -1.891  0.00  0.00    -0.086 C 
BRANCH  23  24
ATOM     24  N   UNL     1       7.341   5.732  -1.771  0.00  0.00    +0.378 N 
ATOM     25  H   UNL     1       7.990   6.052  -0.943  0.00  0.00    -0.090 HD
ATOM     26  H   UNL     1       6.308   6.054  -1.572  0.00  0.00    -0.090 HD
ATOM     27  H   UNL     1       7.692   6.187  -2.709  0.00  0.00    -0.090 HD
ENDBRANCH  23  24
ENDBRANCH  22  23
ENDBRANCH  21  22
ENDBRANCH  20  21
ENDBRANCH   4  20
TORSDOF 6
