REMARK  Name = ZINC30721862
REMARK  11 active torsions:
REMARK  status: ('A' for Active; 'I' for Inactive)
REMARK    1  A    between atoms: C_1  and  C_2
REMARK    2  A    between atoms: C_2  and  C_3
REMARK    3  A    between atoms: C_2  and  C_4
REMARK    4  A    between atoms: C_2  and  C_5
REMARK    5  A    between atoms: C_12  and  C_16
REMARK    6  A    between atoms: N_18  and  N_19
REMARK    7  A    between atoms: C_20  and  C_21
REMARK    8  A    between atoms: C_25  and  O_27
REMARK    9  A    between atoms: O_27  and  C_28
REMARK   10  A    between atoms: C_28  and  C_30
REMARK   11  A    between atoms: C_33  and  N_36
REMARK                            x       y       z     vdW  Elec       q    Type
REMARK                         _______ _______ _______ _____ _____    ______ ____
ROOT
ATOM      1  N   UNL     1      -3.617   1.576   0.418  0.00  0.00    -0.188 NA
ATOM      2  C   UNL     1      -2.471   0.990   0.581  0.00  0.00    +0.138 C 
ENDROOT
BRANCH   2   3
ATOM      3  C   UNL     1      -1.268   1.792   0.874  0.00  0.00    -0.002 A 
ATOM      4  C   UNL     1      -1.395   3.085   1.388  0.00  0.00    +0.010 A 
ATOM      5  C   UNL     1      -0.268   3.834   1.654  0.00  0.00    +0.004 A 
ATOM      6  C   UNL     1       0.989   3.308   1.421  0.00  0.00    +0.046 A 
ATOM      7  C   UNL     1       1.126   2.021   0.917  0.00  0.00    +0.133 A 
ATOM      8  C   UNL     1       0.002   1.260   0.645  0.00  0.00    +0.055 A 
BRANCH   7   9
ATOM      9  O   UNL     1       2.364   1.509   0.691  0.00  0.00    -0.422 OA
BRANCH   9  10
ATOM     10  C   UNL     1       2.790   1.481  -0.587  0.00  0.00    +0.344 C 
ATOM     11  O   UNL     1       2.096   1.947  -1.469  0.00  0.00    -0.245 OA
BRANCH  10  12
ATOM     12  C   UNL     1       4.101   0.885  -0.916  0.00  0.00    +0.060 A 
ATOM     13  C   UNL     1       4.904   0.354   0.095  0.00  0.00    +0.017 A 
ATOM     14  C   UNL     1       6.124  -0.206  -0.219  0.00  0.00    +0.033 A 
ATOM     15  C   UNL     1       6.559  -0.232  -1.533  0.00  0.00    +0.126 A 
ATOM     16  C   UNL     1       5.771   0.297  -2.540  0.00  0.00    +0.033 A 
ATOM     17  C   UNL     1       4.545   0.855  -2.240  0.00  0.00    +0.017 A 
BRANCH  15  18
ATOM     18  N   UNL     1       7.872  -0.830  -1.862  0.00  0.00    +0.056 N 
ATOM     19  O   UNL     1       8.257  -0.855  -3.018  0.00  0.00    -0.126 OA
ATOM     20  O   UNL     1       8.568  -1.296  -0.978  0.00  0.00    -0.126 OA
ENDBRANCH  15  18
ENDBRANCH  10  12
ENDBRANCH   9  10
ENDBRANCH   7   9
ENDBRANCH   2   3
BRANCH   1  23
ATOM     21  C   UNL     1      -4.859   3.590   0.153  0.00  0.00    +0.276 C 
ATOM     22  O   UNL     1      -5.882   2.968   0.351  0.00  0.00    -0.270 OA
ATOM     23  N   UNL     1      -3.671   2.954   0.171  0.00  0.00    -0.204 N 
ATOM     24  H   UNL     1      -2.743   3.517  -0.008  0.00  0.00    +0.177 HD
BRANCH  21  32
ATOM     25  C   UNL     1      -7.994   8.674  -0.599  0.00  0.00    -0.038 A 
ATOM     26  C   UNL     1      -7.126   9.289  -1.482  0.00  0.00    +0.008 A 
ATOM     27  C   UNL     1      -5.963   8.649  -1.870  0.00  0.00    +0.050 A 
ATOM     28  C   UNL     1      -5.665   7.389  -1.373  0.00  0.00    +0.162 A 
ATOM     29  C   UNL     1      -6.538   6.771  -0.487  0.00  0.00    +0.163 A 
ATOM     30  C   UNL     1      -7.702   7.419  -0.101  0.00  0.00    +0.053 A 
ATOM     31  O   UNL     1      -6.268   5.531   0.006  0.00  0.00    -0.472 OA
ATOM     32  C   UNL     1      -4.917   5.072  -0.112  0.00  0.00    +0.297 C 
ATOM     33  C   UNL     1      -4.434   5.361  -1.540  0.00  0.00    +0.283 C 
ATOM     34  O   UNL     1      -4.515   6.773  -1.763  0.00  0.00    -0.484 OA
BRANCH  25  36
ATOM     35  C   UNL     1      -9.341  10.738  -0.868  0.00  0.00    +0.015 C 
ATOM     36  C   UNL     1      -9.260   9.375  -0.178  0.00  0.00    -0.013 C 
ATOM     37  C   UNL     1     -10.469   8.528  -0.579  0.00  0.00    +0.015 C 
ATOM     38  C   UNL     1      -9.254   9.570   1.339  0.00  0.00    +0.015 C 
ENDBRANCH  25  36
ENDBRANCH  21  32
ENDBRANCH   1  23
TORSDOF 8
