REMARK  Name = ZINC08022057
REMARK  10 active torsions:
REMARK  status: ('A' for Active; 'I' for Inactive)
REMARK    1  A    between atoms: C_1  and  C_2
REMARK    2  A    between atoms: C_2  and  C_3
REMARK    3  A    between atoms: C_2  and  N_4
REMARK    4  A    between atoms: N_7  and  C_8
REMARK    5  A    between atoms: C_8  and  C_9
REMARK    6  A    between atoms: C_12  and  C_15
REMARK    7  A    between atoms: N_17  and  C_18
REMARK    8  A    between atoms: C_18  and  C_19
REMARK    9  A    between atoms: C_19  and  C_21
REMARK   10  A    between atoms: C_19  and  N_62
REMARK                            x       y       z     vdW  Elec       q    Type
REMARK                         _______ _______ _______ _____ _____    ______ ____
ROOT
ATOM      1  C   UNL     1       0.966   3.882  -0.581  0.00  0.00    +0.244 C 
ATOM      2  O   UNL     1      -0.037   4.564  -0.500  0.00  0.00    -0.270 OA
ATOM      3  N   UNL     1       2.179   4.444  -0.415  0.00  0.00    -0.312 N 
ATOM      4  H   UNL     1       2.979   3.900  -0.480  0.00  0.00    +0.149 HD
ENDROOT
BRANCH   1   8
ATOM      5  C   UNL     1       0.644  -0.276  -1.388  0.00  0.00    -0.030 A 
ATOM      6  C   UNL     1      -0.499   0.498  -1.296  0.00  0.00    +0.006 A 
ATOM      7  C   UNL     1      -0.402   1.849  -1.034  0.00  0.00    +0.013 A 
ATOM      8  C   UNL     1       0.854   2.435  -0.862  0.00  0.00    +0.037 A 
ATOM      9  C   UNL     1       2.003   1.648  -0.956  0.00  0.00    +0.013 A 
ATOM     10  C   UNL     1       1.891   0.298  -1.219  0.00  0.00    +0.006 A 
BRANCH   5  11
ATOM     11  C   UNL     1       0.530  -1.751  -1.674  0.00  0.00    +0.141 C 
BRANCH  11  15
ATOM     12  N   UNL     1       0.495  -3.425  -4.948  0.00  0.00    -0.297 N 
ATOM     13  C   UNL     1       0.469  -3.223  -3.616  0.00  0.00    +0.300 C 
ATOM     14  O   UNL     1       0.366  -4.169  -2.859  0.00  0.00    -0.253 OA
ATOM     15  N   UNL     1       0.558  -1.972  -3.122  0.00  0.00    -0.295 N 
ATOM     16  H   UNL     1       0.578  -2.671  -5.552  0.00  0.00    +0.150 HD
ATOM     17  H   UNL     1       0.641  -1.217  -3.726  0.00  0.00    +0.151 HD
BRANCH  12  19
ATOM     18  C   UNL     1      -1.073  -5.185  -5.600  0.00  0.00    +0.027 C 
ATOM     19  C   UNL     1       0.399  -4.785  -5.484  0.00  0.00    +0.068 C 
ATOM     20  C   UNL     1       1.051  -4.836  -6.867  0.00  0.00    +0.027 C 
ENDBRANCH  12  19
ENDBRANCH  11  15
ENDBRANCH   5  11
ENDBRANCH   1   8
BRANCH   3  21
ATOM     21  C   UNL     1       2.290   5.878  -0.137  0.00  0.00    +0.097 C 
BRANCH  21  22
ATOM     22  C   UNL     1       3.755   6.235   0.125  0.00  0.00    +0.016 C 
BRANCH  22  28
ATOM     23  C   UNL     1       6.002   6.042  -0.755  0.00  0.00    -0.078 C 
ATOM     24  C   UNL     1       6.837   5.435  -1.884  0.00  0.00    -0.019 C 
ATOM     25  C   UNL     1       6.416   6.059  -3.217  0.00  0.00    -0.004 C 
ATOM     26  C   UNL     1       4.919   5.822  -3.433  0.00  0.00    -0.019 C 
ATOM     27  C   UNL     1       4.139   6.418  -2.259  0.00  0.00    -0.078 C 
ATOM     28  N   UNL     1       4.573   5.758  -1.009  0.00  0.00    +0.387 N 
ATOM     29  H   UNL     1       4.448   4.744  -1.107  0.00  0.00    -0.081 HD
ENDBRANCH  22  28
BRANCH  22  30
ATOM     30  C   UNL     1       3.887   7.728   0.283  0.00  0.00    +0.093 A 
ATOM     31  C   UNL     1       4.133   8.378   1.435  0.00  0.00    +0.043 A 
ATOM     32  C   UNL     1       4.176   9.757   1.125  0.00  0.00    +0.041 A 
ATOM     33  C   UNL     1       3.955   9.867  -0.197  0.00  0.00    +0.195 A 
ATOM     34  O   UNL     1       3.786   8.634  -0.703  0.00  0.00    -0.469 OA
ENDBRANCH  22  30
ENDBRANCH  21  22
ENDBRANCH   3  21
TORSDOF 8
