REMARK  Name = ZINC36788513
REMARK  11 active torsions:
REMARK  status: ('A' for Active; 'I' for Inactive)
REMARK    1  A    between atoms: C_1  and  C_2
REMARK    2  A    between atoms: C_2  and  C_3
REMARK    3  A    between atoms: C_3  and  C_4
REMARK    4  A    between atoms: C_3  and  N_6
REMARK    5  A    between atoms: C_4  and  C_5
REMARK    6  A    between atoms: N_6  and  C_7
REMARK    7  A    between atoms: N_6  and  C_8
REMARK    8  A    between atoms: C_8  and  C_10
REMARK    9  A    between atoms: C_8  and  C_11
REMARK   10  A    between atoms: N_13  and  C_14
REMARK   11  A    between atoms: C_17  and  N_21
REMARK                            x       y       z     vdW  Elec       q    Type
REMARK                         _______ _______ _______ _____ _____    ______ ____
ROOT
ATOM      1  C   UNL     1      -1.076   1.831  -3.906  0.00  0.00    +0.203 C 
ATOM      2  O   UNL     1      -1.266   1.020  -4.788  0.00  0.00    -0.277 OA
ATOM      3  N   UNL     1      -1.704   3.023  -3.940  0.00  0.00    -0.284 N 
ATOM      4  H   UNL     1      -1.564   3.666  -3.227  0.00  0.00    +0.155 HD
ENDROOT
BRANCH   3   5
ATOM      5  C   UNL     1      -2.560   3.335  -5.006  0.00  0.00    +0.070 A 
ATOM      6  C   UNL     1      -3.439   2.376  -5.495  0.00  0.00    +0.065 A 
ATOM      7  C   UNL     1      -4.282   2.682  -6.545  0.00  0.00    +0.044 A 
ATOM      8  C   UNL     1      -4.252   3.950  -7.113  0.00  0.00    +0.027 A 
ATOM      9  C   UNL     1      -3.374   4.908  -6.625  0.00  0.00    +0.044 A 
ATOM     10  C   UNL     1      -2.534   4.604  -5.571  0.00  0.00    +0.065 A 
ATOM     11 CL   UNL     1      -1.442   5.805  -4.956  0.00  0.00    -0.082 Cl
ATOM     12 CL   UNL     1      -3.476   0.791  -4.786  0.00  0.00    -0.082 Cl
BRANCH   8  13
ATOM     13  N   UNL     1      -5.106   4.260  -8.177  0.00  0.00    -0.358 N 
ATOM     14  H   UNL     1      -5.719   3.590  -8.518  0.00  0.00    +0.142 HD
ATOM     15  H   UNL     1      -5.085   5.145  -8.573  0.00  0.00    +0.142 HD
ENDBRANCH   8  13
ENDBRANCH   3   5
BRANCH   1  16
ATOM     16  C   UNL     1      -0.138   1.506  -2.772  0.00  0.00    +0.016 C 
ATOM     17  C   UNL     1      -0.929   1.417  -1.466  0.00  0.00    -0.004 C 
BRANCH  16  18
ATOM     18  N   UNL     1       0.520   0.219  -3.035  0.00  0.00    +0.387 N 
ATOM     19  C   UNL     1      -0.474  -0.749  -3.517  0.00  0.00    -0.095 C 
ATOM     20  H   UNL     1       0.939  -0.124  -2.184  0.00  0.00    -0.081 HD
BRANCH  18  21
ATOM     21  C   UNL     1       1.562   0.401  -4.055  0.00  0.00    -0.068 C 
BRANCH  21  23
ATOM     22  C   UNL     1       0.313   0.048  -6.191  0.00  0.00    +0.002 C 
ATOM     23  C   UNL     1       0.960   1.093  -5.280  0.00  0.00    -0.019 C 
ENDBRANCH  21  23
BRANCH  21  24
ATOM     24  C   UNL     1       2.689   1.263  -3.484  0.00  0.00    -0.019 C 
ATOM     25  C   UNL     1       3.395   0.501  -2.360  0.00  0.00    +0.002 C 
ENDBRANCH  21  24
ENDBRANCH  18  21
ENDBRANCH  16  18
ENDBRANCH   1  16
TORSDOF 7
