REMARK  Name = ZINC43289509
REMARK  8 active torsions:
REMARK  status: ('A' for Active; 'I' for Inactive)
REMARK    1  A    between atoms: C_1  and  C_2
REMARK    2  A    between atoms: C_2  and  C_3
REMARK    3  A    between atoms: C_3  and  C_5
REMARK    4  A    between atoms: C_3  and  N_23
REMARK    5  A    between atoms: C_5  and  C_7
REMARK    6  A    between atoms: C_5  and  O_13
REMARK    7  A    between atoms: O_13  and  C_14
REMARK    8  A    between atoms: C_17  and  C_20
REMARK                            x       y       z     vdW  Elec       q    Type
REMARK                         _______ _______ _______ _____ _____    ______ ____
ROOT
ATOM      1  C   UNL     1       0.840  -2.085  -1.218  0.00  0.00    +0.196 C 
ENDROOT
BRANCH   1   2
ATOM      2  C   UNL     1       1.457  -2.759  -2.416  0.00  0.00    +0.029 A 
ATOM      3  C   UNL     1       0.849  -3.287  -3.506  0.00  0.00    +0.030 A 
ATOM      4  C   UNL     1       1.626  -3.862  -4.494  0.00  0.00    +0.025 A 
ATOM      5  C   UNL     1       2.974  -3.880  -4.344  0.00  0.00    +0.060 A 
ATOM      6  S   UNL     1       3.181  -3.060  -2.771  0.00  0.00    -0.097 S 
ATOM      7 BR   UNL     1       0.822  -4.612  -6.033  0.00  0.00    -0.050 Br
ENDBRANCH   1   2
BRANCH   1   8
ATOM      8  C   UNL     1       0.829  -0.570  -1.433  0.00  0.00    -0.029 C 
BRANCH   8   9
ATOM      9  N   UNL     1       0.044  -0.252  -2.633  0.00  0.00    +0.383 N 
ATOM     10  H   UNL     1       0.037   0.748  -2.775  0.00  0.00    -0.089 HD
ATOM     11  H   UNL     1       0.458  -0.702  -3.435  0.00  0.00    -0.089 HD
ATOM     12  H   UNL     1      -0.902  -0.581  -2.513  0.00  0.00    -0.089 HD
ENDBRANCH   8   9
BRANCH   8  14
ATOM     13  C   UNL     1       0.305   1.632  -0.375  0.00  0.00    +0.002 C 
ATOM     14  C   UNL     1       0.202   0.114  -0.216  0.00  0.00    -0.016 C 
ENDBRANCH   8  14
ENDBRANCH   1   8
BRANCH   1  15
ATOM     15  O   UNL     1       1.603  -2.395  -0.050  0.00  0.00    -0.485 OA
BRANCH  15  16
ATOM     16  C   UNL     1       0.922  -2.521   1.117  0.00  0.00    +0.121 A 
ATOM     17  C   UNL     1      -0.462  -2.395   1.128  0.00  0.00    +0.046 A 
ATOM     18  C   UNL     1      -1.157  -2.522   2.310  0.00  0.00    +0.016 A 
ATOM     19  C   UNL     1      -0.469  -2.777   3.499  0.00  0.00    +0.037 A 
ATOM     20  C   UNL     1       0.922  -2.903   3.483  0.00  0.00    +0.016 A 
ATOM     21  C   UNL     1       1.610  -2.780   2.296  0.00  0.00    +0.046 A 
BRANCH  19  22
ATOM     22  C   UNL     1      -1.210  -2.913   4.768  0.00  0.00    +0.242 C 
ATOM     23  O   UNL     1      -2.421  -2.803   4.780  0.00  0.00    -0.270 OA
ATOM     24  N   UNL     1      -0.545  -3.159   5.914  0.00  0.00    -0.325 N 
ATOM     25  H   UNL     1       0.421  -3.247   5.905  0.00  0.00    +0.145 HD
ATOM     26  H   UNL     1      -1.032  -3.248   6.748  0.00  0.00    +0.145 HD
ENDBRANCH  19  22
ENDBRANCH  15  16
ENDBRANCH   1  15
TORSDOF 7
