REMARK  Name = ZINC50036583
REMARK  9 active torsions:
REMARK  status: ('A' for Active; 'I' for Inactive)
REMARK    1  A    between atoms: C_1  and  C_2
REMARK    2  A    between atoms: C_6  and  C_26
REMARK    3  A    between atoms: C_7  and  N_8
REMARK    4  A    between atoms: N_11  and  C_12
REMARK    5  A    between atoms: C_12  and  C_13
REMARK    6  A    between atoms: N_18  and  C_20
REMARK    7  A    between atoms: C_20  and  C_21
REMARK    8  A    between atoms: C_26  and  C_27
REMARK    9  A    between atoms: C_26  and  C_28
REMARK                            x       y       z     vdW  Elec       q    Type
REMARK                         _______ _______ _______ _____ _____    ______ ____
ROOT
ATOM      1  N   UNL     1       0.203   0.079   2.355  0.00  0.00    -0.269 N 
ATOM      2  C   UNL     1      -0.217   1.359   2.386  0.00  0.00    +0.304 C 
ATOM      3  O   UNL     1      -0.759   1.845   1.412  0.00  0.00    -0.253 OA
ATOM      4  N   UNL     1      -0.037   2.101   3.497  0.00  0.00    -0.299 N 
ATOM      5  H   UNL     1       0.567  -0.332   3.155  0.00  0.00    +0.156 HD
ATOM      6  H   UNL     1       0.395   1.713   4.274  0.00  0.00    +0.150 HD
ENDROOT
BRANCH   1  13
ATOM      7  C   UNL     1      -2.382  -0.618   1.393  0.00  0.00    +0.045 C 
ATOM      8  C   UNL     1      -1.126  -1.019   0.663  0.00  0.00    -0.029 A 
ATOM      9  C   UNL     1      -1.209  -1.741  -0.512  0.00  0.00    +0.005 A 
ATOM     10  C   UNL     1      -0.057  -2.109  -1.182  0.00  0.00    +0.001 A 
ATOM     11  C   UNL     1       1.182  -1.756  -0.678  0.00  0.00    +0.006 A 
ATOM     12  C   UNL     1       1.272  -1.034   0.496  0.00  0.00    -0.023 A 
ATOM     13  C   UNL     1       0.116  -0.657   1.168  0.00  0.00    +0.041 A 
BRANCH  12  14
ATOM     14  C   UNL     1       2.622  -0.650   1.044  0.00  0.00    +0.015 C 
ATOM     15  C   UNL     1       3.436  -1.915   1.325  0.00  0.00    +0.012 C 
ATOM     16  C   UNL     1       3.360   0.215   0.021  0.00  0.00    +0.012 C 
ENDBRANCH  12  14
ENDBRANCH   1  13
BRANCH   4  17
ATOM     17  C   UNL     1      -0.494   3.492   3.531  0.00  0.00    +0.107 C 
BRANCH  17  18
ATOM     18  C   UNL     1      -0.171   4.102   4.896  0.00  0.00    -0.011 C 
ATOM     19  C   UNL     1       1.348   4.173   5.078  0.00  0.00    +0.001 C 
ATOM     20  C   UNL     1       1.661   4.855   6.412  0.00  0.00    -0.018 C 
ATOM     21  C   UNL     1       1.010   6.239   6.436  0.00  0.00    -0.078 C 
ATOM     22  N   UNL     1      -0.444   6.103   6.285  0.00  0.00    +0.383 N 
ATOM     23  C   UNL     1      -0.756   5.514   4.977  0.00  0.00    -0.073 C 
ATOM     24  H   UNL     1      -0.802   5.505   7.015  0.00  0.00    -0.081 HD
BRANCH  22  25
ATOM     25  C   UNL     1      -1.072   7.426   6.386  0.00  0.00    -0.036 C 
BRANCH  25  26
ATOM     26  C   UNL     1      -0.866   7.975   7.774  0.00  0.00    -0.027 A 
ATOM     27  C   UNL     1       0.148   8.742   8.247  0.00  0.00    +0.009 A 
ATOM     28  C   UNL     1       0.129   9.134   9.572  0.00  0.00    +0.008 A 
ATOM     29  C   UNL     1      -0.902   8.741  10.360  0.00  0.00    +0.045 A 
ATOM     30  S   UNL     1      -1.896   7.792   9.221  0.00  0.00    -0.103 S 
ENDBRANCH  25  26
ENDBRANCH  22  25
ENDBRANCH  17  18
ENDBRANCH   4  17
TORSDOF 6
