REMARK  Name = ZINC40071518
REMARK  10 active torsions:
REMARK  status: ('A' for Active; 'I' for Inactive)
REMARK    1  A    between atoms: C_1  and  C_2
REMARK    2  A    between atoms: C_4  and  C_33
REMARK    3  A    between atoms: N_5  and  C_7
REMARK    4  A    between atoms: C_7  and  C_8
REMARK    5  A    between atoms: C_8  and  C_9
REMARK    6  A    between atoms: C_9  and  N_10
REMARK    7  A    between atoms: C_11  and  C_13
REMARK    8  A    between atoms: C_18  and  N_19
REMARK    9  A    between atoms: N_19  and  S_20
REMARK   10  A    between atoms: S_20  and  C_23
REMARK                            x       y       z     vdW  Elec       q    Type
REMARK                         _______ _______ _______ _____ _____    ______ ____
ROOT
ATOM      1  C   UNL     1       4.385  -6.561   4.208  0.00  0.00    +0.059 A 
ATOM      2  C   UNL     1       5.356  -5.656   3.772  0.00  0.00    +0.015 A 
ATOM      3  C   UNL     1       6.686  -5.896   4.036  0.00  0.00    +0.001 A 
ATOM      4  C   UNL     1       7.069  -7.032   4.732  0.00  0.00    +0.002 A 
ATOM      5  C   UNL     1       6.122  -7.936   5.168  0.00  0.00    +0.025 A 
ATOM      6  C   UNL     1       4.775  -7.708   4.918  0.00  0.00    +0.060 A 
ENDROOT
BRANCH   1   8
ATOM      7  N   UNL     1       2.589  -5.209   3.248  0.00  0.00    -0.311 N 
ATOM      8  C   UNL     1       2.959  -6.311   3.930  0.00  0.00    +0.246 C 
ATOM      9  O   UNL     1       2.116  -7.098   4.315  0.00  0.00    -0.270 OA
ATOM     10  H   UNL     1       3.261  -4.580   2.940  0.00  0.00    +0.149 HD
BRANCH   7  11
ATOM     11  C   UNL     1       1.172  -4.960   2.971  0.00  0.00    +0.106 C 
BRANCH  11  12
ATOM     12  C   UNL     1       1.027  -3.652   2.189  0.00  0.00    +0.042 C 
BRANCH  12  13
ATOM     13  C   UNL     1      -0.452  -3.392   1.900  0.00  0.00    +0.145 C 
BRANCH  13  18
ATOM     14  C   UNL     1      -1.030   1.486   0.869  0.00  0.00    +0.067 C 
ATOM     15  C   UNL     1      -0.845  -0.003   0.723  0.00  0.00    +0.060 A 
ATOM     16  C   UNL     1      -0.735  -0.701  -0.483  0.00  0.00    +0.047 A 
ATOM     17  C   UNL     1      -0.580  -2.014  -0.192  0.00  0.00    +0.036 A 
ATOM     18  N   UNL     1      -0.591  -2.141   1.151  0.00  0.00    -0.268 N 
ATOM     19  N   UNL     1      -0.754  -0.864   1.704  0.00  0.00    -0.176 NA
ATOM     20  C   UNL     1      -0.423  -3.133  -1.189  0.00  0.00    +0.065 C 
ENDBRANCH  13  18
ENDBRANCH  12  13
ENDBRANCH  11  12
ENDBRANCH   7  11
ENDBRANCH   1   8
BRANCH   6  21
ATOM     21  N   UNL     1       3.819  -8.613   5.362  0.00  0.00    -0.216 N 
ATOM     22  H   UNL     1       3.030  -8.787   4.825  0.00  0.00    +0.174 HD
BRANCH  21  23
ATOM     23  S   UNL     1       4.027  -9.394   6.807  0.00  0.00    +0.072 S 
ATOM     24  O   UNL     1       2.839 -10.138   7.041  0.00  0.00    -0.150 OA
ATOM     25  O   UNL     1       5.310 -10.003   6.758  0.00  0.00    -0.150 OA
BRANCH  23  26
ATOM     26  C   UNL     1       4.104  -8.159   8.061  0.00  0.00    +0.110 A 
ATOM     27  C   UNL     1       5.399  -7.590   8.415  0.00  0.00    +0.031 A 
ATOM     28  C   UNL     1       5.527  -6.640   9.367  0.00  0.00    +0.027 A 
ATOM     29  C   UNL     1       4.340  -6.159  10.070  0.00  0.00    +0.056 A 
ATOM     30  N   UNL     1       4.119  -5.277  11.013  0.00  0.00    -0.268 N 
ATOM     31  C   UNL     1       2.769  -5.253  11.277  0.00  0.00    +0.308 C 
ATOM     32  O   UNL     1       2.232  -4.543  12.100  0.00  0.00    -0.252 OA
ATOM     33  N   UNL     1       2.120  -6.155  10.467  0.00  0.00    -0.267 N 
ATOM     34  C   UNL     1       3.010  -6.743   9.706  0.00  0.00    +0.058 A 
ATOM     35  C   UNL     1       2.960  -7.763   8.661  0.00  0.00    +0.054 A 
ATOM     36  H   UNL     1       1.166  -6.327  10.460  0.00  0.00    +0.156 HD
ATOM     37  H   UNL     1       4.792  -4.734  11.451  0.00  0.00    +0.156 HD
ENDBRANCH  23  26
ENDBRANCH  21  23
ENDBRANCH   6  21
TORSDOF 8
