REMARK  Name = ZINC33275417
REMARK  8 active torsions:
REMARK  status: ('A' for Active; 'I' for Inactive)
REMARK    1  A    between atoms: C_1  and  C_2
REMARK    2  A    between atoms: C_2  and  C_3
REMARK    3  A    between atoms: C_2  and  N_4
REMARK    4  A    between atoms: C_5  and  C_7
REMARK    5  A    between atoms: C_9  and  N_19
REMARK    6  A    between atoms: C_12  and  N_13
REMARK    7  A    between atoms: N_19  and  S_20
REMARK    8  A    between atoms: S_20  and  C_23
REMARK                            x       y       z     vdW  Elec       q    Type
REMARK                         _______ _______ _______ _____ _____    ______ ____
ROOT
ATOM      1  C   UNL     1      -4.809   2.083  -4.016  0.00  0.00    +0.059 A 
ATOM      2  C   UNL     1      -4.552   3.255  -3.300  0.00  0.00    +0.039 A 
ATOM      3  C   UNL     1      -3.599   3.254  -2.297  0.00  0.00    +0.049 A 
ATOM      4  C   UNL     1      -2.893   2.092  -2.003  0.00  0.00    +0.026 A 
ATOM      5  C   UNL     1      -3.144   0.929  -2.701  0.00  0.00    +0.026 A 
ATOM      6  C   UNL     1      -4.097   0.913  -3.711  0.00  0.00    +0.042 A 
ENDROOT
BRANCH   6   7
ATOM      7  N   UNL     1      -4.345  -0.259  -4.418  0.00  0.00    -0.333 N 
ATOM      8  C   UNL     1      -3.126  -0.740  -5.084  0.00  0.00    +0.086 C 
ATOM      9  C   UNL     1      -3.458  -1.983  -5.913  0.00  0.00    -0.063 C 
ATOM     10  N   UNL     1      -4.019  -3.019  -5.035  0.00  0.00    +0.381 N 
ATOM     11  C   UNL     1      -5.238  -2.538  -4.370  0.00  0.00    -0.063 C 
ATOM     12  C   UNL     1      -4.906  -1.296  -3.540  0.00  0.00    +0.086 C 
ATOM     13  H   UNL     1      -4.269  -3.909  -5.632  0.00  0.00    -0.086 HD
ATOM     14  H   UNL     1      -3.279  -3.289  -4.267  0.00  0.00    -0.086 HD
ENDBRANCH   6   7
BRANCH   1  16
ATOM     15  N   UNL     1      -6.579   3.169  -5.306  0.00  0.00    -0.309 N 
ATOM     16  C   UNL     1      -5.822   2.075  -5.087  0.00  0.00    +0.246 C 
ATOM     17  O   UNL     1      -5.975   1.083  -5.773  0.00  0.00    -0.270 OA
ATOM     18  H   UNL     1      -6.440   4.067  -4.686  0.00  0.00    +0.149 HD
BRANCH  15  20
ATOM     19  C   UNL     1      -8.680   4.179  -6.044  0.00  0.00    +0.027 C 
ATOM     20  C   UNL     1      -7.585   3.162  -6.370  0.00  0.00    +0.067 C 
ATOM     21  C   UNL     1      -6.925   3.533  -7.700  0.00  0.00    +0.027 C 
ENDBRANCH  15  20
ENDBRANCH   1  16
BRANCH   3  22
ATOM     22  N   UNL     1      -3.341   4.428  -1.579  0.00  0.00    -0.216 N 
ATOM     23  H   UNL     1      -3.214   5.382  -2.112  0.00  0.00    +0.174 HD
BRANCH  22  24
ATOM     24  S   UNL     1      -3.225   4.381   0.072  0.00  0.00    +0.072 S 
ATOM     25  O   UNL     1      -3.066   5.724   0.507  0.00  0.00    -0.150 OA
ATOM     26  O   UNL     1      -2.285   3.362   0.385  0.00  0.00    -0.150 OA
BRANCH  24  27
ATOM     27  C   UNL     1      -4.783   3.834   0.688  0.00  0.00    +0.109 A 
ATOM     28  C   UNL     1      -5.057   2.482   0.779  0.00  0.00    +0.029 A 
ATOM     29  C   UNL     1      -6.280   2.062   1.260  0.00  0.00    +0.006 A 
ATOM     30  C   UNL     1      -7.239   2.986   1.654  0.00  0.00    -0.044 A 
ATOM     31  C   UNL     1      -6.965   4.332   1.566  0.00  0.00    -0.042 A 
ATOM     32  C   UNL     1      -5.732   4.753   1.085  0.00  0.00    +0.032 A 
ATOM     33  C   UNL     1      -7.955   5.390   1.980  0.00  0.00    +0.035 C 
ATOM     34  C   UNL     1      -9.362   4.803   2.069  0.00  0.00    +0.005 C 
ATOM     35  C   UNL     1      -9.305   3.540   2.936  0.00  0.00    +0.005 C 
ATOM     36  C   UNL     1      -8.555   2.458   2.162  0.00  0.00    +0.035 C 
ENDBRANCH  24  27
ENDBRANCH  22  24
ENDBRANCH   3  22
TORSDOF 6
