REMARK  Name = ZINC15673235
REMARK  9 active torsions:
REMARK  status: ('A' for Active; 'I' for Inactive)
REMARK    1  A    between atoms: C_1  and  O_2
REMARK    2  A    between atoms: O_2  and  C_3
REMARK    3  A    between atoms: C_6  and  C_10
REMARK    4  A    between atoms: C_7  and  O_9
REMARK    5  A    between atoms: C_10  and  N_11
REMARK    6  A    between atoms: N_19  and  C_25
REMARK    7  A    between atoms: C_25  and  C_27
REMARK    8  A    between atoms: C_25  and  C_34
REMARK    9  A    between atoms: C_27  and  C_28
REMARK                            x       y       z     vdW  Elec       q    Type
REMARK                         _______ _______ _______ _____ _____    ______ ____
ROOT
ATOM      1  N   UNL     1       3.942  -2.950   3.905  0.00  0.00    +0.383 N 
ATOM      2  C   UNL     1       3.840  -3.952   2.839  0.00  0.00    -0.078 C 
ATOM      3  C   UNL     1       5.239  -4.359   2.364  0.00  0.00    -0.015 C 
ATOM      4  C   UNL     1       6.019  -4.906   3.558  0.00  0.00    -0.003 C 
ATOM      5  C   UNL     1       7.419  -5.354   3.144  0.00  0.00    +0.099 C 
ATOM      6  C   UNL     1       7.937  -4.409   2.079  0.00  0.00    +0.216 C 
ATOM      7  O   UNL     1       8.034  -4.783   0.930  0.00  0.00    -0.276 OA
ATOM      8  N   UNL     1       8.285  -3.167   2.410  0.00  0.00    -0.290 N 
ATOM      9  C   UNL     1       8.179  -2.721   3.810  0.00  0.00    +0.109 C 
ATOM     10  C   UNL     1       6.706  -2.536   4.161  0.00  0.00    +0.021 C 
ATOM     11  C   UNL     1       6.100  -3.831   4.639  0.00  0.00    -0.023 C 
ATOM     12  C   UNL     1       4.656  -3.501   5.064  0.00  0.00    -0.075 C 
ATOM     13  H   UNL     1       4.442  -2.146   3.558  0.00  0.00    -0.081 HD
ENDROOT
BRANCH   1  14
ATOM     14  C   UNL     1       2.593  -2.541   4.316  0.00  0.00    -0.039 C 
BRANCH  14  18
ATOM     15  C   UNL     1       0.626  -0.618   1.042  0.00  0.00    +0.124 A 
ATOM     16  C   UNL     1       1.202   0.139   2.051  0.00  0.00    +0.046 A 
ATOM     17  C   UNL     1       1.837  -0.484   3.108  0.00  0.00    +0.009 A 
ATOM     18  C   UNL     1       1.899  -1.864   3.163  0.00  0.00    -0.022 A 
ATOM     19  C   UNL     1       1.324  -2.626   2.156  0.00  0.00    +0.122 A 
ATOM     20  C   UNL     1       0.682  -2.002   1.097  0.00  0.00    +0.091 A 
BRANCH  15  22
ATOM     21  C   UNL     1      -0.017   1.425   0.010  0.00  0.00    +0.277 C 
ATOM     22  O   UNL     1       0.002  -0.004   0.002  0.00  0.00    -0.495 OA
ENDBRANCH  15  22
BRANCH  19  23
ATOM     23  O   UNL     1       1.386  -3.982   2.210  0.00  0.00    -0.506 OA
ATOM     24  H   UNL     1       0.642  -4.392   2.673  0.00  0.00    +0.292 HD
ENDBRANCH  19  23
ENDBRANCH  14  18
ENDBRANCH   1  14
BRANCH   8  25
ATOM     25  C   UNL     1       8.774  -2.245   1.383  0.00  0.00    +0.167 C 
BRANCH  25  26
ATOM     26  C   UNL     1       7.711  -2.057   0.330  0.00  0.00    +0.231 C 
ATOM     27  O   UNL     1       6.651  -2.637   0.429  0.00  0.00    -0.274 OA
ATOM     28  N   UNL     1       7.940  -1.246  -0.721  0.00  0.00    -0.328 N 
ATOM     29  H   UNL     1       8.789  -0.782  -0.800  0.00  0.00    +0.145 HD
ATOM     30  H   UNL     1       7.257  -1.125  -1.399  0.00  0.00    +0.145 HD
ENDBRANCH  25  26
BRANCH  25  31
ATOM     31  C   UNL     1      10.035  -2.823   0.737  0.00  0.00    +0.086 C 
BRANCH  31  32
ATOM     32  C   UNL     1      11.136  -2.896   1.763  0.00  0.00    +0.035 A 
ATOM     33  C   UNL     1      11.972  -1.895   2.100  0.00  0.00    +0.105 A 
ATOM     34  N   UNL     1      12.809  -2.386   3.064  0.00  0.00    -0.352 N 
ATOM     35  H   UNL     1      13.524  -1.902   3.507  0.00  0.00    +0.166 HD
ATOM     36  C   UNL     1      12.457  -3.671   3.284  0.00  0.00    +0.171 A 
ATOM     37  N   UNL     1      11.452  -3.968   2.506  0.00  0.00    -0.350 N 
ATOM     38  H   UNL     1      11.005  -4.828   2.468  0.00  0.00    +0.166 HD
ENDBRANCH  31  32
ENDBRANCH  25  31
ENDBRANCH   8  25
TORSDOF 8
