REMARK  Name = ZINC14918984
REMARK  7 active torsions:
REMARK  status: ('A' for Active; 'I' for Inactive)
REMARK    1  A    between atoms: C_1  and  C_2
REMARK    2  A    between atoms: C_2  and  C_4
REMARK    3  A    between atoms: C_2  and  N_58
REMARK    4  A    between atoms: N_6  and  C_7
REMARK    5  A    between atoms: C_12  and  C_13
REMARK    6  A    between atoms: N_19  and  S_22
REMARK    7  A    between atoms: S_22  and  C_25
REMARK                            x       y       z     vdW  Elec       q    Type
REMARK                         _______ _______ _______ _____ _____    ______ ____
ROOT
ATOM      1  C   UNL     1      -0.773   3.058  -1.191  0.00  0.00    -0.060 C 
ATOM      2  C   UNL     1      -1.359   3.532  -2.526  0.00  0.00    +0.091 C 
ATOM      3  N   UNL     1      -2.655   2.868  -2.729  0.00  0.00    -0.180 NA
ATOM      4  C   UNL     1      -2.717   1.405  -2.590  0.00  0.00    +0.091 C 
ATOM      5  C   UNL     1      -2.078   1.015  -1.253  0.00  0.00    -0.060 C 
ATOM      6  N   UNL     1      -0.712   1.581  -1.196  0.00  0.00    +0.389 N 
ATOM      7  H   UNL     1      -0.190   1.272  -2.025  0.00  0.00    -0.081 HD
ENDROOT
BRANCH   3   8
ATOM      8  S   UNL     1      -4.009   3.744  -3.104  0.00  0.00    +0.061 S 
ATOM      9  O   UNL     1      -3.558   4.952  -3.701  0.00  0.00    -0.153 OA
ATOM     10  O   UNL     1      -4.898   2.854  -3.765  0.00  0.00    -0.153 OA
BRANCH   8  11
ATOM     11  C   UNL     1      -4.780   4.189  -1.584  0.00  0.00    +0.106 A 
ATOM     12  C   UNL     1      -5.737   3.344  -1.026  0.00  0.00    +0.029 A 
ATOM     13  C   UNL     1      -6.347   3.656   0.150  0.00  0.00    +0.010 A 
ATOM     14  C   UNL     1      -6.018   4.853   0.808  0.00  0.00    -0.018 A 
ATOM     15  C   UNL     1      -6.632   5.212   2.020  0.00  0.00    +0.008 A 
ATOM     16  C   UNL     1      -6.288   6.380   2.629  0.00  0.00    +0.001 A 
ATOM     17  C   UNL     1      -5.335   7.228   2.068  0.00  0.00    +0.001 A 
ATOM     18  C   UNL     1      -4.720   6.913   0.895  0.00  0.00    +0.008 A 
ATOM     19  C   UNL     1      -5.049   5.716   0.237  0.00  0.00    -0.016 A 
ATOM     20  C   UNL     1      -4.436   5.357  -0.975  0.00  0.00    +0.037 A 
ENDBRANCH   8  11
ENDBRANCH   3   8
BRANCH   6  22
ATOM     21  C   UNL     1      -0.726   1.599   1.277  0.00  0.00    -0.004 C 
ATOM     22  C   UNL     1      -0.017   1.100   0.016  0.00  0.00    +0.017 C 
BRANCH  22  23
ATOM     23  C   UNL     1       1.400   1.612  -0.000  0.00  0.00    +0.203 C 
ATOM     24  O   UNL     1       1.780   2.316  -0.912  0.00  0.00    -0.277 OA
ATOM     25  N   UNL     1       2.245   1.288   0.998  0.00  0.00    -0.286 N 
ATOM     26  H   UNL     1       1.924   0.780   1.760  0.00  0.00    +0.155 HD
BRANCH  25  27
ATOM     27  C   UNL     1       3.586   1.684   0.937  0.00  0.00    +0.045 A 
ATOM     28  C   UNL     1       3.926   2.900   0.359  0.00  0.00    +0.024 A 
ATOM     29  C   UNL     1       5.249   3.291   0.304  0.00  0.00    +0.002 A 
ATOM     30  C   UNL     1       6.236   2.468   0.815  0.00  0.00    +0.001 A 
ATOM     31  C   UNL     1       5.901   1.254   1.386  0.00  0.00    +0.014 A 
ATOM     32  C   UNL     1       4.579   0.860   1.448  0.00  0.00    +0.076 A 
BRANCH  32  33
ATOM     33  C   UNL     1       4.215  -0.464   2.070  0.00  0.00    +0.419 C 
ATOM     34  F   UNL     1       5.376  -1.108   2.510  0.00  0.00    -0.166 F 
ATOM     35  F   UNL     1       3.361  -0.249   3.158  0.00  0.00    -0.166 F 
ATOM     36  F   UNL     1       3.568  -1.263   1.121  0.00  0.00    -0.166 F 
ENDBRANCH  32  33
ENDBRANCH  25  27
ENDBRANCH  22  23
ENDBRANCH   6  22
TORSDOF 6
