REMARK  Name = ZINC38065552
REMARK  9 active torsions:
REMARK  status: ('A' for Active; 'I' for Inactive)
REMARK    1  A    between atoms: C_1  and  C_2
REMARK    2  A    between atoms: C_2  and  C_3
REMARK    3  A    between atoms: C_3  and  C_5
REMARK    4  A    between atoms: C_3  and  N_6
REMARK    5  A    between atoms: N_6  and  C_7
REMARK    6  A    between atoms: C_7  and  C_8
REMARK    7  A    between atoms: C_7  and  C_10
REMARK    8  A    between atoms: C_7  and  C_17
REMARK    9  A    between atoms: C_8  and  C_9
REMARK                            x       y       z     vdW  Elec       q    Type
REMARK                         _______ _______ _______ _____ _____    ______ ____
ROOT
ATOM      1  C   UNL     1      -2.107  -0.884   2.193  0.00  0.00    +0.036 C 
ENDROOT
BRANCH   1   2
ATOM      2  C   UNL     1      -1.957  -0.415   3.618  0.00  0.00    -0.050 A 
ATOM      3  C   UNL     1      -1.081   0.611   3.919  0.00  0.00    +0.004 A 
ATOM      4  C   UNL     1      -0.944   1.042   5.225  0.00  0.00    +0.015 A 
ATOM      5  C   UNL     1      -1.683   0.446   6.231  0.00  0.00    +0.018 A 
ATOM      6  C   UNL     1      -2.560  -0.581   5.929  0.00  0.00    +0.015 A 
ATOM      7  C   UNL     1      -2.700  -1.008   4.622  0.00  0.00    +0.004 A 
ATOM      8 BR   UNL     1      -1.496   1.034   8.018  0.00  0.00    -0.050 Br
ENDBRANCH   1   2
BRANCH   1   9
ATOM      9  C   UNL     1      -3.534  -0.695   1.750  0.00  0.00    +0.204 C 
ATOM     10  O   UNL     1      -4.321  -1.615   1.830  0.00  0.00    -0.277 OA
ATOM     11  N   UNL     1      -3.937   0.495   1.264  0.00  0.00    -0.330 N 
ATOM     12  H   UNL     1      -3.308   1.231   1.200  0.00  0.00    +0.145 HD
ATOM     13  H   UNL     1      -4.856   0.617   0.978  0.00  0.00    +0.145 HD
ENDBRANCH   1   9
BRANCH   1  14
ATOM     14  N   UNL     1      -1.216  -0.103   1.325  0.00  0.00    +0.393 N 
ATOM     15  H   UNL     1      -0.256  -0.324   1.541  0.00  0.00    -0.084 HD
ATOM     16  H   UNL     1      -1.377   0.882   1.476  0.00  0.00    -0.084 HD
BRANCH  14  17
ATOM     17  C   UNL     1      -1.490  -0.433  -0.080  0.00  0.00    -0.073 C 
ATOM     18  C   UNL     1      -0.699  -1.682  -0.474  0.00  0.00    -0.014 C 
BRANCH  17  20
ATOM     19  C   UNL     1      -1.947   1.954  -0.662  0.00  0.00    +0.002 C 
ATOM     20  C   UNL     1      -1.070   0.739  -0.971  0.00  0.00    -0.019 C 
ENDBRANCH  17  20
ENDBRANCH  14  17
ENDBRANCH   1  14
BRANCH   1  21
ATOM     21  C   UNL     1      -1.736  -2.366   2.103  0.00  0.00    -0.002 C 
ATOM     22  C   UNL     1      -0.262  -2.546   2.470  0.00  0.00    +0.003 C 
ENDBRANCH   1  21
TORSDOF 6
