REMARK  Name = ZINC12489834
REMARK  7 active torsions:
REMARK  status: ('A' for Active; 'I' for Inactive)
REMARK    1  A    between atoms: C_1  and  C_2
REMARK    2  A    between atoms: N_5  and  S_8
REMARK    3  A    between atoms: S_8  and  C_11
REMARK    4  A    between atoms: C_14  and  C_17
REMARK    5  A    between atoms: C_17  and  O_19
REMARK    6  A    between atoms: O_19  and  C_20
REMARK    7  A    between atoms: C_34  and  N_65
REMARK                            x       y       z     vdW  Elec       q    Type
REMARK                         _______ _______ _______ _____ _____    ______ ____
ROOT
ATOM      1  C   UNL     1      -4.525   5.216  -8.575  0.00  0.00    +0.344 C 
ATOM      2  O   UNL     1      -4.492   4.002  -8.614  0.00  0.00    -0.245 OA
ENDROOT
BRANCH   1   6
ATOM      3  C   UNL     1      -5.942   7.409 -11.924  0.00  0.00    +0.106 A 
ATOM      4  C   UNL     1      -5.906   6.027 -11.972  0.00  0.00    +0.029 A 
ATOM      5  C   UNL     1      -5.447   5.308 -10.887  0.00  0.00    +0.017 A 
ATOM      6  C   UNL     1      -5.018   5.979  -9.741  0.00  0.00    +0.060 A 
ATOM      7  C   UNL     1      -5.062   7.373  -9.697  0.00  0.00    +0.017 A 
ATOM      8  C   UNL     1      -5.519   8.080 -10.791  0.00  0.00    +0.029 A 
BRANCH   3   9
ATOM      9  S   UNL     1      -6.530   8.319 -13.314  0.00  0.00    +0.061 S 
ATOM     10  O   UNL     1      -5.953   9.614 -13.224  0.00  0.00    -0.153 OA
ATOM     11  O   UNL     1      -6.355   7.484 -14.450  0.00  0.00    -0.153 OA
BRANCH   9  16
ATOM     12  C   UNL     1     -11.841  10.058 -14.597  0.00  0.00    +0.007 C 
ATOM     13  C   UNL     1     -10.790   9.361 -13.730  0.00  0.00    -0.012 C 
ATOM     14  C   UNL     1      -9.728  10.376 -13.302  0.00  0.00    +0.020 C 
ATOM     15  C   UNL     1      -8.697   9.683 -12.406  0.00  0.00    +0.110 C 
ATOM     16  N   UNL     1      -8.163   8.513 -13.117  0.00  0.00    -0.177 NA
ATOM     17  C   UNL     1      -9.105   7.523 -13.655  0.00  0.00    +0.110 C 
ATOM     18  C   UNL     1     -10.131   8.238 -14.533  0.00  0.00    +0.020 C 
ENDBRANCH   9  16
ENDBRANCH   3   9
ENDBRANCH   1   6
BRANCH   1  19
ATOM     19  O   UNL     1      -4.112   5.866  -7.471  0.00  0.00    -0.422 OA
BRANCH  19  20
ATOM     20  C   UNL     1      -3.559   5.113  -6.482  0.00  0.00    +0.133 A 
ATOM     21  C   UNL     1      -2.318   4.510  -6.667  0.00  0.00    +0.048 A 
ATOM     22  C   UNL     1      -1.741   3.748  -5.685  0.00  0.00    +0.032 A 
ATOM     23  C   UNL     1      -2.392   3.549  -4.446  0.00  0.00    +0.081 A 
ATOM     24  C   UNL     1      -3.649   4.176  -4.291  0.00  0.00    +0.044 A 
ATOM     25  C   UNL     1      -4.224   4.939  -5.277  0.00  0.00    +0.063 A 
ATOM     26  S   UNL     1      -4.118   3.686  -2.649  0.00  0.00    -0.052 S 
ATOM     27  C   UNL     1      -2.661   2.720  -2.278  0.00  0.00    +0.162 A 
ATOM     28  N   UNL     1      -1.961   2.832  -3.384  0.00  0.00    -0.225 NA
ATOM     29  N   UNL     1      -2.351   2.028  -1.124  0.00  0.00    -0.313 N 
ATOM     30  C   UNL     1      -1.048   1.361  -1.244  0.00  0.00    +0.088 C 
ATOM     31  C   UNL     1      -0.706   0.673   0.080  0.00  0.00    -0.060 C 
ATOM     32  C   UNL     1      -3.065   0.373   0.533  0.00  0.00    -0.060 C 
ATOM     33  C   UNL     1      -3.407   1.061  -0.791  0.00  0.00    +0.088 C 
ATOM     34  C   UNL     1      -1.432  -1.030   1.642  0.00  0.00    -0.096 C 
ATOM     35  N   UNL     1      -1.763  -0.312   0.392  0.00  0.00    +0.380 N 
ATOM     36  H   UNL     1      -1.824  -0.991  -0.376  0.00  0.00    -0.082 HD
ENDBRANCH  19  20
ENDBRANCH   1  19
TORSDOF 5
