REMARK  Name = ZINC38806105
REMARK  10 active torsions:
REMARK  status: ('A' for Active; 'I' for Inactive)
REMARK    1  A    between atoms: C_1  and  C_2
REMARK    2  A    between atoms: C_2  and  C_31
REMARK    3  A    between atoms: C_5  and  C_27
REMARK    4  A    between atoms: C_6  and  N_13
REMARK    5  A    between atoms: C_9  and  C_11
REMARK    6  A    between atoms: C_9  and  C_12
REMARK    7  A    between atoms: C_14  and  C_16
REMARK    8  A    between atoms: C_17  and  C_18
REMARK    9  A    between atoms: C_27  and  O_29
REMARK   10  A    between atoms: O_29  and  C_30
REMARK                            x       y       z     vdW  Elec       q    Type
REMARK                         _______ _______ _______ _____ _____    ______ ____
ROOT
ATOM      1  C   UNL     1      -0.019   1.526   0.010  0.00  0.00    -0.010 C 
ATOM      2  C   UNL     1       0.002  -0.004   0.002  0.00  0.00    -0.069 C 
ATOM      3  C   UNL     1      -1.434  -0.533  -0.096  0.00  0.00    +0.024 C 
ATOM      4  C   UNL     1      -2.142  -0.135   1.190  0.00  0.00    -0.024 A 
ATOM      5  C   UNL     1      -3.547   0.169   1.352  0.00  0.00    +0.091 A 
ATOM      6  C   UNL     1      -3.971   0.517   2.630  0.00  0.00    +0.086 A 
ATOM      7  S   UNL     1      -2.576   0.442   3.562  0.00  0.00    -0.079 S 
ATOM      8  C   UNL     1      -1.412  -0.052   2.326  0.00  0.00    -0.016 A 
ATOM      9  C   UNL     1       0.046  -0.335   2.463  0.00  0.00    -0.041 C 
ATOM     10  N   UNL     1       0.700  -0.526   1.169  0.00  0.00    +0.389 N 
ATOM     11  C   UNL     1       0.720   0.810   3.233  0.00  0.00    -0.005 C 
ATOM     12  C   UNL     1       0.212  -1.623   3.293  0.00  0.00    -0.005 C 
ATOM     13  C   UNL     1       0.759  -0.460  -1.260  0.00  0.00    -0.010 C 
ATOM     14  H   UNL     1       0.860  -1.526   1.031  0.00  0.00    -0.084 HD
ATOM     15  H   UNL     1       1.629  -0.102   1.209  0.00  0.00    -0.084 HD
ENDROOT
BRANCH   6  16
ATOM     16  N   UNL     1      -5.252   0.847   3.038  0.00  0.00    -0.276 N 
ATOM     17  C   UNL     1      -5.489   1.160   4.327  0.00  0.00    +0.241 C 
ATOM     18  O   UNL     1      -4.576   1.153   5.133  0.00  0.00    -0.270 OA
ATOM     19  H   UNL     1      -5.979   0.853   2.396  0.00  0.00    +0.156 HD
BRANCH  17  20
ATOM     20  C   UNL     1      -6.841   1.509   4.759  0.00  0.00    +0.068 C 
ATOM     21  C   UNL     1      -7.078   1.823   6.050  0.00  0.00    +0.013 C 
BRANCH  21  22
ATOM     22  C   UNL     1      -8.438   2.174   6.484  0.00  0.00    -0.021 A 
ATOM     23  C   UNL     1      -9.490   2.177   5.561  0.00  0.00    +0.012 A 
ATOM     24  C   UNL     1     -10.763   2.506   5.970  0.00  0.00    +0.050 A 
ATOM     25  C   UNL     1     -11.008   2.836   7.297  0.00  0.00    +0.166 A 
ATOM     26  C   UNL     1      -9.964   2.834   8.223  0.00  0.00    +0.167 A 
ATOM     27  C   UNL     1      -8.686   2.500   7.822  0.00  0.00    +0.057 A 
ATOM     28  O   UNL     1     -10.464   3.189   9.443  0.00  0.00    -0.453 OA
ATOM     29  C   UNL     1     -11.738   3.803   9.172  0.00  0.00    +0.466 C 
ATOM     30  O   UNL     1     -12.158   3.190   7.939  0.00  0.00    -0.453 OA
ENDBRANCH  21  22
ENDBRANCH  17  20
ENDBRANCH   6  16
BRANCH   5  31
ATOM     31  C   UNL     1      -4.488   0.114   0.232  0.00  0.00    +0.342 C 
ATOM     32  O   UNL     1      -5.074  -0.921  -0.020  0.00  0.00    -0.245 OA
BRANCH  31  33
ATOM     33  O   UNL     1      -4.706   1.213  -0.521  0.00  0.00    -0.464 OA
ATOM     34  C   UNL     1      -5.637   1.087  -1.597  0.00  0.00    +0.280 C 
ENDBRANCH  31  33
ENDBRANCH   5  31
TORSDOF 5
