REMARK  Name = ZINC31039692
REMARK  13 active torsions:
REMARK  status: ('A' for Active; 'I' for Inactive)
REMARK    1  A    between atoms: C_1  and  C_2
REMARK    2  A    between atoms: C_2  and  O_3
REMARK    3  A    between atoms: O_3  and  C_4
REMARK    4  A    between atoms: C_4  and  C_6
REMARK    5  A    between atoms: C_7  and  C_20
REMARK    6  A    between atoms: C_12  and  C_14
REMARK    7  A    between atoms: C_20  and  N_21
REMARK    8  A    between atoms: N_21  and  C_22
REMARK    9  A    between atoms: N_21  and  C_23
REMARK   10  A    between atoms: C_23  and  C_24
REMARK   11  A    between atoms: N_26  and  C_27
REMARK   12  A    between atoms: C_32  and  S_33
REMARK   13  A    between atoms: S_33  and  C_34
REMARK                            x       y       z     vdW  Elec       q    Type
REMARK                         _______ _______ _______ _____ _____    ______ ____
ROOT
ATOM      1  C   UNL     1      -0.961   1.473   3.902  0.00  0.00    +0.076 C 
ATOM      2  C   UNL     1      -0.488   0.943   5.051  0.00  0.00    +0.008 C 
ATOM      3  N   UNL     1      -1.109   1.181   6.244  0.00  0.00    -0.274 N 
ATOM      4  C   UNL     1      -2.206   1.937   6.373  0.00  0.00    +0.304 C 
ATOM      5  O   UNL     1      -2.688   2.091   7.478  0.00  0.00    -0.252 OA
ATOM      6  N   UNL     1      -2.793   2.534   5.317  0.00  0.00    -0.288 N 
ATOM      7  C   UNL     1      -2.197   2.345   3.984  0.00  0.00    +0.143 C 
ATOM      8  H   UNL     1      -0.709   0.740   7.169  0.00  0.00    +0.156 HD
ATOM      9  H   UNL     1      -3.697   3.150   5.433  0.00  0.00    +0.151 HD
ENDROOT
BRANCH   7  10
ATOM     10  C   UNL     1      -3.251   1.742   3.090  0.00  0.00    -0.023 A 
ATOM     11  C   UNL     1      -3.994   0.663   3.530  0.00  0.00    +0.006 A 
ATOM     12  C   UNL     1      -4.964   0.112   2.712  0.00  0.00    +0.000 A 
ATOM     13  C   UNL     1      -5.183   0.635   1.451  0.00  0.00    +0.000 A 
ATOM     14  C   UNL     1      -4.435   1.711   1.010  0.00  0.00    +0.000 A 
ATOM     15  C   UNL     1      -3.469   2.264   1.829  0.00  0.00    +0.006 A 
ENDBRANCH   7  10
BRANCH   1  16
ATOM     16  C   UNL     1      -0.319   1.227   2.665  0.00  0.00    +0.339 C 
ATOM     17  O   UNL     1       0.373   2.089   2.157  0.00  0.00    -0.245 OA
BRANCH  16  18
ATOM     18  O   UNL     1      -0.475   0.037   2.049  0.00  0.00    -0.462 OA
BRANCH  18  20
ATOM     19  C   UNL     1      -0.092  -1.542   0.260  0.00  0.00    +0.048 C 
ATOM     20  C   UNL     1       0.202  -0.142   0.803  0.00  0.00    +0.229 C 
ENDBRANCH  18  20
ENDBRANCH  16  18
ENDBRANCH   1  16
BRANCH   2  21
ATOM     21  C   UNL     1       0.743   0.075   5.016  0.00  0.00    -0.026 C 
BRANCH  21  22
ATOM     22  N   UNL     1       1.823   0.727   5.768  0.00  0.00    +0.387 N 
ATOM     23  C   UNL     1       2.251   1.968   5.108  0.00  0.00    -0.095 C 
ATOM     24  H   UNL     1       1.431   0.991   6.762  0.00  0.00    -0.081 HD
BRANCH  22  25
ATOM     25  C   UNL     1       2.958  -0.186   5.958  0.00  0.00    +0.019 C 
BRANCH  25  26
ATOM     26  C   UNL     1       3.934   0.421   6.933  0.00  0.00    +0.201 C 
ATOM     27  O   UNL     1       3.706   1.508   7.421  0.00  0.00    -0.278 OA
ATOM     28  N   UNL     1       5.059  -0.243   7.262  0.00  0.00    -0.286 N 
ATOM     29  H   UNL     1       5.311  -1.185   6.753  0.00  0.00    +0.155 HD
BRANCH  28  30
ATOM     30  C   UNL     1       5.909   0.266   8.254  0.00  0.00    +0.047 A 
ATOM     31  C   UNL     1       5.433   1.192   9.169  0.00  0.00    +0.024 A 
ATOM     32  C   UNL     1       6.271   1.690  10.149  0.00  0.00    +0.002 A 
ATOM     33  C   UNL     1       7.588   1.274  10.215  0.00  0.00    +0.001 A 
ATOM     34  C   UNL     1       8.073   0.355   9.305  0.00  0.00    +0.016 A 
ATOM     35  C   UNL     1       7.238  -0.154   8.320  0.00  0.00    +0.029 A 
BRANCH  35  36
ATOM     36  S   UNL     1       7.853  -1.326   7.157  0.00  0.00    -0.127 S 
ATOM     37  C   UNL     1       9.588  -1.551   7.638  0.00  0.00    +0.090 C 
ENDBRANCH  35  36
ENDBRANCH  28  30
ENDBRANCH  25  26
ENDBRANCH  22  25
ENDBRANCH  21  22
ENDBRANCH   2  21
TORSDOF 10
