REMARK  Name = ZINC19908514
REMARK  12 active torsions:
REMARK  status: ('A' for Active; 'I' for Inactive)
REMARK    1  A    between atoms: C_1  and  C_2
REMARK    2  A    between atoms: C_7  and  N_8
REMARK    3  A    between atoms: C_9  and  C_11
REMARK    4  A    between atoms: C_15  and  N_16
REMARK    5  A    between atoms: C_17  and  C_19
REMARK    6  A    between atoms: C_19  and  N_20
REMARK    7  A    between atoms: N_20  and  C_21
REMARK    8  A    between atoms: C_21  and  C_22
REMARK    9  A    between atoms: C_28  and  C_32
REMARK   10  A    between atoms: C_32  and  C_33
REMARK   11  A    between atoms: C_32  and  C_34
REMARK   12  A    between atoms: C_32  and  C_35
REMARK                            x       y       z     vdW  Elec       q    Type
REMARK                         _______ _______ _______ _____ _____    ______ ____
ROOT
ATOM      1  C   UNL     1      -1.641   3.871   5.035  0.00  0.00    +0.069 A 
ATOM      2  C   UNL     1      -1.263   3.365   3.726  0.00  0.00    -0.023 A 
ATOM      3  C   UNL     1      -0.515   2.240   3.738  0.00  0.00    -0.004 A 
ATOM      4  S   UNL     1      -0.312   1.851   5.453  0.00  0.00    -0.077 S 
ATOM      5  C   UNL     1      -1.206   3.163   6.146  0.00  0.00    +0.084 A 
ATOM      6  C   UNL     1       0.016   1.496   2.552  0.00  0.00    +0.046 C 
ATOM      7  C   UNL     1      -0.725   1.988   1.300  0.00  0.00    -0.000 C 
ATOM      8  C   UNL     1      -0.741   3.520   1.303  0.00  0.00    +0.009 C 
ATOM      9  C   UNL     1      -1.661   4.029   2.413  0.00  0.00    +0.037 C 
ENDROOT
BRANCH   1  11
ATOM     10  N   UNL     1      -3.796   4.996   5.209  0.00  0.00    -0.281 N 
ATOM     11  C   UNL     1      -2.452   5.084   5.176  0.00  0.00    +0.251 C 
ATOM     12  O   UNL     1      -1.911   6.171   5.263  0.00  0.00    -0.270 OA
ATOM     13  H   UNL     1      -4.288   4.027   5.039  0.00  0.00    +0.155 HD
BRANCH  10  20
ATOM     14  C   UNL     1      -6.476   5.044   4.254  0.00  0.00    +0.045 C 
ATOM     15  C   UNL     1      -5.879   6.202   5.011  0.00  0.00    -0.029 A 
ATOM     16  C   UNL     1      -6.636   7.330   5.259  0.00  0.00    +0.005 A 
ATOM     17  C   UNL     1      -6.089   8.393   5.953  0.00  0.00    +0.000 A 
ATOM     18  C   UNL     1      -4.782   8.331   6.400  0.00  0.00    +0.002 A 
ATOM     19  C   UNL     1      -4.021   7.204   6.160  0.00  0.00    +0.023 A 
ATOM     20  C   UNL     1      -4.566   6.136   5.459  0.00  0.00    +0.037 A 
ENDBRANCH  10  20
ENDBRANCH   1  11
BRANCH   5  21
ATOM     21  N   UNL     1      -1.432   3.438   7.486  0.00  0.00    -0.281 N 
ATOM     22  C   UNL     1      -0.924   2.628   8.436  0.00  0.00    +0.201 C 
ATOM     23  O   UNL     1      -0.270   1.658   8.118  0.00  0.00    -0.278 OA
ATOM     24  H   UNL     1      -2.026   4.319   7.774  0.00  0.00    +0.155 HD
BRANCH  22  25
ATOM     25  C   UNL     1      -1.170   2.928   9.892  0.00  0.00    +0.016 C 
BRANCH  25  26
ATOM     26  N   UNL     1      -0.517   1.905  10.720  0.00  0.00    +0.389 N 
ATOM     27  H   UNL     1      -0.930   0.916  10.474  0.00  0.00    -0.085 HD
ATOM     28  H   UNL     1       0.565   1.909  10.522  0.00  0.00    -0.085 HD
BRANCH  26  29
ATOM     29  C   UNL     1      -0.735   2.165  12.149  0.00  0.00    -0.006 C 
BRANCH  29  30
ATOM     30  C   UNL     1      -0.052   1.098  12.964  0.00  0.00    +0.088 A 
ATOM     31  C   UNL     1       1.213   1.144  13.419  0.00  0.00    +0.042 A 
ATOM     32  C   UNL     1       1.437  -0.057  14.130  0.00  0.00    +0.041 A 
ATOM     33  C   UNL     1       0.295  -0.766  14.067  0.00  0.00    +0.195 A 
ATOM     34  O   UNL     1      -0.605  -0.059  13.365  0.00  0.00    -0.470 OA
ENDBRANCH  29  30
ENDBRANCH  26  29
ENDBRANCH  25  26
ENDBRANCH  22  25
ENDBRANCH   5  21
BRANCH   7  35
ATOM     35  C   UNL     1      -0.005   1.485   0.047  0.00  0.00    -0.035 C 
ATOM     36  C   UNL     1       0.015  -0.044   0.051  0.00  0.00    +0.011 C 
ATOM     37  C   UNL     1       1.430   2.014   0.036  0.00  0.00    +0.011 C 
ATOM     38  C   UNL     1      -0.742   1.983  -1.198  0.00  0.00    +0.011 C 
ENDBRANCH   7  35
TORSDOF 8
