REMARK  Name = ZINC41723297
REMARK  6 active torsions:
REMARK  status: ('A' for Active; 'I' for Inactive)
REMARK    1  A    between atoms: C_1  and  C_2
REMARK    2  A    between atoms: C_3  and  C_8
REMARK    3  A    between atoms: C_8  and  N_9
REMARK    4  A    between atoms: C_15  and  C_20
REMARK    5  A    between atoms: C_15  and  C_21
REMARK    6  A    between atoms: C_17  and  N_19
REMARK                            x       y       z     vdW  Elec       q    Type
REMARK                         _______ _______ _______ _____ _____    ______ ____
ROOT
ATOM      1  N   UNL     1       1.364  -0.055  -2.998  0.00  0.00    -0.346 N 
ATOM      2  C   UNL     1       1.968   1.169  -2.967  0.00  0.00    +0.086 A 
ATOM      3  C   UNL     1       3.224   1.034  -3.446  0.00  0.00    +0.021 A 
ATOM      4  C   UNL     1       3.398  -0.316  -3.781  0.00  0.00    -0.041 A 
ATOM      5  C   UNL     1       2.246  -0.963  -3.491  0.00  0.00    +0.021 A 
ATOM      6  C   UNL     1       2.032  -2.441  -3.700  0.00  0.00    +0.060 C 
ATOM      7  C   UNL     1       3.401  -3.110  -3.871  0.00  0.00    -0.031 C 
ATOM      8  C   UNL     1       4.217  -2.346  -4.918  0.00  0.00    -0.005 C 
ATOM      9  C   UNL     1       4.623  -0.979  -4.359  0.00  0.00    -0.042 C 
ATOM     10  C   UNL     1       3.209  -4.556  -4.331  0.00  0.00    +0.011 C 
ATOM     11  C   UNL     1       4.146  -3.095  -2.534  0.00  0.00    +0.011 C 
ENDROOT
BRANCH   9  12
ATOM     12  N   UNL     1       5.183  -0.141  -5.427  0.00  0.00    +0.383 N 
ATOM     13  H   UNL     1       5.436   0.760  -5.050  0.00  0.00    -0.089 HD
ATOM     14  H   UNL     1       6.002  -0.587  -5.811  0.00  0.00    -0.089 HD
ATOM     15  H   UNL     1       4.494  -0.019  -6.154  0.00  0.00    -0.089 HD
ENDBRANCH   9  12
BRANCH   1  16
ATOM     16  C   UNL     1      -0.006  -0.343  -2.566  0.00  0.00    +0.160 C 
BRANCH  16  19
ATOM     17  C   UNL     1      -0.018   1.503   0.010  0.00  0.00    +0.068 C 
ATOM     18  C   UNL     1       0.002  -0.004   0.002  0.00  0.00    +0.065 A 
ATOM     19  C   UNL     1       0.008  -0.818  -1.135  0.00  0.00    +0.012 A 
ATOM     20  C   UNL     1       0.028  -2.107  -0.725  0.00  0.00    +0.110 A 
ATOM     21  N   UNL     1       0.034  -2.109   0.625  0.00  0.00    -0.284 N 
ATOM     22  H   UNL     1       0.048  -2.894   1.194  0.00  0.00    +0.188 HD
ATOM     23  N   UNL     1       0.023  -0.777   1.058  0.00  0.00    -0.179 NA
ENDBRANCH  16  19
ENDBRANCH   1  16
TORSDOF 3
