REMARK  Name = ZINC12664074
REMARK  12 active torsions:
REMARK  status: ('A' for Active; 'I' for Inactive)
REMARK    1  A    between atoms: C_1  and  C_2
REMARK    2  A    between atoms: C_2  and  N_3
REMARK    3  A    between atoms: N_3  and  C_4
REMARK    4  A    between atoms: N_3  and  C_6
REMARK    5  A    between atoms: C_4  and  C_5
REMARK    6  A    between atoms: C_9  and  N_13
REMARK    7  A    between atoms: C_10  and  C_12
REMARK    8  A    between atoms: C_14  and  C_16
REMARK    9  A    between atoms: C_16  and  C_17
REMARK   10  A    between atoms: N_28  and  C_31
REMARK   11  A    between atoms: C_34  and  C_38
REMARK   12  A    between atoms: C_36  and  C_37
REMARK                            x       y       z     vdW  Elec       q    Type
REMARK                         _______ _______ _______ _____ _____    ______ ____
ROOT
ATOM      1  C   UNL     1      -6.866   0.738   0.181  0.00  0.00    +0.112 C 
ATOM      2  C   UNL     1      -7.717   0.220  -0.987  0.00  0.00    +0.103 C 
ATOM      3  S   UNL     1      -8.273   1.793  -1.742  0.00  0.00    -0.085 S 
ATOM      4  C   UNL     1      -7.472   2.941  -0.641  0.00  0.00    +0.174 A 
ATOM      5  N   UNL     1      -6.796   2.195   0.281  0.00  0.00    -0.283 N 
ATOM      6  C   UNL     1      -6.093   2.872   1.246  0.00  0.00    +0.266 A 
ATOM      7  O   UNL     1      -5.471   2.256   2.094  0.00  0.00    -0.267 OA
ATOM      8  C   UNL     1      -6.091   4.283   1.254  0.00  0.00    +0.103 A 
ATOM      9  C   UNL     1      -5.493   5.262   2.077  0.00  0.00    +0.150 A 
ATOM     10  N   UNL     1      -5.820   6.440   1.623  0.00  0.00    -0.172 NA
ATOM     11  N   UNL     1      -6.646   6.298   0.502  0.00  0.00    -0.214 N 
ATOM     12  C   UNL     1      -6.817   4.968   0.265  0.00  0.00    +0.171 A 
ATOM     13  N   UNL     1      -7.483   4.255  -0.649  0.00  0.00    -0.203 NA
ENDROOT
BRANCH  11  14
ATOM     14  C   UNL     1      -7.198   7.343  -0.249  0.00  0.00    +0.071 A 
ATOM     15  C   UNL     1      -7.077   7.345  -1.633  0.00  0.00    +0.028 A 
ATOM     16  C   UNL     1      -7.622   8.378  -2.371  0.00  0.00    +0.005 A 
ATOM     17  C   UNL     1      -8.288   9.409  -1.733  0.00  0.00    -0.050 A 
ATOM     18  C   UNL     1      -8.410   9.409  -0.356  0.00  0.00    +0.008 A 
ATOM     19  C   UNL     1      -7.867   8.380   0.388  0.00  0.00    -0.025 A 
ATOM     20  C   UNL     1      -8.002   8.381   1.889  0.00  0.00    +0.046 C 
ATOM     21  C   UNL     1      -8.881  10.534  -2.541  0.00  0.00    +0.044 C 
ENDBRANCH  11  14
BRANCH   1  22
ATOM     22  C   UNL     1      -7.446   0.189   1.486  0.00  0.00    +0.122 C 
BRANCH  22  24
ATOM     23  N   UNL     1      -7.943  -2.026   2.470  0.00  0.00    -0.285 N 
ATOM     24  C   UNL     1      -7.389  -1.317   1.466  0.00  0.00    +0.219 C 
ATOM     25  O   UNL     1      -6.844  -1.892   0.547  0.00  0.00    -0.275 OA
ATOM     26  H   UNL     1      -8.308  -1.567   3.243  0.00  0.00    +0.155 HD
BRANCH  23  30
ATOM     27  C   UNL     1      -8.085  -6.188   2.255  0.00  0.00    +0.030 A 
ATOM     28  C   UNL     1      -8.004  -5.435   1.091  0.00  0.00    +0.025 A 
ATOM     29  C   UNL     1      -7.962  -4.057   1.162  0.00  0.00    +0.025 A 
ATOM     30  C   UNL     1      -7.990  -3.424   2.398  0.00  0.00    +0.036 A 
ATOM     31  C   UNL     1      -8.072  -4.177   3.562  0.00  0.00    -0.028 A 
ATOM     32  C   UNL     1      -8.120  -5.556   3.490  0.00  0.00    +0.028 A 
ATOM     33  C   UNL     1      -8.110  -3.490   4.902  0.00  0.00    +0.046 C 
BRANCH  27  34
ATOM     34  N   UNL     1      -8.134  -7.585   2.182  0.00  0.00    -0.330 N 
BRANCH  34  36
ATOM     35  C   UNL     1      -6.645  -8.538   0.492  0.00  0.00    +0.024 C 
ATOM     36  C   UNL     1      -8.098  -8.252   0.878  0.00  0.00    +0.102 C 
ENDBRANCH  34  36
BRANCH  34  37
ATOM     37  C   UNL     1      -8.220  -8.379   3.410  0.00  0.00    +0.102 C 
ATOM     38  C   UNL     1      -9.690  -8.603   3.770  0.00  0.00    +0.024 C 
ENDBRANCH  34  37
ENDBRANCH  27  34
ENDBRANCH  23  30
ENDBRANCH  22  24
ENDBRANCH   1  22
TORSDOF 7
