REMARK  Name = ZINC20831036
REMARK  14 active torsions:
REMARK  status: ('A' for Active; 'I' for Inactive)
REMARK    1  A    between atoms: C_1  and  C_2
REMARK    2  A    between atoms: C_5  and  N_8
REMARK    3  A    between atoms: N_8  and  C_9
REMARK    4  A    between atoms: C_9  and  C_10
REMARK    5  A    between atoms: C_13  and  S_18
REMARK    6  A    between atoms: N_14  and  C_15
REMARK    7  A    between atoms: C_15  and  C_16
REMARK    8  A    between atoms: S_18  and  C_19
REMARK    9  A    between atoms: C_19  and  C_20
REMARK   10  A    between atoms: N_22  and  C_23
REMARK   11  A    between atoms: C_25  and  C_31
REMARK   12  A    between atoms: C_25  and  C_32
REMARK   13  A    between atoms: C_27  and  C_29
REMARK   14  A    between atoms: C_27  and  C_30
REMARK                            x       y       z     vdW  Elec       q    Type
REMARK                         _______ _______ _______ _____ _____    ______ ____
ROOT
ATOM      1  C   UNL     1       0.965  -0.820   0.529  0.00  0.00    +0.152 A 
ATOM      2  N   UNL     1       0.595  -2.049   0.309  0.00  0.00    -0.132 NA
ATOM      3  N   UNL     1      -0.524  -2.067  -0.324  0.00  0.00    -0.122 NA
ATOM      4  C   UNL     1      -0.934  -0.838  -0.538  0.00  0.00    +0.192 A 
ATOM      5  N   UNL     1       0.002  -0.004   0.002  0.00  0.00    -0.301 N 
ENDROOT
BRANCH   1   6
ATOM      6  C   UNL     1       2.221  -0.378   1.235  0.00  0.00    +0.178 C 
BRANCH   6   7
ATOM      7  N   UNL     1       1.955  -0.251   2.670  0.00  0.00    -0.337 N 
ATOM      8  H   UNL     1       0.952  -0.470   3.065  0.00  0.00    +0.147 HD
BRANCH   7  13
ATOM      9  C   UNL     1       6.096   1.370   6.189  0.00  0.00    +0.044 C 
ATOM     10  C   UNL     1       4.996   0.939   5.254  0.00  0.00    -0.050 A 
ATOM     11  C   UNL     1       3.735   0.665   5.752  0.00  0.00    +0.005 A 
ATOM     12  C   UNL     1       2.724   0.270   4.898  0.00  0.00    +0.023 A 
ATOM     13  C   UNL     1       2.975   0.149   3.537  0.00  0.00    +0.027 A 
ATOM     14  C   UNL     1       4.244   0.420   3.040  0.00  0.00    +0.023 A 
ATOM     15  C   UNL     1       5.248   0.820   3.899  0.00  0.00    +0.005 A 
ENDBRANCH   7  13
ENDBRANCH   6   7
ENDBRANCH   1   6
BRANCH   5  16
ATOM     16  C   UNL     1      -0.018   1.461   0.010  0.00  0.00    +0.152 C 
BRANCH  16  17
ATOM     17  C   UNL     1      -0.723   1.947   1.250  0.00  0.00    -0.013 C 
ATOM     18  C   UNL     1      -0.122   2.782   2.060  0.00  0.00    +0.005 C 
ENDBRANCH  16  17
ENDBRANCH   5  16
BRANCH   4  19
ATOM     19  S   UNL     1      -2.413  -0.357  -1.366  0.00  0.00    -0.077 S 
BRANCH  19  20
ATOM     20  C   UNL     1      -3.091  -1.986  -1.771  0.00  0.00    +0.173 C 
BRANCH  20  21
ATOM     21  C   UNL     1      -4.396  -1.818  -2.506  0.00  0.00    +0.224 C 
ATOM     22  O   UNL     1      -4.826  -0.707  -2.732  0.00  0.00    -0.275 OA
ATOM     23  N   UNL     1      -5.086  -2.903  -2.910  0.00  0.00    -0.312 N 
ATOM     24  H   UNL     1      -4.696  -3.911  -2.704  0.00  0.00    +0.149 HD
BRANCH  23  25
ATOM     25  C   UNL     1      -6.358  -2.740  -3.625  0.00  0.00    +0.070 C 
ATOM     26  C   UNL     1      -7.493  -2.613  -2.610  0.00  0.00    +0.009 C 
ATOM     27  C   UNL     1      -8.832  -2.463  -3.328  0.00  0.00    -0.072 C 
ATOM     28  N   UNL     1      -9.036  -3.459  -4.359  0.00  0.00    +0.386 N 
ATOM     29  C   UNL     1      -7.942  -3.845  -5.226  0.00  0.00    -0.072 C 
ATOM     30  C   UNL     1      -6.613  -3.976  -4.487  0.00  0.00    +0.009 C 
ATOM     31  C   UNL     1      -7.785  -2.861  -6.392  0.00  0.00    -0.010 C 
ATOM     32  C   UNL     1      -8.274  -5.225  -5.836  0.00  0.00    -0.010 C 
ATOM     33  C   UNL     1      -8.953  -1.044  -3.896  0.00  0.00    -0.010 C 
ATOM     34  C   UNL     1      -9.947  -2.628  -2.271  0.00  0.00    -0.010 C 
ATOM     35  H   UNL     1      -9.352  -4.405  -3.897  0.00  0.00    -0.084 HD
ATOM     36  H   UNL     1      -9.813  -3.112  -5.055  0.00  0.00    -0.084 HD
ENDBRANCH  23  25
ENDBRANCH  20  21
ENDBRANCH  19  20
ENDBRANCH   4  19
TORSDOF 9
