REMARK  Name = ZINC39663830
REMARK  12 active torsions:
REMARK  status: ('A' for Active; 'I' for Inactive)
REMARK    1  A    between atoms: C_1  and  N_2
REMARK    2  A    between atoms: N_2  and  C_3
REMARK    3  A    between atoms: N_2  and  C_4
REMARK    4  A    between atoms: C_4  and  C_6
REMARK    5  A    between atoms: C_4  and  C_32
REMARK    6  A    between atoms: C_6  and  N_7
REMARK    7  A    between atoms: C_8  and  C_10
REMARK    8  A    between atoms: C_21  and  C_23
REMARK    9  A    between atoms: C_23  and  O_24
REMARK   10  A    between atoms: O_24  and  C_25
REMARK   11  A    between atoms: C_35  and  O_38
REMARK   12  A    between atoms: O_38  and  C_39
REMARK                            x       y       z     vdW  Elec       q    Type
REMARK                         _______ _______ _______ _____ _____    ______ ____
ROOT
ATOM      1  C   UNL     1      -0.840  -3.755   2.383  0.00  0.00    +0.100 C 
ATOM      2  C   UNL     1      -1.814  -3.210   3.452  0.00  0.00    +0.121 C 
ATOM      3  N   UNL     1      -2.706  -4.351   3.763  0.00  0.00    -0.297 N 
ATOM      4  C   UNL     1      -1.808  -5.531   3.762  0.00  0.00    +0.115 C 
ATOM      5  C   UNL     1      -0.837  -5.279   2.592  0.00  0.00    -0.004 C 
ATOM      6  C   UNL     1       0.565  -5.759   2.956  0.00  0.00    -0.010 C 
ATOM      7  C   UNL     1       0.555  -7.283   3.102  0.00  0.00    -0.082 C 
ATOM      8  N   UNL     1       0.119  -7.895   1.841  0.00  0.00    +0.379 N 
ATOM      9  C   UNL     1      -1.264  -7.501   1.546  0.00  0.00    -0.082 C 
ATOM     10  C   UNL     1      -1.332  -5.986   1.334  0.00  0.00    -0.010 C 
ATOM     11  C   UNL     1      -4.033  -4.323   3.995  0.00  0.00    +0.253 C 
ATOM     12  O   UNL     1      -4.628  -5.351   4.238  0.00  0.00    -0.272 OA
ATOM     13  H   UNL     1       0.722  -7.586   1.093  0.00  0.00    -0.086 HD
ATOM     14  H   UNL     1       0.172  -8.899   1.920  0.00  0.00    -0.086 HD
ENDROOT
BRANCH   1  16
ATOM     15  N   UNL     1      -0.457  -3.237  -0.005  0.00  0.00    -0.316 N 
ATOM     16  C   UNL     1      -1.336  -3.417   1.000  0.00  0.00    +0.218 C 
ATOM     17  O   UNL     1      -2.526  -3.306   0.793  0.00  0.00    -0.275 OA
ATOM     18  H   UNL     1       0.494  -3.325   0.160  0.00  0.00    +0.149 HD
BRANCH  15  19
ATOM     19  C   UNL     1      -0.939  -2.908  -1.349  0.00  0.00    +0.093 C 
BRANCH  19  20
ATOM     20  C   UNL     1       0.254  -2.739  -2.292  0.00  0.00    -0.021 C 
BRANCH  20  21
ATOM     21  C   UNL     1       0.954  -4.064  -2.458  0.00  0.00    -0.059 A 
ATOM     22  C   UNL     1       1.825  -4.511  -1.482  0.00  0.00    +0.005 A 
ATOM     23  C   UNL     1       2.468  -5.724  -1.632  0.00  0.00    +0.046 A 
ATOM     24  C   UNL     1       2.239  -6.495  -2.763  0.00  0.00    +0.120 A 
ATOM     25  C   UNL     1       1.364  -6.044  -3.741  0.00  0.00    +0.046 A 
ATOM     26  C   UNL     1       0.720  -4.832  -3.583  0.00  0.00    +0.005 A 
BRANCH  24  27
ATOM     27  O   UNL     1       2.870  -7.688  -2.913  0.00  0.00    -0.495 OA
ATOM     28  C   UNL     1       2.587  -8.428  -4.102  0.00  0.00    +0.277 C 
ENDBRANCH  24  27
ENDBRANCH  20  21
BRANCH  20  30
ATOM     29  C   UNL     1       2.327  -1.584  -2.640  0.00  0.00    -0.096 C 
ATOM     30  N   UNL     1       1.190  -1.758  -1.727  0.00  0.00    +0.382 N 
ATOM     31  C   UNL     1       0.503  -0.472  -1.549  0.00  0.00    -0.096 C 
ATOM     32  H   UNL     1       1.524  -2.088  -0.833  0.00  0.00    -0.082 HD
ENDBRANCH  20  30
ENDBRANCH  19  20
ENDBRANCH  15  19
ENDBRANCH   1  16
BRANCH  11  33
ATOM     33  C   UNL     1      -4.778  -3.014   3.951  0.00  0.00    +0.324 C 
BRANCH  33  34
ATOM     34  O   UNL     1      -6.161  -3.243   4.227  0.00  0.00    -0.483 OA
BRANCH  34  35
ATOM     35  C   UNL     1      -6.979  -2.157   4.227  0.00  0.00    +0.123 A 
ATOM     36  C   UNL     1      -6.461  -0.898   3.959  0.00  0.00    +0.046 A 
ATOM     37  C   UNL     1      -7.294   0.204   3.959  0.00  0.00    +0.005 A 
ATOM     38  C   UNL     1      -8.642   0.054   4.224  0.00  0.00    +0.020 A 
ATOM     39  C   UNL     1      -9.161  -1.200   4.491  0.00  0.00    +0.044 A 
ATOM     40  C   UNL     1      -8.333  -2.307   4.487  0.00  0.00    +0.065 A 
ATOM     41 CL   UNL     1     -10.855  -1.386   4.824  0.00  0.00    -0.083 Cl
ENDBRANCH  34  35
ENDBRANCH  33  34
ENDBRANCH  11  33
TORSDOF 9
