REMARK  Name = ZINC31003845
REMARK  13 active torsions:
REMARK  status: ('A' for Active; 'I' for Inactive)
REMARK    1  A    between atoms: C_1  and  C_2
REMARK    2  A    between atoms: C_2  and  C_3
REMARK    3  A    between atoms: C_3  and  N_4
REMARK    4  A    between atoms: N_4  and  C_5
REMARK    5  A    between atoms: N_4  and  C_18
REMARK    6  A    between atoms: C_5  and  C_6
REMARK    7  A    between atoms: C_6  and  O_7
REMARK    8  A    between atoms: O_7  and  C_8
REMARK    9  A    between atoms: C_11  and  S_14
REMARK   10  A    between atoms: S_14  and  N_17
REMARK   11  A    between atoms: C_18  and  C_19
REMARK   12  A    between atoms: N_21  and  C_22
REMARK   13  A    between atoms: C_27  and  C_28
REMARK                            x       y       z     vdW  Elec       q    Type
REMARK                         _______ _______ _______ _____ _____    ______ ____
ROOT
ATOM      1  N   UNL     1       1.757   5.808   0.943  0.00  0.00    +0.388 N 
ATOM      2  H   UNL     1       2.344   5.346   1.751  0.00  0.00    -0.081 HD
ENDROOT
BRANCH   1   3
ATOM      3  C   UNL     1       0.467   5.109   0.867  0.00  0.00    -0.078 C 
BRANCH   3   5
ATOM      4  C   UNL     1      -0.643   2.871   0.882  0.00  0.00    +0.002 C 
ATOM      5  C   UNL     1       0.692   3.604   1.027  0.00  0.00    -0.022 C 
ENDBRANCH   3   5
ENDBRANCH   1   3
BRANCH   1   6
ATOM      6  C   UNL     1       2.513   5.655  -0.307  0.00  0.00    -0.037 C 
BRANCH   6   7
ATOM      7  C   UNL     1       3.994   5.934  -0.045  0.00  0.00    +0.210 C 
BRANCH   7   8
ATOM      8  O   UNL     1       4.521   4.931   0.826  0.00  0.00    -0.494 OA
BRANCH   8   9
ATOM      9  C   UNL     1       5.852   4.985   1.095  0.00  0.00    +0.121 A 
ATOM     10  C   UNL     1       6.430   4.042   1.933  0.00  0.00    +0.047 A 
ATOM     11  C   UNL     1       7.783   4.098   2.205  0.00  0.00    +0.032 A 
ATOM     12  C   UNL     1       8.562   5.093   1.643  0.00  0.00    +0.105 A 
ATOM     13  C   UNL     1       7.988   6.034   0.807  0.00  0.00    +0.032 A 
ATOM     14  C   UNL     1       6.635   5.982   0.533  0.00  0.00    +0.047 A 
BRANCH  12  15
ATOM     15  S   UNL     1      10.287   5.162   1.991  0.00  0.00    +0.056 S 
ATOM     16  O   UNL     1      10.691   6.508   1.779  0.00  0.00    -0.153 OA
ATOM     17  O   UNL     1      10.478   4.497   3.232  0.00  0.00    -0.153 OA
BRANCH  15  18
ATOM     18  N   UNL     1      11.056   4.251   0.842  0.00  0.00    -0.204 NA
ATOM     19  H   UNL     1      12.141   4.268   1.026  0.00  0.00    +0.144 HD
ATOM     20  H   UNL     1      10.846   4.664  -0.155  0.00  0.00    +0.144 HD
ENDBRANCH  15  18
ENDBRANCH  12  15
ENDBRANCH   8   9
ENDBRANCH   7   8
ENDBRANCH   6   7
ENDBRANCH   1   6
BRANCH   1  21
ATOM     21  C   UNL     1       1.569   7.226   1.275  0.00  0.00    +0.019 C 
BRANCH  21  22
ATOM     22  C   UNL     1       1.014   7.346   2.671  0.00  0.00    +0.201 C 
ATOM     23  O   UNL     1       0.796   6.348   3.325  0.00  0.00    -0.278 OA
ATOM     24  N   UNL     1       0.758   8.562   3.193  0.00  0.00    -0.287 N 
ATOM     25  H   UNL     1       0.885   9.463   2.575  0.00  0.00    +0.155 HD
BRANCH  24  26
ATOM     26  C   UNL     1       0.332   8.678   4.520  0.00  0.00    +0.036 A 
ATOM     27  C   UNL     1      -0.406   7.658   5.106  0.00  0.00    +0.023 A 
ATOM     28  C   UNL     1      -0.821   7.774   6.418  0.00  0.00    +0.002 A 
ATOM     29  C   UNL     1      -0.512   8.909   7.145  0.00  0.00    +0.000 A 
ATOM     30  C   UNL     1       0.218   9.929   6.563  0.00  0.00    +0.005 A 
ATOM     31  C   UNL     1       0.640   9.817   5.253  0.00  0.00    -0.029 A 
ATOM     32  C   UNL     1       1.435  10.930   4.619  0.00  0.00    +0.045 C 
ENDBRANCH  24  26
ENDBRANCH  21  22
ENDBRANCH   1  21
TORSDOF 11
