REMARK  Name = ZINC51693005
REMARK  7 active torsions:
REMARK  status: ('A' for Active; 'I' for Inactive)
REMARK    1  A    between atoms: C_1  and  O_2
REMARK    2  A    between atoms: O_2  and  C_3
REMARK    3  A    between atoms: C_5  and  C_11
REMARK    4  A    between atoms: C_8  and  O_9
REMARK    5  A    between atoms: C_11  and  N_12
REMARK    6  A    between atoms: N_12  and  C_13
REMARK    7  A    between atoms: C_16  and  N_19
REMARK                            x       y       z     vdW  Elec       q    Type
REMARK                         _______ _______ _______ _____ _____    ______ ____
ROOT
ATOM      1  N   UNL     1       3.806   0.659  -3.903  0.00  0.00    +0.384 N 
ATOM      2  H   UNL     1       3.854   1.160  -3.028  0.00  0.00    -0.085 HD
ATOM      3  H   UNL     1       4.311  -0.211  -3.820  0.00  0.00    -0.085 HD
ENDROOT
BRANCH   1   4
ATOM      4  C   UNL     1       4.405   1.473  -4.968  0.00  0.00    -0.072 C 
ATOM      5  C   UNL     1       4.446   0.665  -6.267  0.00  0.00    -0.017 C 
ATOM      6  C   UNL     1       5.070   1.514  -7.376  0.00  0.00    -0.018 C 
ATOM      7  C   UNL     1       6.493   1.908  -6.977  0.00  0.00    -0.075 C 
ATOM      8  C   UNL     1       6.453   2.716  -5.678  0.00  0.00    -0.018 C 
ATOM      9  C   UNL     1       5.829   1.868  -4.569  0.00  0.00    -0.017 C 
BRANCH   7  10
ATOM     10  N   UNL     1       7.093   2.723  -8.042  0.00  0.00    +0.380 N 
ATOM     11  H   UNL     1       6.540   3.555  -8.181  0.00  0.00    -0.090 HD
ATOM     12  H   UNL     1       8.032   2.983  -7.779  0.00  0.00    -0.090 HD
ATOM     13  H   UNL     1       7.119   2.190  -8.898  0.00  0.00    -0.090 HD
ENDBRANCH   7  10
ENDBRANCH   1   4
BRANCH   1  14
ATOM     14  C   UNL     1       2.401   0.380  -4.231  0.00  0.00    -0.046 C 
BRANCH  14  17
ATOM     15  C   UNL     1       0.606  -0.608  -1.056  0.00  0.00    +0.163 A 
ATOM     16  C   UNL     1       1.173   0.159  -2.062  0.00  0.00    +0.051 A 
ATOM     17  C   UNL     1       1.786  -0.455  -3.138  0.00  0.00    -0.060 A 
ATOM     18  C   UNL     1       1.836  -1.835  -3.214  0.00  0.00    +0.021 A 
ATOM     19  C   UNL     1       1.273  -2.606  -2.213  0.00  0.00    +0.063 A 
ATOM     20  C   UNL     1       0.662  -1.996  -1.129  0.00  0.00    +0.173 A 
ATOM     21 BR   UNL     1       1.342  -4.493  -2.321  0.00  0.00    -0.046 Br
BRANCH  15  23
ATOM     22  C   UNL     1      -0.017   1.425   0.010  0.00  0.00    +0.277 C 
ATOM     23  O   UNL     1       0.002  -0.004   0.002  0.00  0.00    -0.491 OA
ENDBRANCH  15  23
BRANCH  20  24
ATOM     24  O   UNL     1       0.112  -2.752  -0.141  0.00  0.00    -0.503 OA
ATOM     25  H   UNL     1      -0.816  -2.979  -0.290  0.00  0.00    +0.292 HD
ENDBRANCH  20  24
ENDBRANCH  14  17
ENDBRANCH   1  14
TORSDOF 6
