REMARK  Name = ZINC28059517
REMARK  6 active torsions:
REMARK  status: ('A' for Active; 'I' for Inactive)
REMARK    1  A    between atoms: C_1  and  O_2
REMARK    2  A    between atoms: O_2  and  C_3
REMARK    3  A    between atoms: C_6  and  C_11
REMARK    4  A    between atoms: C_8  and  O_9
REMARK    5  A    between atoms: O_9  and  C_10
REMARK    6  A    between atoms: C_22  and  C_24
REMARK                            x       y       z     vdW  Elec       q    Type
REMARK                         _______ _______ _______ _____ _____    ______ ____
ROOT
ATOM      1  C   UNL     1       0.312   1.279  -0.021  0.00  0.00    +0.174 C 
ATOM      2  C   UNL     1       0.093  -0.213  -0.035  0.00  0.00    +0.025 C 
ATOM      3  C   UNL     1       1.065  -1.076  -0.340  0.00  0.00    +0.050 C 
ATOM      4  C   UNL     1       0.747  -2.524  -0.345  0.00  0.00    +0.038 A 
ATOM      5  C   UNL     1       1.747  -3.488  -0.317  0.00  0.00    +0.013 A 
ATOM      6  C   UNL     1       1.403  -4.826  -0.324  0.00  0.00    +0.001 A 
ATOM      7  C   UNL     1       0.073  -5.206  -0.359  0.00  0.00    +0.004 A 
ATOM      8  C   UNL     1      -0.929  -4.252  -0.387  0.00  0.00    +0.046 A 
ATOM      9  C   UNL     1      -0.600  -2.910  -0.379  0.00  0.00    +0.131 A 
ATOM     10  O   UNL     1      -1.553  -1.944  -0.400  0.00  0.00    -0.479 OA
ATOM     11  C   UNL     1      -1.277  -0.744   0.322  0.00  0.00    +0.234 C 
ATOM     12  N   UNL     1       2.366  -0.659  -0.646  0.00  0.00    -0.282 N 
ATOM     13  C   UNL     1       2.692   0.659  -0.372  0.00  0.00    +0.240 A 
ATOM     14  N   UNL     1       1.736   1.577  -0.072  0.00  0.00    -0.201 N 
ATOM     15  N   UNL     1       2.424   2.770   0.150  0.00  0.00    -0.042 NA
ATOM     16  N   UNL     1       3.679   2.510  -0.027  0.00  0.00    -0.021 NA
ATOM     17  N   UNL     1       3.842   1.269  -0.336  0.00  0.00    -0.092 NA
ATOM     18  H   UNL     1       3.081  -1.368  -1.087  0.00  0.00    +0.155 HD
ENDROOT
BRANCH  11  19
ATOM     19  C   UNL     1      -1.331  -1.029   1.800  0.00  0.00    -0.003 A 
ATOM     20  C   UNL     1      -0.711  -2.155   2.310  0.00  0.00    +0.008 A 
ATOM     21  C   UNL     1      -0.756  -2.414   3.667  0.00  0.00    +0.015 A 
ATOM     22  C   UNL     1      -1.429  -1.552   4.514  0.00  0.00    +0.018 A 
ATOM     23  C   UNL     1      -2.053  -0.428   4.003  0.00  0.00    +0.015 A 
ATOM     24  C   UNL     1      -2.003  -0.167   2.646  0.00  0.00    +0.008 A 
ATOM     25 BR   UNL     1      -1.497  -1.911   6.369  0.00  0.00    -0.050 Br
ENDBRANCH  11  19
BRANCH   1  29
ATOM     26  C   UNL     1      -1.620   3.025  -3.414  0.00  0.00    +0.162 A 
ATOM     27  C   UNL     1      -0.626   2.076  -3.591  0.00  0.00    +0.050 A 
ATOM     28  C   UNL     1       0.001   1.517  -2.493  0.00  0.00    +0.010 A 
ATOM     29  C   UNL     1      -0.370   1.895  -1.215  0.00  0.00    -0.015 A 
ATOM     30  C   UNL     1      -1.361   2.842  -1.032  0.00  0.00    +0.055 A 
ATOM     31  C   UNL     1      -1.989   3.409  -2.128  0.00  0.00    +0.162 A 
BRANCH  26  33
ATOM     32  C   UNL     1      -1.804   3.136  -5.782  0.00  0.00    +0.277 C 
ATOM     33  O   UNL     1      -2.234   3.578  -4.494  0.00  0.00    -0.491 OA
ENDBRANCH  26  33
BRANCH  31  34
ATOM     34  O   UNL     1      -2.964   4.340  -1.949  0.00  0.00    -0.491 OA
ATOM     35  C   UNL     1      -3.291   4.686  -0.602  0.00  0.00    +0.277 C 
ENDBRANCH  31  34
ENDBRANCH   1  29
TORSDOF 4
