REMARK  Name = ZINC02129134
REMARK  7 active torsions:
REMARK  status: ('A' for Active; 'I' for Inactive)
REMARK    1  A    between atoms: C_1  and  C_2
REMARK    2  A    between atoms: C_16  and  C_18
REMARK    3  A    between atoms: C_18  and  C_19
REMARK    4  A    between atoms: N_24  and  C_27
REMARK    5  A    between atoms: C_27  and  C_28
REMARK    6  A    between atoms: C_33  and  O_34
REMARK    7  A    between atoms: O_34  and  C_35
REMARK                            x       y       z     vdW  Elec       q    Type
REMARK                         _______ _______ _______ _____ _____    ______ ____
ROOT
ATOM      1  C   UNL     1       5.642   4.412   3.123  0.00  0.00    +0.045 C 
ATOM      2  C   UNL     1       5.582   3.251   2.164  0.00  0.00    -0.029 A 
ATOM      3  C   UNL     1       6.678   2.948   1.383  0.00  0.00    +0.005 A 
ATOM      4  C   UNL     1       6.632   1.886   0.499  0.00  0.00    +0.001 A 
ATOM      5  C   UNL     1       5.482   1.123   0.398  0.00  0.00    +0.004 A 
ATOM      6  C   UNL     1       4.386   1.421   1.176  0.00  0.00    -0.027 A 
ATOM      7  C   UNL     1       4.421   2.488   2.070  0.00  0.00    +0.039 A 
ATOM      8  N   UNL     1       3.202   2.594   2.743  0.00  0.00    -0.286 N 
ATOM      9  C   UNL     1       2.324   1.648   2.356  0.00  0.00    +0.211 C 
ATOM     10  O   UNL     1       1.193   1.498   2.768  0.00  0.00    -0.277 OA
ATOM     11  C   UNL     1       3.019   0.815   1.314  0.00  0.00    +0.050 C 
ATOM     12  C   UNL     1       2.257   0.832  -0.016  0.00  0.00    +0.088 C 
ATOM     13  C   UNL     1       1.435  -0.487  -0.014  0.00  0.00    +0.073 C 
ATOM     14  C   UNL     1       1.759  -1.153   1.341  0.00  0.00    -0.049 C 
ATOM     15  C   UNL     1       0.002  -0.004   0.002  0.00  0.00    +0.224 C 
ATOM     16  O   UNL     1      -0.978  -0.718   0.007  0.00  0.00    -0.275 OA
ATOM     17  N   UNL     1      -0.016   1.334   0.009  0.00  0.00    -0.237 N 
ATOM     18  C   UNL     1       1.193   1.906   0.001  0.00  0.00    +0.225 C 
ATOM     19  O   UNL     1       1.404   3.100   0.006  0.00  0.00    -0.275 OA
ATOM     20  H   UNL     1       3.010   3.269   3.412  0.00  0.00    +0.155 HD
ATOM     21  N   UNL     1       3.064  -0.583   1.703  0.00  0.00    +0.394 N 
ATOM     22  H   UNL     1       3.219  -0.665   2.715  0.00  0.00    -0.083 HD
ATOM     23  H   UNL     1       3.816  -1.068   1.201  0.00  0.00    -0.083 HD
ENDROOT
BRANCH  14  24
ATOM     24  C   UNL     1       1.854  -2.671   1.178  0.00  0.00    +0.080 C 
BRANCH  24  25
ATOM     25  C   UNL     1       2.049  -3.310   2.529  0.00  0.00    +0.209 C 
ATOM     26  O   UNL     1       2.106  -2.619   3.524  0.00  0.00    -0.276 OA
ATOM     27  N   UNL     1       2.160  -4.649   2.632  0.00  0.00    -0.329 N 
ATOM     28  H   UNL     1       2.114  -5.202   1.836  0.00  0.00    +0.145 HD
ATOM     29  H   UNL     1       2.285  -5.060   3.502  0.00  0.00    +0.145 HD
ENDBRANCH  24  25
ENDBRANCH  14  24
BRANCH  17  30
ATOM     30  C   UNL     1      -1.259   2.109   0.020  0.00  0.00    +0.155 C 
BRANCH  30  31
ATOM     31  C   UNL     1      -1.678   2.368   1.444  0.00  0.00    +0.012 A 
ATOM     32  C   UNL     1      -2.660   1.591   2.028  0.00  0.00    +0.009 A 
ATOM     33  C   UNL     1      -3.044   1.827   3.334  0.00  0.00    +0.001 A 
ATOM     34  C   UNL     1      -2.447   2.841   4.061  0.00  0.00    +0.004 A 
ATOM     35  C   UNL     1      -1.465   3.621   3.482  0.00  0.00    +0.046 A 
ATOM     36  C   UNL     1      -1.074   3.382   2.172  0.00  0.00    +0.125 A 
BRANCH  36  37
ATOM     37  O   UNL     1      -0.103   4.144   1.602  0.00  0.00    -0.495 OA
ATOM     38  C   UNL     1       0.474   5.171   2.411  0.00  0.00    +0.277 C 
ENDBRANCH  36  37
ENDBRANCH  30  31
ENDBRANCH  17  30
TORSDOF 5
