REMARK  Name = ZINC60361138
REMARK  10 active torsions:
REMARK  status: ('A' for Active; 'I' for Inactive)
REMARK    1  A    between atoms: C_1  and  C_2
REMARK    2  A    between atoms: C_2  and  C_3
REMARK    3  A    between atoms: C_2  and  C_4
REMARK    4  A    between atoms: N_6  and  C_7
REMARK    5  A    between atoms: C_7  and  C_8
REMARK    6  A    between atoms: N_13  and  C_15
REMARK    7  A    between atoms: C_15  and  C_16
REMARK    8  A    between atoms: N_18  and  C_19
REMARK    9  A    between atoms: C_20  and  C_34
REMARK   10  A    between atoms: N_23  and  C_24
REMARK                            x       y       z     vdW  Elec       q    Type
REMARK                         _______ _______ _______ _____ _____    ______ ____
ROOT
ATOM      1  C   UNL     1      -6.094  -7.740  -1.026  0.00  0.00    +0.202 C 
ATOM      2  O   UNL     1      -5.164  -8.155  -1.684  0.00  0.00    -0.278 OA
ATOM      3  N   UNL     1      -6.983  -8.602  -0.495  0.00  0.00    -0.272 N 
ATOM      4  H   UNL     1      -7.683  -8.277   0.092  0.00  0.00    +0.156 HD
ENDROOT
BRANCH   3   5
ATOM      5  C   UNL     1      -6.897  -9.955  -0.789  0.00  0.00    +0.128 A 
ATOM      6  C   UNL     1      -7.740 -10.663  -1.638  0.00  0.00    +0.095 A 
ATOM      7  C   UNL     1      -7.253 -12.041  -1.625  0.00  0.00    -0.007 A 
ATOM      8  C   UNL     1      -6.189 -12.078  -0.801  0.00  0.00    +0.030 A 
ATOM      9  N   UNL     1      -5.968 -10.824  -0.301  0.00  0.00    -0.300 N 
ATOM     10  C   UNL     1      -5.396 -13.331  -0.512  0.00  0.00    +0.054 C 
ATOM     11  C   UNL     1      -6.231 -14.543  -0.941  0.00  0.00    +0.006 C 
ATOM     12  C   UNL     1      -6.740 -14.335  -2.369  0.00  0.00    +0.005 C 
ATOM     13  C   UNL     1      -7.802 -13.227  -2.373  0.00  0.00    +0.038 C 
BRANCH   9  14
ATOM     14  C   UNL     1      -4.937 -10.482   0.586  0.00  0.00    +0.048 A 
ATOM     15  C   UNL     1      -3.614 -10.536   0.168  0.00  0.00    +0.026 A 
ATOM     16  C   UNL     1      -2.601 -10.198   1.044  0.00  0.00    +0.002 A 
ATOM     17  C   UNL     1      -2.904  -9.809   2.336  0.00  0.00    +0.000 A 
ATOM     18  C   UNL     1      -4.221  -9.755   2.755  0.00  0.00    +0.002 A 
ATOM     19  C   UNL     1      -5.238 -10.085   1.881  0.00  0.00    +0.026 A 
ENDBRANCH   9  14
BRANCH   6  20
ATOM     20  C   UNL     1      -8.856 -10.148  -2.373  0.00  0.00    +0.103 C 
ATOM     21  N   UNL     1      -9.741  -9.740  -2.956  0.00  0.00    -0.191 NA
ENDBRANCH   6  20
ENDBRANCH   3   5
BRANCH   1  22
ATOM     22  C   UNL     1      -6.257  -6.258  -0.804  0.00  0.00    +0.019 C 
BRANCH  22  27
ATOM     23  C   UNL     1      -4.312  -3.341  -2.143  0.00  0.00    -0.011 C 
ATOM     24  C   UNL     1      -2.942  -3.688  -1.553  0.00  0.00    +0.001 C 
ATOM     25  C   UNL     1      -2.744  -5.206  -1.603  0.00  0.00    -0.018 C 
ATOM     26  C   UNL     1      -3.889  -5.889  -0.852  0.00  0.00    -0.078 C 
ATOM     27  N   UNL     1      -5.169  -5.539  -1.480  0.00  0.00    +0.386 N 
ATOM     28  C   UNL     1      -5.399  -4.093  -1.372  0.00  0.00    -0.073 C 
ATOM     29  H   UNL     1      -5.148  -5.803  -2.453  0.00  0.00    -0.081 HD
BRANCH  23  30
ATOM     30  C   UNL     1      -4.552  -1.835  -2.026  0.00  0.00    +0.106 C 
BRANCH  30  33
ATOM     31  C   UNL     1      -3.603   0.227  -2.912  0.00  0.00    +0.216 C 
ATOM     32  O   UNL     1      -4.426   0.847  -2.272  0.00  0.00    -0.276 OA
ATOM     33  N   UNL     1      -3.582  -1.119  -2.859  0.00  0.00    -0.315 N 
ATOM     34  H   UNL     1      -2.924  -1.615  -3.371  0.00  0.00    +0.149 HD
BRANCH  31  36
ATOM     35  C   UNL     1      -2.846   2.469  -3.652  0.00  0.00    +0.017 C 
ATOM     36  C   UNL     1      -2.606   0.963  -3.769  0.00  0.00    +0.069 C 
ATOM     37  C   UNL     1      -1.188   0.634  -3.297  0.00  0.00    +0.017 C 
ENDBRANCH  31  36
ENDBRANCH  30  33
ENDBRANCH  23  30
ENDBRANCH  22  27
ENDBRANCH   1  22
TORSDOF 8
