REMARK  Name = ZINC63348722
REMARK  8 active torsions:
REMARK  status: ('A' for Active; 'I' for Inactive)
REMARK    1  A    between atoms: C_4  and  C_7
REMARK    2  A    between atoms: C_7  and  C_9
REMARK    3  A    between atoms: C_7  and  S_23
REMARK    4  A    between atoms: N_11  and  C_12
REMARK    5  A    between atoms: C_12  and  C_13
REMARK    6  A    between atoms: C_16  and  S_19
REMARK    7  A    between atoms: S_19  and  N_22
REMARK    8  A    between atoms: S_23  and  C_24
REMARK                            x       y       z     vdW  Elec       q    Type
REMARK                         _______ _______ _______ _____ _____    ______ ____
ROOT
ATOM      1  C   UNL     1       3.711  -0.707  -0.038  0.00  0.00    +0.166 C 
ENDROOT
BRANCH   1   5
ATOM      2  C   UNL     1      -0.017   1.378   0.010  0.00  0.00    +0.000 A 
ATOM      3  C   UNL     1       1.171   2.086   0.002  0.00  0.00    +0.000 A 
ATOM      4  C   UNL     1       2.377   1.411  -0.013  0.00  0.00    +0.005 A 
ATOM      5  C   UNL     1       2.396   0.029  -0.020  0.00  0.00    -0.026 A 
ATOM      6  C   UNL     1       1.208  -0.679  -0.012  0.00  0.00    +0.005 A 
ATOM      7  C   UNL     1       0.002  -0.004   0.002  0.00  0.00    +0.000 A 
ENDBRANCH   1   5
BRANCH   1   8
ATOM      8  C   UNL     1       3.816  -1.579   1.188  0.00  0.00    +0.231 C 
ATOM      9  O   UNL     1       3.579  -2.765   1.109  0.00  0.00    -0.274 OA
ATOM     10  N   UNL     1       4.172  -1.039   2.370  0.00  0.00    -0.310 N 
ATOM     11  H   UNL     1       4.361  -0.089   2.433  0.00  0.00    +0.149 HD
BRANCH  10  12
ATOM     12  C   UNL     1       4.273  -1.886   3.561  0.00  0.00    +0.139 C 
BRANCH  12  13
ATOM     13  C   UNL     1       4.685  -1.045   4.742  0.00  0.00    -0.030 A 
ATOM     14  C   UNL     1       6.025  -0.867   5.031  0.00  0.00    +0.007 A 
ATOM     15  C   UNL     1       6.402  -0.096   6.114  0.00  0.00    +0.029 A 
ATOM     16  C   UNL     1       5.439   0.498   6.908  0.00  0.00    +0.105 A 
ATOM     17  C   UNL     1       4.099   0.322   6.619  0.00  0.00    +0.029 A 
ATOM     18  C   UNL     1       3.722  -0.446   5.533  0.00  0.00    +0.007 A 
BRANCH  16  19
ATOM     19  S   UNL     1       5.920   1.480   8.290  0.00  0.00    +0.056 S 
ATOM     20  O   UNL     1       4.823   1.477   9.192  0.00  0.00    -0.153 OA
ATOM     21  O   UNL     1       7.218   1.042   8.667  0.00  0.00    -0.153 OA
BRANCH  19  22
ATOM     22  N   UNL     1       6.085   3.038   7.750  0.00  0.00    -0.204 NA
ATOM     23  H   UNL     1       5.914   3.780   8.351  0.00  0.00    +0.144 HD
ATOM     24  H   UNL     1       6.351   3.207   6.833  0.00  0.00    +0.144 HD
ENDBRANCH  19  22
ENDBRANCH  16  19
ENDBRANCH  12  13
ENDBRANCH  10  12
ENDBRANCH   1   8
BRANCH   1  25
ATOM     25  S   UNL     1       3.806  -1.741  -1.525  0.00  0.00    -0.097 S 
BRANCH  25  26
ATOM     26  C   UNL     1       3.820  -0.546  -2.890  0.00  0.00    +0.236 C 
ATOM     27  N   UNL     1       4.939   0.390  -2.728  0.00  0.00    -0.355 N 
ATOM     28  C   UNL     1       4.436   1.586  -2.622  0.00  0.00    +0.061 A 
ATOM     29  C   UNL     1       5.042   2.913  -2.444  0.00  0.00    +0.027 A 
ATOM     30  C   UNL     1       4.249   4.000  -2.364  0.00  0.00    +0.002 A 
ATOM     31  C   UNL     1       2.848   3.925  -2.446  0.00  0.00    +0.002 A 
ATOM     32  C   UNL     1       2.191   2.759  -2.609  0.00  0.00    +0.027 A 
ATOM     33  C   UNL     1       2.952   1.506  -2.708  0.00  0.00    +0.061 A 
ATOM     34  N   UNL     1       2.595   0.263  -2.864  0.00  0.00    -0.355 N 
ATOM     35  H   UNL     1       5.881   0.160  -2.705  0.00  0.00    +0.162 HD
ATOM     36  H   UNL     1       1.687  -0.067  -2.947  0.00  0.00    +0.162 HD
ENDBRANCH  25  26
ENDBRANCH   1  25
TORSDOF 8
