REMARK  Name = ZINC03815585
REMARK  9 active torsions:
REMARK  status: ('A' for Active; 'I' for Inactive)
REMARK    1  A    between atoms: C_3  and  C_20
REMARK    2  A    between atoms: C_5  and  C_7
REMARK    3  A    between atoms: C_7  and  C_9
REMARK    4  A    between atoms: C_7  and  C_18
REMARK    5  A    between atoms: C_9  and  C_10
REMARK    6  A    between atoms: C_10  and  C_11
REMARK    7  A    between atoms: C_11  and  N_12
REMARK    8  A    between atoms: N_12  and  C_13
REMARK    9  A    between atoms: C_24  and  C_26
REMARK                            x       y       z     vdW  Elec       q    Type
REMARK                         _______ _______ _______ _____ _____    ______ ____
ROOT
ATOM      1  C   UNL     1     -11.130   0.710   1.854  0.00  0.00    +0.001 A 
ATOM      2  C   UNL     1     -11.667   1.231   0.695  0.00  0.00    +0.008 A 
ATOM      3  C   UNL     1     -10.966   2.199  -0.021  0.00  0.00    -0.018 A 
ATOM      4  C   UNL     1      -9.725   2.635   0.440  0.00  0.00    +0.013 A 
ATOM      5  C   UNL     1      -9.198   2.107   1.601  0.00  0.00    -0.033 A 
ATOM      6  C   UNL     1      -9.896   1.142   2.304  0.00  0.00    +0.004 A 
ENDROOT
BRANCH   3   7
ATOM      7  C   UNL     1     -11.538   2.764  -1.268  0.00  0.00    -0.017 A 
ATOM      8  C   UNL     1     -10.837   3.737  -1.980  0.00  0.00    +0.008 A 
ATOM      9  C   UNL     1     -11.365   4.260  -3.144  0.00  0.00    +0.001 A 
ATOM     10  C   UNL     1     -12.594   3.831  -3.604  0.00  0.00    +0.011 A 
ATOM     11  C   UNL     1     -13.307   2.862  -2.898  0.00  0.00    +0.013 A 
ATOM     12  C   UNL     1     -12.776   2.328  -1.726  0.00  0.00    +0.019 A 
BRANCH  11  13
ATOM     13  C   UNL     1     -14.625   2.403  -3.393  0.00  0.00    +0.094 C 
ATOM     14  N   UNL     1     -15.149   2.933  -4.551  0.00  0.00    -0.345 N 
ATOM     15  H   UNL     1     -16.161   1.133  -2.975  0.00  0.00    +0.157 HD
ATOM     16  H   UNL     1     -14.654   3.606  -5.044  0.00  0.00    +0.144 HD
ATOM     17  H   UNL     1     -16.012   2.632  -4.875  0.00  0.00    +0.144 HD
ATOM     18  N   UNL     1     -15.250   1.482  -2.675  0.00  0.00    -0.387 N 
ATOM     19  H   UNL     1     -14.818   1.118  -1.818  0.00  0.00    +0.157 HD
ENDBRANCH  11  13
ENDBRANCH   3   7
BRANCH   5  20
ATOM     20  C   UNL     1      -7.856   2.578   2.100  0.00  0.00    +0.132 C 
BRANCH  20  21
ATOM     21  C   UNL     1      -8.013   3.177   3.473  0.00  0.00    +0.363 C 
ATOM     22  O   UNL     1      -7.415   2.704   4.411  0.00  0.00    -0.246 OA
ATOM     23  O   UNL     1      -8.817   4.236   3.656  0.00  0.00    -0.246 OA
ENDBRANCH  20  21
BRANCH  20  24
ATOM     24  C   UNL     1      -6.892   1.391   2.168  0.00  0.00    +0.021 C 
BRANCH  24  25
ATOM     25  C   UNL     1      -5.498   1.889   2.554  0.00  0.00    +0.020 C 
BRANCH  25  26
ATOM     26  C   UNL     1      -4.534   0.702   2.622  0.00  0.00    +0.101 C 
BRANCH  26  27
ATOM     27  N   UNL     1      -3.199   1.179   2.993  0.00  0.00    -0.344 N 
ATOM     28  H   UNL     1      -3.047   2.123   3.151  0.00  0.00    +0.146 HD
BRANCH  27  29
ATOM     29  C   UNL     1      -2.148   0.275   3.118  0.00  0.00    +0.030 A 
ATOM     30  C   UNL     1      -2.344  -1.087   2.890  0.00  0.00    +0.040 A 
ATOM     31  C   UNL     1      -1.278  -1.950   3.029  0.00  0.00    +0.084 A 
ATOM     32  C   UNL     1       0.145  -0.219   3.583  0.00  0.00    +0.084 A 
ATOM     33  C   UNL     1      -0.870   0.708   3.469  0.00  0.00    +0.040 A 
ATOM     34  N   UNL     1      -0.021  -1.553   3.371  0.00  0.00    -0.367 N 
ATOM     35  H   UNL     1       0.754  -2.220   3.463  0.00  0.00    +0.165 HD
ENDBRANCH  27  29
ENDBRANCH  26  27
ENDBRANCH  25  26
ENDBRANCH  24  25
ENDBRANCH  20  24
ENDBRANCH   5  20
TORSDOF 9
