REMARK  Name = ZINC43920956
REMARK  8 active torsions:
REMARK  status: ('A' for Active; 'I' for Inactive)
REMARK    1  A    between atoms: C_1  and  C_2
REMARK    2  A    between atoms: C_6  and  C_20
REMARK    3  A    between atoms: N_11  and  C_13
REMARK    4  A    between atoms: N_22  and  C_23
REMARK    5  A    between atoms: C_23  and  C_24
REMARK    6  A    between atoms: C_24  and  N_25
REMARK    7  A    between atoms: N_25  and  C_26
REMARK    8  A    between atoms: N_25  and  C_27
REMARK                            x       y       z     vdW  Elec       q    Type
REMARK                         _______ _______ _______ _____ _____    ______ ____
ROOT
ATOM      1  C   UNL     1       0.013   1.502   0.011  0.00  0.00    +0.068 C 
ATOM      2  C   UNL     1       0.018  -0.005   0.002  0.00  0.00    +0.073 A 
ATOM      3  C   UNL     1       0.015  -0.825  -1.145  0.00  0.00    +0.087 A 
ATOM      4  C   UNL     1       0.008  -0.553  -2.587  0.00  0.00    +0.205 A 
ATOM      5  O   UNL     1       0.002   0.587  -3.019  0.00  0.00    -0.286 OA
ATOM      6  C   UNL     1       0.008  -1.716  -3.491  0.00  0.00    +0.100 A 
ATOM      7  C   UNL     1       0.015  -2.980  -2.941  0.00  0.00    +0.101 A 
ATOM      8  N   UNL     1       0.021  -3.177  -1.615  0.00  0.00    -0.345 N 
ATOM      9  H   UNL     1       0.026  -4.088  -1.282  0.00  0.00    +0.167 HD
ATOM     10  C   UNL     1       0.022  -2.150  -0.711  0.00  0.00    +0.146 A 
ATOM     11  N   UNL     1       0.028  -2.115   0.648  0.00  0.00    -0.216 N 
ATOM     12  N   UNL     1       0.030  -0.775   1.054  0.00  0.00    -0.169 NA
ENDROOT
BRANCH  11  13
ATOM     13  C   UNL     1       0.036  -3.230   1.498  0.00  0.00    +0.068 A 
ATOM     14  C   UNL     1      -0.647  -4.384   1.137  0.00  0.00    +0.030 A 
ATOM     15  C   UNL     1      -0.638  -5.481   1.975  0.00  0.00    +0.040 A 
ATOM     16  C   UNL     1       0.051  -5.431   3.175  0.00  0.00    +0.124 A 
ATOM     17  C   UNL     1       0.732  -4.281   3.538  0.00  0.00    +0.040 A 
ATOM     18  C   UNL     1       0.731  -3.184   2.699  0.00  0.00    +0.030 A 
ATOM     19  F   UNL     1       0.058  -6.506   3.994  0.00  0.00    -0.205 F 
ENDBRANCH  11  13
BRANCH   6  20
ATOM     20  C   UNL     1       0.000  -1.532  -4.951  0.00  0.00    +0.249 C 
ATOM     21  O   UNL     1       0.104  -2.495  -5.686  0.00  0.00    -0.270 OA
ATOM     22  N   UNL     1      -0.121  -0.296  -5.473  0.00  0.00    -0.313 N 
ATOM     23  H   UNL     1      -0.130   0.479  -4.890  0.00  0.00    +0.149 HD
BRANCH  22  24
ATOM     24  C   UNL     1      -0.241  -0.122  -6.923  0.00  0.00    +0.086 C 
BRANCH  24  25
ATOM     25  C   UNL     1      -0.365   1.368  -7.250  0.00  0.00    -0.061 C 
BRANCH  25  26
ATOM     26  N   UNL     1      -0.485   1.542  -8.703  0.00  0.00    +0.377 N 
ATOM     27  C   UNL     1      -0.724   2.959  -9.009  0.00  0.00    -0.097 C 
ATOM     28  C   UNL     1       0.757   1.104  -9.354  0.00  0.00    -0.097 C 
ATOM     29  H   UNL     1      -1.257   0.990  -9.046  0.00  0.00    -0.083 HD
ENDBRANCH  25  26
ENDBRANCH  24  25
ENDBRANCH  22  24
ENDBRANCH   6  20
TORSDOF 5
