REMARK  Name = ZINC43091880
REMARK  7 active torsions:
REMARK  status: ('A' for Active; 'I' for Inactive)
REMARK    1  A    between atoms: C_5  and  C_7
REMARK    2  A    between atoms: C_7  and  C_9
REMARK    3  A    between atoms: C_7  and  N_11
REMARK    4  A    between atoms: C_9  and  N_10
REMARK    5  A    between atoms: N_14  and  C_17
REMARK    6  A    between atoms: C_17  and  C_18
REMARK    7  A    between atoms: C_18  and  O_19
REMARK                            x       y       z     vdW  Elec       q    Type
REMARK                         _______ _______ _______ _____ _____    ______ ____
ROOT
ATOM      1  C   UNL     1       1.185  -2.239  -0.004  0.00  0.00    +0.071 C 
ENDROOT
BRANCH   1   6
ATOM      2  C   UNL     1       0.269   1.421  -0.132  0.00  0.00    +0.000 A 
ATOM      3  C   UNL     1       1.512   2.013  -0.260  0.00  0.00    +0.001 A 
ATOM      4  C   UNL     1       2.650   1.229  -0.304  0.00  0.00    +0.015 A 
ATOM      5  C   UNL     1       2.544  -0.148  -0.222  0.00  0.00    +0.022 A 
ATOM      6  C   UNL     1       1.300  -0.739  -0.094  0.00  0.00    -0.018 A 
ATOM      7  C   UNL     1       0.163   0.046  -0.050  0.00  0.00    +0.006 A 
ATOM      8 BR   UNL     1       4.100  -1.221  -0.283  0.00  0.00    -0.050 Br
ENDBRANCH   1   6
BRANCH   1   9
ATOM      9  N   UNL     1      -0.145  -2.656  -0.468  0.00  0.00    -0.295 NA
ATOM     10  C   UNL     1      -0.360  -4.090  -0.228  0.00  0.00    +0.100 C 
ATOM     11  C   UNL     1      -1.783  -4.467  -0.650  0.00  0.00    +0.100 C 
ATOM     12  N   UNL     1      -1.973  -4.139  -2.070  0.00  0.00    -0.298 NA
ATOM     13  C   UNL     1      -1.758  -2.705  -2.309  0.00  0.00    +0.100 C 
ATOM     14  C   UNL     1      -0.336  -2.328  -1.887  0.00  0.00    +0.100 C 
BRANCH  12  15
ATOM     15  C   UNL     1      -3.303  -4.556  -2.533  0.00  0.00    +0.112 C 
BRANCH  15  16
ATOM     16  C   UNL     1      -3.376  -4.430  -4.056  0.00  0.00    +0.171 C 
BRANCH  16  17
ATOM     17  O   UNL     1      -2.461  -5.350  -4.654  0.00  0.00    -0.394 OA
ATOM     18  H   UNL     1      -2.454  -5.325  -5.621  0.00  0.00    +0.209 HD
ENDBRANCH  16  17
ENDBRANCH  15  16
ENDBRANCH  12  15
ENDBRANCH   1   9
BRANCH   1  19
ATOM     19  C   UNL     1       1.381  -2.680   1.448  0.00  0.00    -0.063 C 
BRANCH  19  20
ATOM     20  N   UNL     1       0.276  -2.167   2.268  0.00  0.00    +0.379 N 
ATOM     21  H   UNL     1       0.235  -1.162   2.188  0.00  0.00    -0.090 HD
ATOM     22  H   UNL     1      -0.594  -2.565   1.948  0.00  0.00    -0.090 HD
ATOM     23  H   UNL     1       0.427  -2.421   3.233  0.00  0.00    -0.090 HD
ENDBRANCH  19  20
ENDBRANCH   1  19
TORSDOF 7
