REMARK  Name = ZINC39528267
REMARK  6 active torsions:
REMARK  status: ('A' for Active; 'I' for Inactive)
REMARK    1  A    between atoms: C_4  and  C_7
REMARK    2  A    between atoms: C_7  and  C_8
REMARK    3  A    between atoms: C_13  and  N_14
REMARK    4  A    between atoms: C_18  and  S_21
REMARK    5  A    between atoms: S_21  and  O_24
REMARK    6  A    between atoms: O_24  and  C_25
REMARK                            x       y       z     vdW  Elec       q    Type
REMARK                         _______ _______ _______ _____ _____    ______ ____
ROOT
ATOM      1  N   UNL     1       3.017  -3.096   1.343  0.00  0.00    -0.331 N 
ATOM      2  C   UNL     1       3.527  -4.238   0.568  0.00  0.00    +0.086 C 
ATOM      3  C   UNL     1       2.812  -5.506   1.046  0.00  0.00    -0.061 C 
ATOM      4  N   UNL     1       1.359  -5.312   0.955  0.00  0.00    +0.398 N 
ATOM      5  C   UNL     1       0.938  -4.250   1.877  0.00  0.00    +0.133 C 
ATOM      6  C   UNL     1       1.560  -2.923   1.446  0.00  0.00    +0.115 C 
ATOM      7  H   UNL     1       1.114  -5.053   0.011  0.00  0.00    -0.083 HD
ATOM      8  H   UNL     1       0.890  -6.172   1.197  0.00  0.00    -0.083 HD
ENDROOT
BRANCH   1  14
ATOM      9  C   UNL     1       4.264  -1.029   1.327  0.00  0.00    -0.021 A 
ATOM     10  C   UNL     1       5.125  -0.147   1.950  0.00  0.00    +0.021 A 
ATOM     11  C   UNL     1       5.622  -0.435   3.208  0.00  0.00    +0.018 A 
ATOM     12  C   UNL     1       5.258  -1.607   3.847  0.00  0.00    +0.017 A 
ATOM     13  C   UNL     1       4.397  -2.493   3.229  0.00  0.00    +0.024 A 
ATOM     14  C   UNL     1       3.893  -2.204   1.968  0.00  0.00    +0.033 A 
ATOM     15 BR   UNL     1       6.801   0.775   4.058  0.00  0.00    -0.050 Br
BRANCH   9  16
ATOM     16  C   UNL     1       3.724  -0.715  -0.044  0.00  0.00    +0.072 C 
BRANCH  16  20
ATOM     17  C   UNL     1       5.582   2.833  -1.530  0.00  0.00    +0.000 A 
ATOM     18  C   UNL     1       6.199   1.608  -1.697  0.00  0.00    +0.000 A 
ATOM     19  C   UNL     1       5.598   0.460  -1.216  0.00  0.00    +0.004 A 
ATOM     20  C   UNL     1       4.380   0.537  -0.568  0.00  0.00    -0.043 A 
ATOM     21  C   UNL     1       3.763   1.762  -0.400  0.00  0.00    +0.004 A 
ATOM     22  C   UNL     1       4.363   2.910  -0.882  0.00  0.00    +0.000 A 
ENDBRANCH  16  20
ENDBRANCH   9  16
ENDBRANCH   1  14
BRANCH   5  23
ATOM     23  S   UNL     1      -0.870  -4.110   1.853  0.00  0.00    +0.109 S 
ATOM     24  O   UNL     1      -1.305  -3.214   2.866  0.00  0.00    -0.138 OA
ATOM     25  O   UNL     1      -1.332  -3.971   0.516  0.00  0.00    -0.138 OA
BRANCH  23  26
ATOM     26  O   UNL     1      -1.375  -5.475   2.298  0.00  0.00    -0.347 OA
BRANCH  26  27
ATOM     27  C   UNL     1      -1.242  -5.706   3.631  0.00  0.00    +0.156 A 
ATOM     28  C   UNL     1      -0.080  -6.283   4.123  0.00  0.00    +0.048 A 
ATOM     29  C   UNL     1       0.053  -6.516   5.478  0.00  0.00    +0.004 A 
ATOM     30  C   UNL     1      -0.971  -6.175   6.343  0.00  0.00    +0.000 A 
ATOM     31  C   UNL     1      -2.129  -5.600   5.855  0.00  0.00    +0.004 A 
ATOM     32  C   UNL     1      -2.264  -5.359   4.501  0.00  0.00    +0.048 A 
ENDBRANCH  26  27
ENDBRANCH  23  26
ENDBRANCH   5  23
TORSDOF 6
