REMARK  Name = ZINC12896320
REMARK  7 active torsions:
REMARK  status: ('A' for Active; 'I' for Inactive)
REMARK    1  A    between atoms: C_1  and  C_2
REMARK    2  A    between atoms: C_2  and  C_3
REMARK    3  A    between atoms: C_2  and  C_4
REMARK    4  A    between atoms: C_4  and  S_5
REMARK    5  A    between atoms: S_5  and  C_6
REMARK    6  A    between atoms: C_11  and  C_15
REMARK    7  A    between atoms: C_12  and  O_14
REMARK                            x       y       z     vdW  Elec       q    Type
REMARK                         _______ _______ _______ _____ _____    ______ ____
ROOT
ATOM      1  C   UNL     1      -0.119   5.971   0.033  0.00  0.00    +0.018 C 
ATOM      2  C   UNL     1       0.476   6.505  -1.248  0.00  0.00    +0.011 A 
ATOM      3  C   UNL     1       1.328   7.554  -1.284  0.00  0.00    -0.022 A 
ATOM      4  C   UNL     1       1.684   7.768  -2.669  0.00  0.00    +0.004 A 
ATOM      5  C   UNL     1       2.518   8.694  -3.305  0.00  0.00    +0.030 A 
ATOM      6  C   UNL     1       2.623   8.600  -4.671  0.00  0.00    +0.042 A 
ATOM      7  C   UNL     1       1.940   7.638  -5.398  0.00  0.00    +0.022 A 
ATOM      8  C   UNL     1       1.108   6.710  -4.795  0.00  0.00    +0.027 A 
ATOM      9  C   UNL     1       0.983   6.781  -3.409  0.00  0.00    +0.047 A 
ATOM     10  N   UNL     1       0.263   6.037  -2.517  0.00  0.00    -0.359 N 
ATOM     11  H   UNL     1      -0.311   5.291  -2.747  0.00  0.00    +0.166 HD
ATOM     12 CL   UNL     1       3.644   9.723  -5.515  0.00  0.00    -0.084 Cl
ATOM     13  C   UNL     1       1.773   8.307  -0.055  0.00  0.00    +0.018 C 
ATOM     14  C   UNL     1       0.820   7.946   1.093  0.00  0.00    -0.076 C 
ATOM     15  N   UNL     1       0.675   6.478   1.174  0.00  0.00    +0.388 N 
ATOM     16  H   UNL     1       1.607   6.045   1.155  0.00  0.00    -0.084 HD
ATOM     17  H   UNL     1       0.202   6.233   2.051  0.00  0.00    -0.084 HD
ENDROOT
BRANCH   1  23
ATOM     18  C   UNL     1      -0.022   1.758   0.012  0.00  0.00    +0.173 A 
ATOM     19  N   UNL     1       1.156   2.441   0.004  0.00  0.00    -0.302 N 
ATOM     20  H   UNL     1       1.997   1.958  -0.006  0.00  0.00    +0.171 HD
ATOM     21  C   UNL     1       1.155   3.791   0.011  0.00  0.00    +0.258 A 
ATOM     22  O   UNL     1       2.205   4.413   0.004  0.00  0.00    -0.267 OA
ATOM     23  C   UNL     1      -0.072   4.465   0.026  0.00  0.00    +0.070 A 
ATOM     24  C   UNL     1      -1.240   3.722   0.033  0.00  0.00    +0.222 A 
ATOM     25  N   UNL     1      -1.179   2.388   0.021  0.00  0.00    -0.189 NA
BRANCH  24  26
ATOM     26  O   UNL     1      -2.441   4.346   0.047  0.00  0.00    -0.492 OA
ATOM     27  H   UNL     1      -3.198   3.744   0.051  0.00  0.00    +0.294 HD
ENDBRANCH  24  26
BRANCH  18  28
ATOM     28  S   UNL     1       0.002  -0.004   0.002  0.00  0.00    -0.087 S 
BRANCH  28  29
ATOM     29  C   UNL     1      -1.776  -0.343   0.017  0.00  0.00    +0.080 C 
BRANCH  29  31
ATOM     30  C   UNL     1      -1.469  -2.458   1.310  0.00  0.00    +0.008 C 
ATOM     31  C   UNL     1      -2.007  -1.855   0.011  0.00  0.00    -0.007 C 
ATOM     32  C   UNL     1      -3.506  -2.141  -0.102  0.00  0.00    +0.008 C 
ENDBRANCH  29  31
ENDBRANCH  28  29
ENDBRANCH  18  28
ENDBRANCH   1  23
TORSDOF 5
