REMARK  Name = ZINC44714508
REMARK  8 active torsions:
REMARK  status: ('A' for Active; 'I' for Inactive)
REMARK    1  A    between atoms: C_1  and  C_2
REMARK    2  A    between atoms: C_3  and  C_14
REMARK    3  A    between atoms: C_6  and  C_12
REMARK    4  A    between atoms: C_14  and  C_15
REMARK    5  A    between atoms: C_15  and  N_16
REMARK    6  A    between atoms: C_17  and  C_19
REMARK    7  A    between atoms: C_30  and  C_32
REMARK    8  A    between atoms: C_32  and  C_38
REMARK                            x       y       z     vdW  Elec       q    Type
REMARK                         _______ _______ _______ _____ _____    ______ ____
ROOT
ATOM      1  C   UNL     1       2.567   1.114  -6.485  0.00  0.00    +0.100 C 
ATOM      2  C   UNL     1       2.026   0.005  -7.416  0.00  0.00    +0.121 C 
ATOM      3  N   UNL     1       2.845   0.117  -8.646  0.00  0.00    -0.300 N 
ATOM      4  C   UNL     1       4.213   0.406  -8.153  0.00  0.00    +0.115 C 
ATOM      5  C   UNL     1       4.002   1.374  -6.972  0.00  0.00    -0.004 C 
ATOM      6  C   UNL     1       5.000   1.071  -5.859  0.00  0.00    -0.010 C 
ATOM      7  C   UNL     1       6.416   1.392  -6.347  0.00  0.00    -0.082 C 
ATOM      8  N   UNL     1       6.494   2.807  -6.731  0.00  0.00    +0.379 N 
ATOM      9  C   UNL     1       5.598   3.068  -7.864  0.00  0.00    -0.082 C 
ATOM     10  C   UNL     1       4.149   2.818  -7.440  0.00  0.00    -0.010 C 
ATOM     11  C   UNL     1       2.437  -0.013  -9.924  0.00  0.00    +0.222 C 
ATOM     12  O   UNL     1       3.248   0.025 -10.826  0.00  0.00    -0.275 OA
ATOM     13  H   UNL     1       6.221   3.382  -5.948  0.00  0.00    -0.086 HD
ATOM     14  H   UNL     1       7.442   3.031  -6.994  0.00  0.00    -0.086 HD
ENDROOT
BRANCH  11  15
ATOM     15  C   UNL     1       0.975  -0.205 -10.233  0.00  0.00    +0.044 C 
ATOM     16  C   UNL     1       0.445  -1.415  -9.460  0.00  0.00    +0.016 C 
ATOM     17  C   UNL     1       1.223  -2.666  -9.875  0.00  0.00    +0.001 C 
ATOM     18  C   UNL     1       1.046  -2.902 -11.376  0.00  0.00    +0.000 C 
ATOM     19  C   UNL     1       1.575  -1.692 -12.149  0.00  0.00    +0.001 C 
ATOM     20  C   UNL     1       0.797  -0.442 -11.734  0.00  0.00    +0.016 C 
ATOM     21  C   UNL     1       0.197   1.045  -9.818  0.00  0.00    +0.021 C 
ENDBRANCH  11  15
BRANCH   1  23
ATOM     22  N   UNL     1       2.603   1.536  -4.048  0.00  0.00    -0.315 N 
ATOM     23  C   UNL     1       2.575   0.640  -5.054  0.00  0.00    +0.218 C 
ATOM     24  O   UNL     1       2.557  -0.547  -4.809  0.00  0.00    -0.275 OA
ATOM     25  H   UNL     1       2.617   2.486  -4.245  0.00  0.00    +0.149 HD
BRANCH  22  26
ATOM     26  C   UNL     1       2.611   1.076  -2.657  0.00  0.00    +0.109 C 
BRANCH  26  27
ATOM     27  C   UNL     1       2.644   2.284  -1.720  0.00  0.00    +0.056 C 
BRANCH  27  30
ATOM     28  C   UNL     1       5.161   1.665  -0.013  0.00  0.00    +0.063 C 
ATOM     29  C   UNL     1       3.735   1.541   0.456  0.00  0.00    +0.017 A 
ATOM     30  C   UNL     1       2.652   1.810  -0.289  0.00  0.00    -0.018 A 
ATOM     31  C   UNL     1       1.480   1.557   0.553  0.00  0.00    +0.004 A 
ATOM     32  C   UNL     1       0.105   1.654   0.350  0.00  0.00    +0.029 A 
ATOM     33  C   UNL     1      -0.763   1.329   1.389  0.00  0.00    +0.052 A 
ATOM     34  C   UNL     1      -0.252   0.910   2.626  0.00  0.00    +0.021 A 
ATOM     35  C   UNL     1       1.094   0.815   2.826  0.00  0.00    +0.027 A 
ATOM     36  C   UNL     1       1.980   1.135   1.800  0.00  0.00    +0.047 A 
ATOM     37  N   UNL     1       3.352   1.131   1.704  0.00  0.00    -0.358 N 
ATOM     38  H   UNL     1       3.959   0.877   2.417  0.00  0.00    +0.166 HD
BRANCH  33  39
ATOM     39  C   UNL     1      -2.178   1.425   1.195  0.00  0.00    +0.099 C 
ATOM     40  N   UNL     1      -3.301   1.500   1.041  0.00  0.00    -0.191 NA
ENDBRANCH  33  39
ENDBRANCH  27  30
ENDBRANCH  26  27
ENDBRANCH  22  26
ENDBRANCH   1  23
TORSDOF 6
