REMARK  Name = ZINC22853614
REMARK  9 active torsions:
REMARK  status: ('A' for Active; 'I' for Inactive)
REMARK    1  A    between atoms: C_1  and  O_2
REMARK    2  A    between atoms: O_2  and  C_3
REMARK    3  A    between atoms: C_5  and  C_11
REMARK    4  A    between atoms: C_8  and  O_9
REMARK    5  A    between atoms: C_11  and  N_12
REMARK    6  A    between atoms: N_15  and  C_22
REMARK    7  A    between atoms: C_16  and  C_19
REMARK    8  A    between atoms: C_19  and  C_20
REMARK    9  A    between atoms: C_20  and  O_21
REMARK                            x       y       z     vdW  Elec       q    Type
REMARK                         _______ _______ _______ _____ _____    ______ ____
ROOT
ATOM      1  N   UNL     1       2.746   0.839  -1.401  0.00  0.00    -0.301 NA
ATOM      2  C   UNL     1       1.823  -0.055  -2.113  0.00  0.00    +0.066 C 
ATOM      3  C   UNL     1       2.331  -0.278  -3.539  0.00  0.00    -0.062 C 
ATOM      4  N   UNL     1       3.683  -0.852  -3.490  0.00  0.00    +0.385 N 
ATOM      5  C   UNL     1       4.606   0.043  -2.778  0.00  0.00    -0.052 C 
ATOM      6  C   UNL     1       4.098   0.266  -1.352  0.00  0.00    +0.069 C 
ATOM      7  H   UNL     1       3.631  -1.799  -2.933  0.00  0.00    -0.081 HD
ENDROOT
BRANCH   4   8
ATOM      8  C   UNL     1       4.178  -1.151  -4.841  0.00  0.00    -0.068 C 
ATOM      9  C   UNL     1       4.167   0.127  -5.682  0.00  0.00    -0.015 C 
ATOM     10  C   UNL     1       4.682  -0.184  -7.089  0.00  0.00    -0.002 C 
ATOM     11  C   UNL     1       3.778  -1.232  -7.742  0.00  0.00    -0.000 C 
ATOM     12  C   UNL     1       3.789  -2.510  -6.901  0.00  0.00    -0.002 C 
ATOM     13  C   UNL     1       3.274  -2.199  -5.494  0.00  0.00    -0.015 C 
ENDBRANCH   4   8
BRANCH   1  14
ATOM     14  C   UNL     1       2.252   1.138  -0.050  0.00  0.00    +0.119 C 
BRANCH  14  17
ATOM     15  C   UNL     1      -1.410   2.036  -0.295  0.00  0.00    +0.163 A 
ATOM     16  C   UNL     1      -0.241   1.298  -0.201  0.00  0.00    +0.054 A 
ATOM     17  C   UNL     1       0.981   1.943  -0.146  0.00  0.00    -0.028 A 
ATOM     18  C   UNL     1       1.040   3.324  -0.180  0.00  0.00    +0.028 A 
ATOM     19  C   UNL     1      -0.124   4.066  -0.269  0.00  0.00    +0.086 A 
ATOM     20  C   UNL     1      -1.352   3.425  -0.324  0.00  0.00    +0.177 A 
ATOM     21 CL   UNL     1      -0.046   5.800  -0.312  0.00  0.00    -0.080 Cl
BRANCH  15  23
ATOM     22  C   UNL     1      -2.596  -0.026  -0.314  0.00  0.00    +0.277 C 
ATOM     23  O   UNL     1      -2.612   1.403  -0.354  0.00  0.00    -0.491 OA
ENDBRANCH  15  23
BRANCH  20  24
ATOM     24  O   UNL     1      -2.498   4.154  -0.412  0.00  0.00    -0.502 OA
ATOM     25  H   UNL     1      -2.451   5.252  -0.435  0.00  0.00    +0.292 HD
ENDBRANCH  20  24
ENDBRANCH  14  17
ENDBRANCH   1  14
BRANCH   5  26
ATOM     26  C   UNL     1       5.998  -0.592  -2.730  0.00  0.00    +0.014 C 
BRANCH  26  27
ATOM     27  C   UNL     1       6.975   0.372  -2.054  0.00  0.00    +0.154 C 
BRANCH  27  28
ATOM     28  O   UNL     1       8.297  -0.168  -2.117  0.00  0.00    -0.395 OA
ATOM     29  H   UNL     1       9.139   0.388  -1.680  0.00  0.00    +0.209 HD
ENDBRANCH  27  28
ENDBRANCH  26  27
ENDBRANCH   5  26
TORSDOF 8
