REMARK  Name = ZINC13387869
REMARK  7 active torsions:
REMARK  status: ('A' for Active; 'I' for Inactive)
REMARK    1  A    between atoms: C_1  and  C_2
REMARK    2  A    between atoms: C_2  and  C_4
REMARK    3  A    between atoms: C_2  and  O_33
REMARK    4  A    between atoms: C_8  and  N_10
REMARK    5  A    between atoms: C_11  and  C_13
REMARK    6  A    between atoms: C_19  and  C_28
REMARK    7  A    between atoms: C_22  and  C_24
REMARK                            x       y       z     vdW  Elec       q    Type
REMARK                         _______ _______ _______ _____ _____    ______ ____
ROOT
ATOM      1  C   UNL     1      -5.698  -2.996  -3.537  0.00  0.00    +0.091 C 
ATOM      2  C   UNL     1      -6.971  -3.506  -3.691  0.00  0.00    +0.104 C 
ATOM      3  N   UNL     1      -7.132  -3.928  -4.971  0.00  0.00    -0.269 N 
ATOM      4  N   UNL     1      -5.959  -3.722  -5.687  0.00  0.00    -0.226 N 
ATOM      5  C   UNL     1      -5.038  -3.119  -4.842  0.00  0.00    +0.126 C 
ATOM      6  N   UNL     1      -3.840  -2.769  -5.212  0.00  0.00    -0.364 N 
ATOM      7  C   UNL     1      -3.436  -2.975  -6.608  0.00  0.00    +0.119 C 
ATOM      8  C   UNL     1      -4.128  -4.208  -7.190  0.00  0.00    +0.063 C 
ATOM      9  C   UNL     1      -5.650  -4.054  -7.083  0.00  0.00    +0.201 C 
ATOM     10  H   UNL     1      -7.944  -4.315  -5.333  0.00  0.00    +0.170 HD
ATOM     11  H   UNL     1      -3.223  -2.378  -4.574  0.00  0.00    +0.161 HD
ENDROOT
BRANCH   7  12
ATOM     12  C   UNL     1      -3.818  -1.763  -7.420  0.00  0.00    +0.012 A 
ATOM     13  C   UNL     1      -3.128  -1.148  -8.411  0.00  0.00    +0.013 A 
ATOM     14  C   UNL     1      -3.679  -0.038  -9.023  0.00  0.00    +0.008 A 
ATOM     15  C   UNL     1      -4.894   0.403  -8.613  0.00  0.00    +0.045 A 
ATOM     16  S   UNL     1      -5.299  -0.771  -7.330  0.00  0.00    -0.100 S 
ENDBRANCH   7  12
BRANCH   1  18
ATOM     17  N   UNL     1      -3.929  -1.808  -2.353  0.00  0.00    -0.281 N 
ATOM     18  C   UNL     1      -5.120  -2.437  -2.311  0.00  0.00    +0.253 C 
ATOM     19  O   UNL     1      -5.716  -2.541  -1.254  0.00  0.00    -0.270 OA
ATOM     20  H   UNL     1      -3.514  -1.613  -3.208  0.00  0.00    +0.155 HD
BRANCH  17  25
ATOM     21  C   UNL     1      -1.281  -1.097   0.096  0.00  0.00    -0.018 A 
ATOM     22  C   UNL     1      -2.034  -0.695   1.185  0.00  0.00    +0.006 A 
ATOM     23  C   UNL     1      -3.413  -0.662   1.102  0.00  0.00    +0.002 A 
ATOM     24  C   UNL     1      -4.045  -1.031  -0.070  0.00  0.00    +0.023 A 
ATOM     25  C   UNL     1      -3.293  -1.434  -1.165  0.00  0.00    +0.034 A 
ATOM     26  C   UNL     1      -1.907  -1.461  -1.080  0.00  0.00    +0.029 A 
BRANCH  21  28
ATOM     27  C   UNL     1       0.777   0.284   0.012  0.00  0.00    +0.043 C 
ATOM     28  C   UNL     1       0.222  -1.131   0.191  0.00  0.00    +0.141 C 
BRANCH  28  29
ATOM     29  O   UNL     1       0.607  -1.635   1.472  0.00  0.00    -0.387 OA
ATOM     30  H   UNL     1       1.564  -1.685   1.603  0.00  0.00    +0.210 HD
ENDBRANCH  28  29
ENDBRANCH  21  28
ENDBRANCH  17  25
ENDBRANCH   1  18
BRANCH   9  31
ATOM     31  C   UNL     1      -6.346  -5.359  -7.474  0.00  0.00    +0.410 C 
ATOM     32  F   UNL     1      -7.729  -5.212  -7.330  0.00  0.00    -0.169 F 
ATOM     33  F   UNL     1      -6.045  -5.667  -8.806  0.00  0.00    -0.169 F 
ATOM     34  F   UNL     1      -5.898  -6.393  -6.645  0.00  0.00    -0.169 F 
ENDBRANCH   9  31
TORSDOF 6
