REMARK  Name = ZINC44987724
REMARK  5 active torsions:
REMARK  status: ('A' for Active; 'I' for Inactive)
REMARK    1  A    between atoms: C_1  and  C_2
REMARK    2  A    between atoms: C_6  and  C_8
REMARK    3  A    between atoms: C_8  and  N_9
REMARK    4  A    between atoms: N_9  and  C_10
REMARK    5  A    between atoms: C_19  and  N_20
REMARK                            x       y       z     vdW  Elec       q    Type
REMARK                         _______ _______ _______ _____ _____    ______ ____
ROOT
ATOM      1  C   UNL     1       1.233  -2.916   4.804  0.00  0.00    +0.059 A 
ATOM      2  C   UNL     1       2.454  -2.722   5.489  0.00  0.00    +0.022 A 
ATOM      3  C   UNL     1       3.082  -1.468   5.518  0.00  0.00    +0.027 A 
ATOM      4  C   UNL     1       4.259  -1.319   6.189  0.00  0.00    +0.019 A 
ATOM      5  C   UNL     1       4.847  -2.399   6.846  0.00  0.00    +0.017 A 
ATOM      6  C   UNL     1       4.264  -3.629   6.837  0.00  0.00    +0.027 A 
ATOM      7  C   UNL     1       3.049  -3.820   6.156  0.00  0.00    +0.048 A 
ATOM      8  N   UNL     1       2.456  -5.019   6.133  0.00  0.00    -0.359 N 
ATOM      9  C   UNL     1       1.321  -5.216   5.502  0.00  0.00    +0.107 A 
ATOM     10  C   UNL     1       0.669  -4.186   4.826  0.00  0.00    +0.062 A 
ATOM     11 BR   UNL     1       5.105   0.371   6.228  0.00  0.00    -0.050 Br
ATOM     12  H   UNL     1       2.875  -5.762   6.594  0.00  0.00    +0.165 HD
ENDROOT
BRANCH  10  13
ATOM     13  N   UNL     1      -0.545  -4.432   4.169  0.00  0.00    -0.355 N 
ATOM     14  H   UNL     1      -0.682  -4.105   3.266  0.00  0.00    +0.142 HD
ATOM     15  H   UNL     1      -1.248  -4.928   4.617  0.00  0.00    +0.142 HD
ENDBRANCH  10  13
BRANCH   1  16
ATOM     16  N   UNL     1       0.611  -1.866   4.135  0.00  0.00    -0.336 N 
ATOM     17  H   UNL     1       0.796  -0.949   4.391  0.00  0.00    +0.147 HD
BRANCH  16  18
ATOM     18  C   UNL     1      -0.324  -2.146   3.042  0.00  0.00    +0.157 C 
BRANCH  18  24
ATOM     19  C   UNL     1      -3.210   1.799   2.887  0.00  0.00    +0.088 C 
ATOM     20  C   UNL     1      -2.074   1.004   2.297  0.00  0.00    +0.126 A 
ATOM     21  N   UNL     1      -1.463   1.459   1.222  0.00  0.00    -0.241 NA
ATOM     22  C   UNL     1      -0.462   0.788   0.675  0.00  0.00    +0.114 A 
ATOM     23  C   UNL     1      -0.058  -0.407   1.250  0.00  0.00    +0.044 A 
ATOM     24  C   UNL     1      -0.725  -0.853   2.380  0.00  0.00    +0.062 A 
ATOM     25  N   UNL     1      -1.714  -0.125   2.873  0.00  0.00    -0.236 NA
ENDBRANCH  18  24
ENDBRANCH  16  18
ENDBRANCH   1  16
TORSDOF 4
