REMARK  Name = ZINC34981648
REMARK  3 active torsions:
REMARK  status: ('A' for Active; 'I' for Inactive)
REMARK    1  A    between atoms: C_1  and  C_2
REMARK    2  A    between atoms: C_5  and  C_8
REMARK    3  A    between atoms: C_8  and  N_9
REMARK                            x       y       z     vdW  Elec       q    Type
REMARK                         _______ _______ _______ _____ _____    ______ ____
ROOT
ATOM      1  N   UNL     1       1.510  -4.593  -0.046  0.00  0.00    -0.262 N 
ATOM      2  C   UNL     1       2.126  -5.128  -1.173  0.00  0.00    +0.045 A 
ATOM      3  C   UNL     1       1.722  -5.195  -2.501  0.00  0.00    +0.025 A 
ATOM      4  C   UNL     1       2.536  -5.792  -3.444  0.00  0.00    +0.017 A 
ATOM      5  C   UNL     1       3.760  -6.331  -3.081  0.00  0.00    +0.019 A 
ATOM      6  C   UNL     1       4.179  -6.273  -1.767  0.00  0.00    +0.025 A 
ATOM      7  C   UNL     1       3.366  -5.673  -0.809  0.00  0.00    +0.011 A 
ATOM      8  C   UNL     1       3.510  -5.451   0.644  0.00  0.00    +0.065 C 
ATOM      9  C   UNL     1       4.571  -5.817   1.450  0.00  0.00    +0.095 A 
ATOM     10  C   UNL     1       5.898  -6.362   1.073  0.00  0.00    +0.288 A 
ATOM     11  O   UNL     1       6.197  -6.551  -0.089  0.00  0.00    -0.265 OA
ATOM     12  N   UNL     1       6.755  -6.636   2.066  0.00  0.00    -0.169 N 
ATOM     13  C   UNL     1       6.372  -6.405   3.355  0.00  0.00    +0.199 A 
ATOM     14  S   UNL     1       4.722  -5.757   3.229  0.00  0.00    -0.044 S 
ATOM     15  N   UNL     1       7.341  -6.735   4.163  0.00  0.00    -0.208 NA
ATOM     16  C   UNL     1       8.376  -7.186   3.450  0.00  0.00    +0.246 A 
ATOM     17  N   UNL     1       8.077  -7.147   2.184  0.00  0.00    -0.150 NA
ATOM     18  C   UNL     1       2.275  -4.747   1.049  0.00  0.00    +0.253 C 
ATOM     19  O   UNL     1       1.998  -4.374   2.173  0.00  0.00    -0.270 OA
ATOM     20 BR   UNL     1       4.858  -7.145  -4.388  0.00  0.00    -0.050 Br
ENDROOT
BRANCH   1  21
ATOM     21  C   UNL     1       0.199  -3.940  -0.053  0.00  0.00    +0.149 C 
BRANCH  21  26
ATOM     22  C   UNL     1       0.864   1.712  -1.056  0.00  0.00    +0.044 C 
ATOM     23  C   UNL     1       0.690   0.238  -0.795  0.00  0.00    -0.050 A 
ATOM     24  C   UNL     1       0.519  -0.636  -1.852  0.00  0.00    +0.003 A 
ATOM     25  C   UNL     1       0.361  -1.988  -1.612  0.00  0.00    +0.005 A 
ATOM     26  C   UNL     1       0.373  -2.466  -0.315  0.00  0.00    -0.030 A 
ATOM     27  C   UNL     1       0.545  -1.592   0.742  0.00  0.00    +0.005 A 
ATOM     28  C   UNL     1       0.708  -0.240   0.502  0.00  0.00    +0.003 A 
ENDBRANCH  21  26
ENDBRANCH   1  21
TORSDOF 2
