REMARK  Name = ZINC18114088
REMARK  2 active torsions:
REMARK  status: ('A' for Active; 'I' for Inactive)
REMARK    1  A    between atoms: C_4  and  N_7
REMARK    2  A    between atoms: N_9  and  C_10
REMARK                            x       y       z     vdW  Elec       q    Type
REMARK                         _______ _______ _______ _____ _____    ______ ____
ROOT
ATOM      1  N   UNL     1       3.965  -0.579  -0.041  0.00  0.00    -0.326 N 
ATOM      2  C   UNL     1       3.599  -1.894  -0.114  0.00  0.00    +0.203 C 
ATOM      3  N   UNL     1       4.523  -2.832  -0.227  0.00  0.00    -0.179 NA
ATOM      4  N   UNL     1       2.278  -2.238  -0.071  0.00  0.00    -0.369 N 
ATOM      5  H   UNL     1       3.292   0.105   0.102  0.00  0.00    +0.169 HD
ATOM      6  H   UNL     1       1.603  -1.613  -0.379  0.00  0.00    +0.159 HD
ATOM      7  H   UNL     1       2.014  -3.108   0.268  0.00  0.00    +0.159 HD
ENDROOT
BRANCH   3   8
ATOM      8  C   UNL     1       4.164  -4.102  -0.474  0.00  0.00    +0.234 A 
ATOM      9  N   UNL     1       5.110  -5.085  -0.462  0.00  0.00    -0.327 N 
ATOM     10  C   UNL     1       4.769  -6.391  -0.709  0.00  0.00    +0.027 A 
ATOM     11  C   UNL     1       3.486  -6.693  -0.958  0.00  0.00    +0.038 A 
ATOM     12  C   UNL     1       2.520  -5.644  -0.972  0.00  0.00    +0.278 A 
ATOM     13  O   UNL     1       1.348  -5.897  -1.208  0.00  0.00    -0.265 OA
ATOM     14  N   UNL     1       2.894  -4.387  -0.722  0.00  0.00    -0.173 NA
ATOM     15  C   UNL     1       3.009  -8.097  -1.218  0.00  0.00    +0.042 C 
ATOM     16  C   UNL     1       4.180  -9.002  -1.596  0.00  0.00    +0.005 C 
ATOM     17  C   UNL     1       5.283  -8.825  -0.545  0.00  0.00    +0.006 C 
ATOM     18  C   UNL     1       5.866  -7.421  -0.693  0.00  0.00    +0.054 C 
ATOM     19  H   UNL     1       6.035  -4.858  -0.276  0.00  0.00    +0.169 HD
ENDBRANCH   3   8
BRANCH   1  23
ATOM     20  C   UNL     1       7.972   0.493  -0.430  0.00  0.00    +0.000 A 
ATOM     21  C   UNL     1       6.984   1.318  -0.937  0.00  0.00    +0.002 A 
ATOM     22  C   UNL     1       5.655   0.966  -0.810  0.00  0.00    +0.026 A 
ATOM     23  C   UNL     1       5.310  -0.219  -0.172  0.00  0.00    +0.042 A 
ATOM     24  C   UNL     1       6.304  -1.045   0.337  0.00  0.00    +0.026 A 
ATOM     25  C   UNL     1       7.632  -0.687   0.206  0.00  0.00    +0.002 A 
ENDBRANCH   1  23
TORSDOF 2
