REMARK  Name = ZINC53235442
REMARK  10 active torsions:
REMARK  status: ('A' for Active; 'I' for Inactive)
REMARK    1  A    between atoms: C_1  and  C_2
REMARK    2  A    between atoms: C_2  and  C_4
REMARK    3  A    between atoms: C_2  and  N_11
REMARK    4  A    between atoms: N_11  and  C_12
REMARK    5  A    between atoms: N_11  and  C_13
REMARK    6  A    between atoms: C_13  and  C_14
REMARK    7  A    between atoms: N_16  and  C_17
REMARK    8  A    between atoms: C_17  and  C_18
REMARK    9  A    between atoms: C_21  and  S_24
REMARK   10  A    between atoms: S_24  and  N_27
REMARK                            x       y       z     vdW  Elec       q    Type
REMARK                         _______ _______ _______ _____ _____    ______ ____
ROOT
ATOM      1  C   UNL     1      -3.532  -0.445  -1.106  0.00  0.00    +0.197 C 
ATOM      2  O   UNL     1      -3.932  -1.085  -0.157  0.00  0.00    -0.278 OA
ATOM      3  N   UNL     1      -4.382  -0.107  -2.096  0.00  0.00    -0.313 N 
ATOM      4  H   UNL     1      -4.062   0.405  -2.855  0.00  0.00    +0.149 HD
ENDROOT
BRANCH   1   5
ATOM      5  C   UNL     1      -2.087  -0.026  -1.178  0.00  0.00    +0.019 C 
BRANCH   5   6
ATOM      6  N   UNL     1      -1.376  -0.512   0.012  0.00  0.00    +0.388 N 
ATOM      7  C   UNL     1      -1.356  -1.981   0.004  0.00  0.00    -0.095 C 
ATOM      8  H   UNL     1      -1.848  -0.187   0.843  0.00  0.00    -0.081 HD
BRANCH   6  10
ATOM      9  C   UNL     1      -0.019   1.526   0.010  0.00  0.00    -0.008 C 
ATOM     10  C   UNL     1       0.002  -0.004   0.002  0.00  0.00    -0.039 C 
BRANCH  10  11
ATOM     11  C   UNL     1       0.731  -0.503   1.223  0.00  0.00    -0.043 A 
ATOM     12  C   UNL     1       0.018  -0.951   2.319  0.00  0.00    +0.003 A 
ATOM     13  C   UNL     1       0.686  -1.409   3.439  0.00  0.00    +0.000 A 
ATOM     14  C   UNL     1       2.068  -1.419   3.463  0.00  0.00    +0.001 A 
ATOM     15  C   UNL     1       2.783  -0.972   2.368  0.00  0.00    +0.020 A 
ATOM     16  C   UNL     1       2.114  -0.519   1.245  0.00  0.00    +0.043 A 
ATOM     17 CL   UNL     1       3.011   0.037  -0.134  0.00  0.00    -0.083 Cl
ENDBRANCH  10  11
ENDBRANCH   6  10
ENDBRANCH   5   6
ENDBRANCH   1   5
BRANCH   3  18
ATOM     18  C   UNL     1      -5.787  -0.514  -2.026  0.00  0.00    +0.139 C 
BRANCH  18  19
ATOM     19  C   UNL     1      -6.516  -0.015  -3.247  0.00  0.00    -0.030 A 
ATOM     20  C   UNL     1      -7.112   1.233  -3.235  0.00  0.00    +0.007 A 
ATOM     21  C   UNL     1      -7.780   1.691  -4.355  0.00  0.00    +0.029 A 
ATOM     22  C   UNL     1      -7.853   0.901  -5.487  0.00  0.00    +0.105 A 
ATOM     23  C   UNL     1      -7.257  -0.346  -5.500  0.00  0.00    +0.029 A 
ATOM     24  C   UNL     1      -6.585  -0.802  -4.381  0.00  0.00    +0.007 A 
BRANCH  22  25
ATOM     25  S   UNL     1      -8.706   1.484  -6.914  0.00  0.00    +0.056 S 
ATOM     26  O   UNL     1      -9.097   0.334  -7.652  0.00  0.00    -0.153 OA
ATOM     27  O   UNL     1      -9.642   2.453  -6.460  0.00  0.00    -0.153 OA
BRANCH  25  28
ATOM     28  N   UNL     1      -7.603   2.293  -7.848  0.00  0.00    -0.204 NA
ATOM     29  H   UNL     1      -7.707   2.315  -8.812  0.00  0.00    +0.144 HD
ATOM     30  H   UNL     1      -6.853   2.745  -7.431  0.00  0.00    +0.144 HD
ENDBRANCH  25  28
ENDBRANCH  22  25
ENDBRANCH  18  19
ENDBRANCH   3  18
TORSDOF 8
