REMARK  Name = ZINC63281950
REMARK  8 active torsions:
REMARK  status: ('A' for Active; 'I' for Inactive)
REMARK    1  A    between atoms: CG_4  and  CB_7
REMARK    2  A    between atoms: CB_7  and  CA_8
REMARK    3  A    between atoms: CA_8  and  C_10
REMARK    4  A    between atoms: CA_8  and  N_16
REMARK    5  A    between atoms: N_12  and  CA_13
REMARK    6  A    between atoms: CA_13  and  C_14
REMARK    7  A    between atoms: C_14  and  O_15
REMARK    8  A    between atoms: C_25  and  C_27
REMARK                            x       y       z     vdW  Elec       q    Type
REMARK                         _______ _______ _______ _____ _____    ______ ____
ROOT
ATOM      1  N   GLY A   1       2.193   0.523   2.612  0.00  0.00    -0.288 N 
ATOM      2  C   UNK A   0       3.451   1.007   2.638  0.00  0.00    +0.303 C 
ATOM      3  O   UNK A   0       4.367   0.342   2.196  0.00  0.00    -0.253 OA
ATOM      4  N   UNK A   0       3.693   2.228   3.154  0.00  0.00    -0.283 N 
ATOM      5  C   UNK A   0       5.037   2.817   3.084  0.00  0.00    +0.128 C 
ATOM      6  C   UNK A   0       4.937   4.187   2.402  0.00  0.00    +0.127 C 
ATOM      7  N   UNK A   0       3.861   4.954   3.044  0.00  0.00    -0.297 N 
ATOM      8  C   UNK A   0       2.516   4.365   3.115  0.00  0.00    +0.127 C 
ATOM      9  C   UNK A   0       2.615   2.998   3.792  0.00  0.00    +0.128 C 
ATOM     10  C   UNK A   0       4.103   6.176   3.560  0.00  0.00    +0.242 C 
ATOM     11  O   UNK A   0       5.216   6.651   3.497  0.00  0.00    -0.273 OA
ATOM     12  H   GLY A   1       1.472   1.027   3.020  0.00  0.00    +0.151 HD
ENDROOT
BRANCH  10  13
ATOM     13  C   UNK A   0       2.989   6.951   4.216  0.00  0.00    +0.190 C 
ATOM     14  C   UNK A   0       1.900   7.250   3.210  0.00  0.00    +0.016 C 
ATOM     15  C   UNK A   0       1.817   8.598   3.138  0.00  0.00    -0.004 A 
ATOM     16  C   UNK A   0       0.967   9.502   2.354  0.00  0.00    +0.010 A 
ATOM     17  C   UNK A   0       1.120  10.838   2.499  0.00  0.00    +0.001 A 
ATOM     18  C   UNK A   0       2.068  11.380   3.377  0.00  0.00    +0.002 A 
ATOM     19  C   UNK A   0       2.885  10.614   4.131  0.00  0.00    +0.026 A 
ATOM     20  C   UNK A   0       2.811   9.196   4.058  0.00  0.00    +0.043 A 
ATOM     21  N   UNK A   0       3.482   8.253   4.677  0.00  0.00    -0.370 N 
ATOM     22  H   UNK A   0       4.186   8.393   5.330  0.00  0.00    +0.161 HD
ENDBRANCH  10  13
BRANCH   1  23
ATOM     23  CA  GLY A   1       1.916  -0.762   1.967  0.00  0.00    +0.165 C 
BRANCH  23  24
ATOM     24  C   GLY A   1       0.476  -0.802   1.524  0.00  0.00    +0.234 C 
ATOM     25  O   GLY A   1      -0.247   0.150   1.726  0.00  0.00    -0.274 OA
ATOM     26  N   GLY A   1      -0.007  -1.895   0.902  0.00  0.00    -0.312 N 
ATOM     27  H   GLY A   1       0.571  -2.657   0.739  0.00  0.00    +0.149 HD
BRANCH  26  28
ATOM     28  CA  GLY A   1      -1.407  -1.934   0.470  0.00  0.00    +0.132 C 
BRANCH  28  29
ATOM     29  C   GLY A   1      -1.696  -3.277  -0.203  0.00  0.00    +0.174 C 
BRANCH  29  30
ATOM     30  O   GLY A   1      -1.567  -4.329   0.756  0.00  0.00    -0.393 OA
ATOM     31  H   GLY A   1      -1.737  -5.210   0.398  0.00  0.00    +0.209 HD
ENDBRANCH  29  30
ENDBRANCH  28  29
ENDBRANCH  26  28
ENDBRANCH  23  24
BRANCH  23  32
ATOM     32  CB  GLY A   1       2.175  -1.897   2.960  0.00  0.00    +0.067 C 
BRANCH  32  36
ATOM     33  CZ  GLY A   1       6.329  -2.004   3.952  0.00  0.00    +0.000 A 
ATOM     34  CE1 GLY A   1       5.459  -1.234   4.701  0.00  0.00    +0.000 A 
ATOM     35  CD1 GLY A   1       4.115  -1.200   4.380  0.00  0.00    +0.004 A 
ATOM     36  CG  GLY A   1       3.641  -1.934   3.309  0.00  0.00    -0.045 A 
ATOM     37  CD2 GLY A   1       4.511  -2.703   2.559  0.00  0.00    +0.004 A 
ATOM     38  CE2 GLY A   1       5.855  -2.738   2.881  0.00  0.00    +0.000 A 
ENDBRANCH  32  36
ENDBRANCH  23  32
ENDBRANCH   1  23
TORSDOF 8
