REMARK  Name = ZINC39689245
REMARK  9 active torsions:
REMARK  status: ('A' for Active; 'I' for Inactive)
REMARK    1  A    between atoms: C_1  and  C_2
REMARK    2  A    between atoms: C_2  and  C_3
REMARK    3  A    between atoms: C_3  and  C_5
REMARK    4  A    between atoms: C_3  and  C_6
REMARK    5  A    between atoms: C_6  and  C_7
REMARK    6  A    between atoms: C_11  and  C_20
REMARK    7  A    between atoms: N_22  and  C_23
REMARK    8  A    between atoms: C_23  and  C_24
REMARK    9  A    between atoms: N_27  and  C_30
REMARK                            x       y       z     vdW  Elec       q    Type
REMARK                         _______ _______ _______ _____ _____    ______ ____
ROOT
ATOM      1  C   UNL     1       1.779  -2.509  -2.498  0.00  0.00    +0.216 C 
ATOM      2  O   UNL     1       2.176  -1.736  -3.344  0.00  0.00    -0.276 OA
ATOM      3  N   UNL     1       1.977  -3.833  -2.648  0.00  0.00    -0.300 N 
ATOM      4  C   UNL     1       1.562  -4.924  -1.734  0.00  0.00    +0.121 C 
ATOM      5  C   UNL     1       1.094  -6.061  -2.670  0.00  0.00    +0.100 C 
ATOM      6  C   UNL     1       1.819  -5.797  -4.000  0.00  0.00    -0.004 C 
ATOM      7  C   UNL     1       2.654  -4.529  -3.769  0.00  0.00    +0.115 C 
ATOM      8  C   UNL     1       0.806  -5.558  -5.115  0.00  0.00    -0.010 C 
ATOM      9  C   UNL     1       1.549  -5.355  -6.439  0.00  0.00    -0.082 C 
ATOM     10  N   UNL     1       2.360  -6.543  -6.734  0.00  0.00    +0.379 N 
ATOM     11  C   UNL     1       3.393  -6.712  -5.704  0.00  0.00    -0.082 C 
ATOM     12  C   UNL     1       2.727  -6.972  -4.349  0.00  0.00    -0.010 C 
ATOM     13  H   UNL     1       1.766  -7.358  -6.750  0.00  0.00    -0.086 HD
ATOM     14  H   UNL     1       2.801  -6.432  -7.635  0.00  0.00    -0.086 HD
ENDROOT
BRANCH   5  15
ATOM     15  C   UNL     1       1.495  -7.401  -2.108  0.00  0.00    +0.218 C 
ATOM     16  O   UNL     1       2.500  -7.501  -1.438  0.00  0.00    -0.275 OA
ATOM     17  N   UNL     1       0.735  -8.487  -2.350  0.00  0.00    -0.315 N 
ATOM     18  H   UNL     1      -0.070  -8.407  -2.886  0.00  0.00    +0.149 HD
BRANCH  17  19
ATOM     19  C   UNL     1       1.124  -9.790  -1.804  0.00  0.00    +0.107 C 
BRANCH  19  20
ATOM     20  C   UNL     1       0.099 -10.845  -2.224  0.00  0.00    +0.003 C 
ATOM     21  C   UNL     1      -1.253 -10.533  -1.576  0.00  0.00    -0.014 C 
ATOM     22  C   UNL     1      -2.251 -11.635  -1.935  0.00  0.00    -0.078 C 
ATOM     23  N   UNL     1      -1.758 -12.927  -1.442  0.00  0.00    +0.382 N 
ATOM     24  C   UNL     1      -0.497 -13.267  -2.112  0.00  0.00    -0.078 C 
ATOM     25  C   UNL     1       0.569 -12.227  -1.760  0.00  0.00    -0.014 C 
ATOM     26  H   UNL     1      -1.604 -12.869  -0.447  0.00  0.00    -0.081 HD
BRANCH  23  27
ATOM     27  C   UNL     1      -2.756 -13.969  -1.721  0.00  0.00    -0.069 C 
ATOM     28  C   UNL     1      -2.320 -15.317  -1.095  0.00  0.00    -0.015 C 
ATOM     29  C   UNL     1      -3.664 -16.072  -0.941  0.00  0.00    -0.002 C 
ATOM     30  C   UNL     1      -4.667 -14.977  -0.524  0.00  0.00    -0.002 C 
ATOM     31  C   UNL     1      -4.090 -13.640  -1.020  0.00  0.00    -0.015 C 
ENDBRANCH  23  27
ENDBRANCH  19  20
ENDBRANCH  17  19
ENDBRANCH   5  15
BRANCH   1  32
ATOM     32  C   UNL     1       1.063  -1.988  -1.278  0.00  0.00    +0.099 C 
BRANCH  32  33
ATOM     33  C   UNL     1       0.971  -0.463  -1.353  0.00  0.00    -0.006 C 
ATOM     34  C   UNL     1       0.092  -0.062  -2.540  0.00  0.00    +0.008 C 
BRANCH  33  36
ATOM     35  C   UNL     1       0.379   1.606  -0.083  0.00  0.00    +0.004 C 
ATOM     36  C   UNL     1       0.357   0.076  -0.060  0.00  0.00    +0.000 C 
ENDBRANCH  33  36
ENDBRANCH  32  33
ENDBRANCH   1  32
TORSDOF 7
