REMARK  Name = ZINC06334234
REMARK  11 active torsions:
REMARK  status: ('A' for Active; 'I' for Inactive)
REMARK    1  A    between atoms: C_1  and  O_2
REMARK    2  A    between atoms: O_2  and  C_3
REMARK    3  A    between atoms: C_8  and  C_9
REMARK    4  A    between atoms: C_9  and  C_11
REMARK    5  A    between atoms: C_9  and  N_24
REMARK    6  A    between atoms: C_11  and  N_12
REMARK    7  A    between atoms: N_12  and  C_13
REMARK    8  A    between atoms: C_13  and  N_15
REMARK    9  A    between atoms: N_15  and  C_16
REMARK   10  A    between atoms: C_16  and  C_17
REMARK   11  A    between atoms: C_17  and  C_18
REMARK                            x       y       z     vdW  Elec       q    Type
REMARK                         _______ _______ _______ _____ _____    ______ ____
ROOT
ATOM      1  C   UNL     1       0.020  -2.840  -0.000  0.00  0.00    -0.017 C 
ENDROOT
BRANCH   1   7
ATOM      2  C   UNL     1      -0.946  -0.536  -0.213  0.00  0.00    +0.122 A 
ATOM      3  C   UNL     1      -2.030   0.323  -0.328  0.00  0.00    +0.046 A 
ATOM      4  C   UNL     1      -3.314  -0.186  -0.345  0.00  0.00    +0.004 A 
ATOM      5  C   UNL     1      -3.520  -1.550  -0.247  0.00  0.00    +0.000 A 
ATOM      6  C   UNL     1      -2.442  -2.408  -0.131  0.00  0.00    +0.005 A 
ATOM      7  C   UNL     1      -1.155  -1.904  -0.120  0.00  0.00    -0.018 A 
BRANCH   2   9
ATOM      8  C   UNL     1       0.458   1.380  -0.296  0.00  0.00    +0.277 C 
ATOM      9  O   UNL     1       0.319  -0.038  -0.197  0.00  0.00    -0.495 OA
ENDBRANCH   2   9
ENDBRANCH   1   7
BRANCH   1  10
ATOM     10  N   UNL     1      -0.358  -4.167  -0.505  0.00  0.00    +0.385 N 
ATOM     11  C   UNL     1      -0.661  -4.095  -1.957  0.00  0.00    -0.078 C 
ATOM     12  C   UNL     1      -0.477  -5.559  -2.431  0.00  0.00    -0.020 C 
ATOM     13  C   UNL     1       0.731  -6.043  -1.597  0.00  0.00    -0.020 C 
ATOM     14  C   UNL     1       0.779  -5.104  -0.377  0.00  0.00    -0.078 C 
ATOM     15  H   UNL     1      -1.157  -4.518   0.002  0.00  0.00    -0.081 HD
ENDBRANCH   1  10
BRANCH   1  16
ATOM     16  C   UNL     1       0.435  -2.953   1.468  0.00  0.00    +0.092 C 
BRANCH  16  17
ATOM     17  N   UNL     1      -0.641  -3.587   2.233  0.00  0.00    -0.328 N 
ATOM     18  H   UNL     1      -1.429  -3.922   1.776  0.00  0.00    +0.148 HD
BRANCH  17  19
ATOM     19  C   UNL     1      -0.538  -3.705   3.572  0.00  0.00    +0.130 C 
ATOM     20  S   UNL     1       0.852  -3.113   4.378  0.00  0.00    -0.019 S 
BRANCH  19  21
ATOM     21  N   UNL     1      -1.528  -4.288   4.275  0.00  0.00    -0.326 N 
ATOM     22  H   UNL     1      -2.315  -4.623   3.818  0.00  0.00    +0.148 HD
BRANCH  21  23
ATOM     23  C   UNL     1      -1.415  -4.416   5.730  0.00  0.00    +0.108 C 
BRANCH  23  24
ATOM     24  C   UNL     1      -2.664  -5.109   6.280  0.00  0.00    +0.054 C 
BRANCH  24  25
ATOM     25  C   UNL     1      -2.548  -5.241   7.776  0.00  0.00    -0.046 A 
ATOM     26  C   UNL     1      -1.959  -6.363   8.328  0.00  0.00    +0.004 A 
ATOM     27  C   UNL     1      -1.853  -6.484   9.701  0.00  0.00    +0.000 A 
ATOM     28  C   UNL     1      -2.335  -5.482  10.522  0.00  0.00    +0.000 A 
ATOM     29  C   UNL     1      -2.924  -4.360   9.971  0.00  0.00    +0.000 A 
ATOM     30  C   UNL     1      -3.026  -4.237   8.598  0.00  0.00    +0.004 A 
ENDBRANCH  24  25
ENDBRANCH  23  24
ENDBRANCH  21  23
ENDBRANCH  19  21
ENDBRANCH  17  19
ENDBRANCH  16  17
ENDBRANCH   1  16
TORSDOF 10
