REMARK  Name = ZINC59601426
REMARK  12 active torsions:
REMARK  status: ('A' for Active; 'I' for Inactive)
REMARK    1  A    between atoms: C_1  and  O_2
REMARK    2  A    between atoms: O_2  and  C_3
REMARK    3  A    between atoms: C_6  and  C_9
REMARK    4  A    between atoms: C_9  and  C_10
REMARK    5  A    between atoms: C_9  and  C_16
REMARK    6  A    between atoms: C_9  and  O_24
REMARK    7  A    between atoms: C_19  and  O_22
REMARK    8  A    between atoms: O_22  and  C_23
REMARK    9  A    between atoms: O_24  and  C_25
REMARK   10  A    between atoms: C_25  and  C_26
REMARK   11  A    between atoms: C_28  and  O_42
REMARK   12  A    between atoms: C_31  and  N_34
REMARK                            x       y       z     vdW  Elec       q    Type
REMARK                         _______ _______ _______ _____ _____    ______ ____
ROOT
ATOM      1  C   UNL     1       2.512  -2.197  -4.561  0.00  0.00    +0.144 C 
ENDROOT
BRANCH   1   5
ATOM      2  C   UNL     1       0.892   1.164  -2.478  0.00  0.00    +0.120 A 
ATOM      3  C   UNL     1       1.156   1.251  -3.837  0.00  0.00    +0.046 A 
ATOM      4  C   UNL     1       1.680   0.163  -4.508  0.00  0.00    +0.011 A 
ATOM      5  C   UNL     1       1.941  -1.012  -3.827  0.00  0.00    -0.007 A 
ATOM      6  C   UNL     1       1.677  -1.100  -2.472  0.00  0.00    +0.011 A 
ATOM      7  C   UNL     1       1.159  -0.013  -1.795  0.00  0.00    +0.046 A 
BRANCH   2   9
ATOM      8  C   UNL     1       0.126   3.413  -2.583  0.00  0.00    +0.277 C 
ATOM      9  O   UNL     1       0.377   2.233  -1.816  0.00  0.00    -0.495 OA
ENDBRANCH   2   9
ENDBRANCH   1   5
BRANCH   1  10
ATOM     10  C   UNL     1       4.002  -2.251  -4.346  0.00  0.00    -0.007 A 
ATOM     11  C   UNL     1       4.515  -2.276  -3.062  0.00  0.00    +0.007 A 
ATOM     12  C   UNL     1       5.882  -2.325  -2.865  0.00  0.00    +0.000 A 
ATOM     13  C   UNL     1       6.737  -2.350  -3.951  0.00  0.00    +0.000 A 
ATOM     14  C   UNL     1       6.224  -2.326  -5.234  0.00  0.00    +0.000 A 
ATOM     15  C   UNL     1       4.857  -2.281  -5.432  0.00  0.00    +0.007 A 
ENDBRANCH   1  10
BRANCH   1  16
ATOM     16  C   UNL     1       1.883  -3.463  -4.039  0.00  0.00    -0.007 A 
ATOM     17  C   UNL     1       0.540  -3.481  -3.710  0.00  0.00    +0.011 A 
ATOM     18  C   UNL     1      -0.040  -4.640  -3.231  0.00  0.00    +0.046 A 
ATOM     19  C   UNL     1       0.727  -5.786  -3.080  0.00  0.00    +0.120 A 
ATOM     20  C   UNL     1       2.075  -5.765  -3.410  0.00  0.00    +0.046 A 
ATOM     21  C   UNL     1       2.648  -4.605  -3.894  0.00  0.00    +0.011 A 
BRANCH  19  22
ATOM     22  O   UNL     1       0.160  -6.927  -2.608  0.00  0.00    -0.495 OA
ATOM     23  C   UNL     1       1.010  -8.069  -2.478  0.00  0.00    +0.277 C 
ENDBRANCH  19  22
ENDBRANCH   1  16
BRANCH   1  24
ATOM     24  O   UNL     1       2.237  -2.070  -5.958  0.00  0.00    -0.357 OA
BRANCH  24  25
ATOM     25  C   UNL     1       0.847  -2.135  -6.285  0.00  0.00    +0.196 C 
BRANCH  25  26
ATOM     26  C   UNL     1       0.662  -1.867  -7.780  0.00  0.00    +0.175 C 
ATOM     27  C   UNL     1      -0.829  -2.023  -8.173  0.00  0.00    +0.150 C 
ATOM     28  C   UNL     1      -0.895  -1.125  -9.439  0.00  0.00    +0.088 C 
ATOM     29  C   UNL     1       0.107  -0.002  -9.097  0.00  0.00    +0.226 C 
ATOM     30  O   UNL     1       0.992  -0.503  -8.086  0.00  0.00    -0.348 OA
BRANCH  29  31
ATOM     31  N   UNL     1       0.873   0.362 -10.292  0.00  0.00    -0.273 N 
ATOM     32  C   UNL     1       0.743   1.608 -10.826  0.00  0.00    +0.096 A 
ATOM     33  C   UNL     1       1.457   1.933 -11.931  0.00  0.00    +0.061 A 
ATOM     34  C   UNL     1       2.316   0.968 -12.497  0.00  0.00    +0.123 A 
ATOM     35  N   UNL     1       2.409  -0.233 -11.942  0.00  0.00    -0.178 NA
ATOM     36  C   UNL     1       1.705  -0.535 -10.853  0.00  0.00    +0.352 A 
ATOM     37  O   UNL     1       1.812  -1.645 -10.358  0.00  0.00    -0.244 OA
ATOM     38  N   UNL     1       3.051   1.271 -13.619  0.00  0.00    -0.343 N 
ATOM     39  H   UNL     1       2.981   2.150 -14.023  0.00  0.00    +0.144 HD
ATOM     40  H   UNL     1       3.641   0.606 -14.006  0.00  0.00    +0.144 HD
ENDBRANCH  29  31
BRANCH  27  41
ATOM     41  O   UNL     1      -1.688  -1.527  -7.144  0.00  0.00    -0.389 OA
ATOM     42  H   UNL     1      -2.630  -1.604  -7.348  0.00  0.00    +0.210 HD
ENDBRANCH  27  41
ENDBRANCH  25  26
ENDBRANCH  24  25
ENDBRANCH   1  24
TORSDOF 10
