REMARK  Name = ZINC54649205
REMARK  7 active torsions:
REMARK  status: ('A' for Active; 'I' for Inactive)
REMARK    1  A    between atoms: C_3  and  C_6
REMARK    2  A    between atoms: C_6  and  C_8
REMARK    3  A    between atoms: C_6  and  N_24
REMARK    4  A    between atoms: C_8  and  N_9
REMARK    5  A    between atoms: N_12  and  C_13
REMARK    6  A    between atoms: C_13  and  C_14
REMARK    7  A    between atoms: N_16  and  C_17
REMARK                            x       y       z     vdW  Elec       q    Type
REMARK                         _______ _______ _______ _____ _____    ______ ____
ROOT
ATOM      1  N   UNL     1       5.289  -0.106   1.318  0.00  0.00    -0.301 N 
ATOM      2  C   UNL     1       5.840  -0.592   2.448  0.00  0.00    +0.300 C 
ATOM      3  O   UNL     1       5.162  -0.721   3.449  0.00  0.00    -0.253 OA
ATOM      4  N   UNL     1       7.144  -0.933   2.469  0.00  0.00    -0.291 N 
ATOM      5  H   UNL     1       5.830  -0.003   0.520  0.00  0.00    +0.150 HD
ATOM      6  H   UNL     1       7.685  -0.829   1.671  0.00  0.00    +0.151 HD
ENDROOT
BRANCH   1   7
ATOM      7  C   UNL     1       3.872   0.265   1.296  0.00  0.00    +0.098 C 
BRANCH   7   8
ATOM      8  C   UNL     1       3.472   0.665  -0.126  0.00  0.00    +0.016 C 
BRANCH   8   9
ATOM      9  N   UNL     1       4.372   1.721  -0.609  0.00  0.00    +0.387 N 
ATOM     10  C   UNL     1       4.353   2.846   0.334  0.00  0.00    -0.078 C 
ATOM     11  C   UNL     1       5.349   3.915  -0.122  0.00  0.00    -0.019 C 
ATOM     12  C   UNL     1       4.956   4.409  -1.517  0.00  0.00    -0.004 C 
ATOM     13  C   UNL     1       4.907   3.216  -2.475  0.00  0.00    -0.019 C 
ATOM     14  C   UNL     1       3.927   2.173  -1.933  0.00  0.00    -0.078 C 
ATOM     15  H   UNL     1       5.310   1.357  -0.676  0.00  0.00    -0.081 HD
ENDBRANCH   8   9
BRANCH   8  18
ATOM     16  C   UNL     1       3.091  -2.309  -2.270  0.00  0.00    +0.041 A 
ATOM     17  C   UNL     1       2.547  -1.306  -1.435  0.00  0.00    +0.043 A 
ATOM     18  C   UNL     1       3.574  -0.535  -1.033  0.00  0.00    +0.093 A 
ATOM     19  O   UNL     1       4.704  -1.015  -1.576  0.00  0.00    -0.469 OA
ATOM     20  C   UNL     1       4.418  -2.091  -2.327  0.00  0.00    +0.195 A 
ENDBRANCH   8  18
ENDBRANCH   7   8
ENDBRANCH   1   7
BRANCH   4  21
ATOM     21  C   UNL     1       7.744  -1.460   3.697  0.00  0.00    +0.202 C 
BRANCH  21  22
ATOM     22  C   UNL     1       9.200  -1.761   3.456  0.00  0.00    +0.234 C 
ATOM     23  O   UNL     1       9.690  -1.556   2.366  0.00  0.00    -0.274 OA
ATOM     24  N   UNL     1       9.959  -2.259   4.452  0.00  0.00    -0.284 N 
ATOM     25  H   UNL     1       9.587  -2.359   5.343  0.00  0.00    +0.155 HD
BRANCH  24  26
ATOM     26  C   UNL     1      11.285  -2.632   4.203  0.00  0.00    +0.034 A 
ATOM     27  C   UNL     1      11.834  -3.729   4.853  0.00  0.00    +0.025 A 
ATOM     28  C   UNL     1      13.142  -4.095   4.605  0.00  0.00    +0.022 A 
ATOM     29  C   UNL     1      13.907  -3.368   3.709  0.00  0.00    +0.041 A 
ATOM     30  C   UNL     1      13.363  -2.274   3.059  0.00  0.00    +0.022 A 
ATOM     31  C   UNL     1      12.053  -1.908   3.300  0.00  0.00    +0.025 A 
ATOM     32 CL   UNL     1      15.552  -3.830   3.400  0.00  0.00    -0.084 Cl
ENDBRANCH  24  26
ENDBRANCH  21  22
ENDBRANCH   4  21
TORSDOF 7
