REMARK  Name = ZINC37027041
REMARK  5 active torsions:
REMARK  status: ('A' for Active; 'I' for Inactive)
REMARK    1  A    between atoms: C_1  and  S_2
REMARK    2  A    between atoms: S_2  and  N_5
REMARK    3  A    between atoms: N_5  and  C_6
REMARK    4  A    between atoms: C_10  and  N_12
REMARK    5  A    between atoms: C_13  and  C_15
REMARK                            x       y       z     vdW  Elec       q    Type
REMARK                         _______ _______ _______ _____ _____    ______ ____
ROOT
ATOM      1  C   UNL     1       2.246  -0.040  -1.333  0.00  0.00    +0.050 A 
ATOM      2  C   UNL     1       2.660   1.207  -0.881  0.00  0.00    +0.026 A 
ATOM      3  C   UNL     1       3.976   1.598  -1.036  0.00  0.00    +0.024 A 
ATOM      4  C   UNL     1       4.885   0.749  -1.641  0.00  0.00    +0.062 A 
ATOM      5  C   UNL     1       4.477  -0.500  -2.094  0.00  0.00    +0.054 A 
ATOM      6  C   UNL     1       3.157  -0.896  -1.935  0.00  0.00    +0.049 A 
ATOM      7 CL   UNL     1       6.538   1.244  -1.834  0.00  0.00    -0.082 Cl
ENDROOT
BRANCH   5   8
ATOM      8  N   UNL     1       5.397  -1.358  -2.706  0.00  0.00    -0.286 N 
ATOM      9  C   UNL     1       5.224  -2.693  -2.636  0.00  0.00    +0.204 C 
ATOM     10  O   UNL     1       4.231  -3.149  -2.109  0.00  0.00    -0.277 OA
ATOM     11  H   UNL     1       6.160  -0.993  -3.180  0.00  0.00    +0.155 HD
BRANCH   9  12
ATOM     12  C   UNL     1       6.263  -3.619  -3.213  0.00  0.00    +0.027 C 
ATOM     13  C   UNL     1       7.622  -3.376  -2.494  0.00  0.00    +0.060 C 
ATOM     14  S   UNL     1       8.431  -4.992  -2.886  0.00  0.00    -0.181 S 
ATOM     15  C   UNL     1       6.899  -6.015  -2.930  0.00  0.00    -0.011 C 
ATOM     16  N   UNL     1       5.824  -5.005  -3.038  0.00  0.00    +0.393 N 
ATOM     17  H   UNL     1       5.261  -5.053  -2.202  0.00  0.00    -0.084 HD
ATOM     18  H   UNL     1       5.240  -5.252  -3.822  0.00  0.00    -0.084 HD
ENDBRANCH   9  12
ENDBRANCH   5   8
BRANCH   1  19
ATOM     19  N   UNL     1       0.914  -0.434  -1.176  0.00  0.00    -0.221 N 
ATOM     20  H   UNL     1       0.317  -0.442  -1.940  0.00  0.00    +0.173 HD
BRANCH  19  22
ATOM     21  C   UNL     1       1.291  -2.385   0.729  0.00  0.00    +0.218 C 
ATOM     22  S   UNL     1       0.355  -0.887   0.316  0.00  0.00    +0.040 S 
ATOM     23  O   UNL     1      -1.014  -1.207   0.108  0.00  0.00    -0.155 OA
ATOM     24  O   UNL     1       0.727   0.177   1.181  0.00  0.00    -0.155 OA
ENDBRANCH  19  22
ENDBRANCH   1  19
TORSDOF 4
