REMARK  Name = ZINC08790772
REMARK  8 active torsions:
REMARK  status: ('A' for Active; 'I' for Inactive)
REMARK    1  A    between atoms: C_1  and  C_2
REMARK    2  A    between atoms: C_2  and  C_3
REMARK    3  A    between atoms: C_17  and  C_19
REMARK    4  A    between atoms: C_19  and  C_21
REMARK    5  A    between atoms: C_19  and  O_22
REMARK    6  A    between atoms: N_25  and  C_28
REMARK    7  A    between atoms: C_28  and  C_29
REMARK    8  A    between atoms: C_29  and  C_30
REMARK                            x       y       z     vdW  Elec       q    Type
REMARK                         _______ _______ _______ _____ _____    ______ ____
ROOT
ATOM      1  C   UNL     1      -0.546   1.224   1.232  0.00  0.00    -0.026 A 
ATOM      2  C   UNL     1      -0.008   2.325   1.866  0.00  0.00    +0.005 A 
ATOM      3  C   UNL     1      -0.596   2.829   3.012  0.00  0.00    +0.001 A 
ATOM      4  C   UNL     1      -1.725   2.219   3.531  0.00  0.00    +0.004 A 
ATOM      5  C   UNL     1      -2.262   1.117   2.905  0.00  0.00    -0.027 A 
ATOM      6  C   UNL     1      -1.681   0.604   1.748  0.00  0.00    +0.039 A 
ATOM      7  N   UNL     1      -2.399  -0.506   1.299  0.00  0.00    -0.286 N 
ATOM      8  C   UNL     1      -3.449  -0.788   2.094  0.00  0.00    +0.211 C 
ATOM      9  O   UNL     1      -4.243  -1.694   1.950  0.00  0.00    -0.277 OA
ATOM     10  C   UNL     1      -3.445   0.237   3.195  0.00  0.00    +0.050 C 
ATOM     11  C   UNL     1      -4.752   1.039   3.218  0.00  0.00    +0.088 C 
ATOM     12  C   UNL     1      -5.606   0.363   4.327  0.00  0.00    +0.075 C 
ATOM     13  C   UNL     1      -4.730  -0.793   4.853  0.00  0.00    -0.028 C 
ATOM     14  C   UNL     1      -5.710   1.434   5.388  0.00  0.00    +0.224 C 
ATOM     15  O   UNL     1      -6.292   1.318   6.446  0.00  0.00    -0.275 OA
ATOM     16  N   UNL     1      -5.060   2.530   4.980  0.00  0.00    -0.241 N 
ATOM     17  C   UNL     1      -4.489   2.421   3.775  0.00  0.00    +0.225 C 
ATOM     18  O   UNL     1      -3.858   3.292   3.217  0.00  0.00    -0.275 OA
ATOM     19  H   UNL     1      -2.168  -1.016   0.506  0.00  0.00    +0.155 HD
ATOM     20  N   UNL     1      -3.365  -0.393   4.501  0.00  0.00    +0.396 N 
ATOM     21  H   UNL     1      -3.002   0.272   5.194  0.00  0.00    -0.083 HD
ATOM     22  H   UNL     1      -2.753  -1.216   4.462  0.00  0.00    -0.083 HD
ENDROOT
BRANCH   1  24
ATOM     23  C   UNL     1      -0.601   1.275  -1.246  0.00  0.00    +0.009 C 
ATOM     24  C   UNL     1       0.100   0.688  -0.019  0.00  0.00    +0.033 C 
ENDBRANCH   1  24
BRANCH  13  25
ATOM     25  C   UNL     1      -4.895  -0.944   6.366  0.00  0.00    +0.098 C 
ATOM     26  C   UNL     1      -6.294  -1.481   6.675  0.00  0.00    +0.036 C 
BRANCH  25  27
ATOM     27  O   UNL     1      -3.914  -1.856   6.864  0.00  0.00    -0.394 OA
ATOM     28  H   UNL     1      -3.960  -2.000   7.819  0.00  0.00    +0.210 HD
ENDBRANCH  25  27
ENDBRANCH  13  25
BRANCH  16  29
ATOM     29  C   UNL     1      -4.980   3.751   5.786  0.00  0.00    +0.121 C 
BRANCH  29  30
ATOM     30  C   UNL     1      -6.162   4.663   5.449  0.00  0.00    +0.054 C 
BRANCH  30  31
ATOM     31  C   UNL     1      -6.080   5.918   6.278  0.00  0.00    -0.046 A 
ATOM     32  C   UNL     1      -6.696   5.972   7.514  0.00  0.00    +0.004 A 
ATOM     33  C   UNL     1      -6.617   7.122   8.277  0.00  0.00    +0.000 A 
ATOM     34  C   UNL     1      -5.930   8.222   7.800  0.00  0.00    +0.000 A 
ATOM     35  C   UNL     1      -5.318   8.171   6.561  0.00  0.00    +0.000 A 
ATOM     36  C   UNL     1      -5.393   7.019   5.801  0.00  0.00    +0.004 A 
ENDBRANCH  30  31
ENDBRANCH  29  30
ENDBRANCH  16  29
TORSDOF 6
