REMARK  Name = ZINC64137471
REMARK  9 active torsions:
REMARK  status: ('A' for Active; 'I' for Inactive)
REMARK    1  A    between atoms: C_4  and  C_7
REMARK    2  A    between atoms: C_7  and  C_9
REMARK    3  A    between atoms: C_7  and  C_26
REMARK    4  A    between atoms: C_9  and  N_10
REMARK    5  A    between atoms: N_10  and  C_11
REMARK    6  A    between atoms: C_11  and  C_12
REMARK    7  A    between atoms: N_15  and  C_22
REMARK    8  A    between atoms: C_22  and  C_23
REMARK    9  A    between atoms: C_23  and  C_24
REMARK                            x       y       z     vdW  Elec       q    Type
REMARK                         _______ _______ _______ _____ _____    ______ ____
ROOT
ATOM      1  C   UNL     1       3.791  -1.579  -1.292  0.00  0.00    -0.070 C 
ENDROOT
BRANCH   1   2
ATOM      2  N   UNL     1       3.810  -0.722  -2.485  0.00  0.00    +0.380 N 
ATOM      3  H   UNL     1       2.967  -0.167  -2.513  0.00  0.00    -0.086 HD
ATOM      4  H   UNL     1       4.612  -0.111  -2.447  0.00  0.00    -0.086 HD
BRANCH   2   5
ATOM      5  C   UNL     1       3.886  -1.559  -3.689  0.00  0.00    -0.073 C 
BRANCH   5   6
ATOM      6  C   UNL     1       3.906  -0.665  -4.931  0.00  0.00    +0.021 C 
ATOM      7  C   UNL     1       4.069  -1.516  -6.201  0.00  0.00    +0.111 C 
ATOM      8  N   UNL     1       2.860  -1.265  -6.990  0.00  0.00    -0.328 N 
ATOM      9  C   UNL     1       2.027  -0.370  -6.317  0.00  0.00    +0.033 A 
ATOM     10  C   UNL     1       2.573   0.027  -5.104  0.00  0.00    -0.024 A 
ATOM     11  C   UNL     1       1.900   0.914  -4.286  0.00  0.00    +0.006 A 
ATOM     12  C   UNL     1       0.672   1.419  -4.671  0.00  0.00    +0.000 A 
ATOM     13  C   UNL     1       0.117   1.033  -5.877  0.00  0.00    +0.002 A 
ATOM     14  C   UNL     1       0.785   0.142  -6.700  0.00  0.00    +0.023 A 
BRANCH   8  15
ATOM     15  C   UNL     1       2.569  -1.865  -8.294  0.00  0.00    +0.120 C 
BRANCH  15  16
ATOM     16  C   UNL     1       1.810  -3.178  -8.093  0.00  0.00    +0.137 C 
BRANCH  16  17
ATOM     17  C   UNL     1       1.518  -3.781  -9.404  0.00  0.00    +0.064 C 
ATOM     18  N   UNL     1       1.292  -4.247 -10.415  0.00  0.00    -0.197 NA
ENDBRANCH  16  17
ENDBRANCH  15  16
ENDBRANCH   8  15
ENDBRANCH   5   6
ENDBRANCH   2   5
ENDBRANCH   1   2
BRANCH   1  19
ATOM     19  C   UNL     1       3.711  -0.707  -0.038  0.00  0.00    +0.030 C 
BRANCH  19  20
ATOM     20  C   UNL     1       3.816  -1.579   1.188  0.00  0.00    -0.036 C 
ATOM     21  C   UNL     1       4.756  -1.509   2.157  0.00  0.00    -0.001 A 
ATOM     22  C   UNL     1       5.920  -0.636   2.352  0.00  0.00    +0.010 A 
ATOM     23  C   UNL     1       6.696  -0.812   3.446  0.00  0.00    +0.001 A 
ATOM     24  C   UNL     1       6.417  -1.805   4.396  0.00  0.00    +0.002 A 
ATOM     25  C   UNL     1       5.366  -2.646   4.285  0.00  0.00    +0.026 A 
ATOM     26  C   UNL     1       4.483  -2.550   3.174  0.00  0.00    +0.043 A 
ATOM     27  N   UNL     1       3.415  -3.236   2.846  0.00  0.00    -0.380 N 
ATOM     28  C   UNL     1       2.886  -2.703   1.585  0.00  0.00    +0.145 C 
ATOM     29  H   UNL     1       3.036  -3.970   3.354  0.00  0.00    +0.160 HD
ENDBRANCH  19  20
BRANCH  19  33
ATOM     30  C   UNL     1      -0.017   1.378   0.010  0.00  0.00    +0.000 A 
ATOM     31  C   UNL     1       1.171   2.086   0.002  0.00  0.00    +0.000 A 
ATOM     32  C   UNL     1       2.377   1.411  -0.013  0.00  0.00    +0.004 A 
ATOM     33  C   UNL     1       2.396   0.029  -0.020  0.00  0.00    -0.042 A 
ATOM     34  C   UNL     1       1.208  -0.679  -0.012  0.00  0.00    +0.004 A 
ATOM     35  C   UNL     1       0.002  -0.004   0.002  0.00  0.00    +0.000 A 
ENDBRANCH  19  33
ENDBRANCH   1  19
TORSDOF 9
