REMARK  Name = ZINC63208820
REMARK  5 active torsions:
REMARK  status: ('A' for Active; 'I' for Inactive)
REMARK    1  A    between atoms: C_7  and  C_10
REMARK    2  A    between atoms: C_10  and  C_11
REMARK    3  A    between atoms: N_15  and  C_19
REMARK    4  A    between atoms: C_19  and  C_20
REMARK    5  A    between atoms: N_25  and  C_26
REMARK                            x       y       z     vdW  Elec       q    Type
REMARK                         _______ _______ _______ _____ _____    ______ ____
ROOT
ATOM      1  C   UNL     1       0.456  -3.654  -1.468  0.00  0.00    +0.165 C 
ATOM      2  C   UNL     1      -0.434  -4.881  -1.496  0.00  0.00    +0.244 C 
ATOM      3  O   UNL     1      -0.202  -5.965  -1.004  0.00  0.00    -0.273 OA
ATOM      4  N   UNL     1      -1.536  -4.517  -2.181  0.00  0.00    -0.216 N 
ATOM      5  C   UNL     1      -1.466  -3.243  -2.586  0.00  0.00    +0.310 C 
ATOM      6  O   UNL     1      -2.341  -2.688  -3.221  0.00  0.00    -0.252 OA
ATOM      7  N   UNL     1      -0.317  -2.644  -2.211  0.00  0.00    -0.287 N 
ATOM      8  H   UNL     1      -0.052  -1.730  -2.393  0.00  0.00    +0.151 HD
ENDROOT
BRANCH   1   9
ATOM      9  C   UNL     1       0.696  -3.196  -0.028  0.00  0.00    +0.065 C 
BRANCH   9  16
ATOM     10  C   UNL     1      -0.006   1.338   0.038  0.00  0.00    +0.001 A 
ATOM     11  C   UNL     1       1.177   2.090   0.032  0.00  0.00    +0.002 A 
ATOM     12  C   UNL     1       2.401   1.522   0.009  0.00  0.00    +0.026 A 
ATOM     13  C   UNL     1       2.538   0.107  -0.011  0.00  0.00    +0.043 A 
ATOM     14  N   UNL     1       3.595  -0.668  -0.035  0.00  0.00    -0.380 N 
ATOM     15  C   UNL     1       3.150  -2.066  -0.046  0.00  0.00    +0.144 C 
ATOM     16  C   UNL     1       1.638  -2.020  -0.025  0.00  0.00    -0.039 C 
ATOM     17  C   UNL     1       1.303  -0.710  -0.004  0.00  0.00    -0.001 A 
ATOM     18  C   UNL     1       0.011  -0.014   0.021  0.00  0.00    +0.010 A 
ATOM     19  H   UNL     1       4.517  -0.368  -0.044  0.00  0.00    +0.160 HD
ENDBRANCH   9  16
ENDBRANCH   1   9
BRANCH   4  20
ATOM     20  C   UNL     1      -2.668  -5.405  -2.451  0.00  0.00    +0.214 C 
BRANCH  20  21
ATOM     21  C   UNL     1      -3.672  -5.293  -1.332  0.00  0.00    +0.238 C 
ATOM     22  O   UNL     1      -3.462  -4.545  -0.402  0.00  0.00    -0.274 OA
ATOM     23  N   UNL     1      -4.803  -6.025  -1.366  0.00  0.00    -0.239 N 
ATOM     24  C   UNL     1      -5.701  -5.925  -0.365  0.00  0.00    +0.310 C 
ATOM     25  O   UNL     1      -5.490  -5.174   0.567  0.00  0.00    -0.252 OA
ATOM     26  N   UNL     1      -6.832  -6.656  -0.399  0.00  0.00    -0.269 N 
ATOM     27  H   UNL     1      -4.972  -6.624  -2.110  0.00  0.00    +0.159 HD
ATOM     28  H   UNL     1      -7.033  -7.204  -1.174  0.00  0.00    +0.156 HD
BRANCH  26  29
ATOM     29  C   UNL     1      -7.719  -6.626   0.685  0.00  0.00    +0.038 A 
ATOM     30  C   UNL     1      -8.414  -7.772   1.047  0.00  0.00    +0.027 A 
ATOM     31  C   UNL     1      -9.288  -7.742   2.116  0.00  0.00    +0.051 A 
ATOM     32  C   UNL     1      -9.475  -6.568   2.831  0.00  0.00    +0.162 A 
ATOM     33  C   UNL     1      -8.780  -5.420   2.472  0.00  0.00    +0.164 A 
ATOM     34  C   UNL     1      -7.899  -5.451   1.402  0.00  0.00    +0.072 A 
ATOM     35  O   UNL     1      -8.944  -4.261   3.167  0.00  0.00    -0.485 OA
ATOM     36  C   UNL     1     -10.105  -4.168   3.999  0.00  0.00    +0.270 C 
ATOM     37  C   UNL     1     -10.225  -5.470   4.803  0.00  0.00    +0.270 C 
ATOM     38  O   UNL     1     -10.345  -6.557   3.879  0.00  0.00    -0.485 OA
ENDBRANCH  26  29
ENDBRANCH  20  21
ENDBRANCH   4  20
TORSDOF 5
