REMARK  Name = ZINC67416044
REMARK  8 active torsions:
REMARK  status: ('A' for Active; 'I' for Inactive)
REMARK    1  A    between atoms: C_1  and  C_2
REMARK    2  A    between atoms: C_2  and  C_4
REMARK    3  A    between atoms: C_2  and  N_18
REMARK    4  A    between atoms: N_6  and  C_7
REMARK    5  A    between atoms: C_8  and  C_15
REMARK    6  A    between atoms: C_22  and  C_25
REMARK    7  A    between atoms: C_25  and  N_26
REMARK    8  A    between atoms: C_27  and  C_29
REMARK                            x       y       z     vdW  Elec       q    Type
REMARK                         _______ _______ _______ _____ _____    ______ ____
ROOT
ATOM      1  C   UNL     1      -1.444  -0.422  -0.069  0.00  0.00    +0.204 C 
ATOM      2  O   UNL     1      -1.865  -0.982  -1.060  0.00  0.00    -0.277 OA
ATOM      3  N   UNL     1      -2.269  -0.175   0.967  0.00  0.00    -0.281 N 
ATOM      4  H   UNL     1      -1.932   0.273   1.759  0.00  0.00    +0.155 HD
ENDROOT
BRANCH   3   5
ATOM      5  C   UNL     1      -3.599  -0.560   0.901  0.00  0.00    +0.084 A 
ATOM      6  C   UNL     1      -4.583  -0.385   1.857  0.00  0.00    +0.068 A 
ATOM      7  C   UNL     1      -5.920  -0.885   1.541  0.00  0.00    -0.023 A 
ATOM      8  C   UNL     1      -6.017  -1.466   0.332  0.00  0.00    -0.004 A 
ATOM      9  S   UNL     1      -4.387  -1.338  -0.358  0.00  0.00    -0.077 S 
ATOM     10  C   UNL     1      -7.410  -1.966   0.060  0.00  0.00    +0.043 C 
ATOM     11  C   UNL     1      -8.089  -2.003   1.447  0.00  0.00    +0.010 C 
ATOM     12  C   UNL     1      -7.288  -0.935   2.219  0.00  0.00    +0.037 C 
BRANCH   6  13
ATOM     13  C   UNL     1      -4.297   0.275   3.135  0.00  0.00    +0.244 C 
ATOM     14  O   UNL     1      -4.427   1.480   3.240  0.00  0.00    -0.270 OA
ATOM     15  N   UNL     1      -3.891  -0.454   4.193  0.00  0.00    -0.325 N 
ATOM     16  H   UNL     1      -3.788  -1.415   4.110  0.00  0.00    +0.145 HD
ATOM     17  H   UNL     1      -3.702  -0.017   5.039  0.00  0.00    +0.145 HD
ENDBRANCH   6  13
ENDBRANCH   3   5
BRANCH   1  19
ATOM     18  C   UNL     1       0.145   1.427  -0.520  0.00  0.00    -0.004 C 
ATOM     19  C   UNL     1       0.002  -0.004   0.002  0.00  0.00    +0.016 C 
BRANCH  19  20
ATOM     20  N   UNL     1       0.815  -0.909  -0.821  0.00  0.00    +0.387 N 
ATOM     21  C   UNL     1       0.662  -2.284  -0.331  0.00  0.00    -0.078 C 
ATOM     22  C   UNL     1       1.442  -3.242  -1.234  0.00  0.00    -0.018 C 
ATOM     23  C   UNL     1       2.924  -2.855  -1.220  0.00  0.00    +0.001 C 
ATOM     24  C   UNL     1       3.064  -1.395  -1.662  0.00  0.00    -0.011 C 
ATOM     25  C   UNL     1       2.224  -0.506  -0.743  0.00  0.00    -0.073 C 
ATOM     26  H   UNL     1       0.505  -0.860  -1.780  0.00  0.00    -0.081 HD
BRANCH  24  27
ATOM     27  C   UNL     1       4.533  -0.975  -1.578  0.00  0.00    +0.105 C 
BRANCH  27  28
ATOM     28  N   UNL     1       5.319  -1.750  -2.542  0.00  0.00    -0.315 N 
ATOM     29  C   UNL     1       6.647  -1.548  -2.646  0.00  0.00    +0.210 C 
ATOM     30  O   UNL     1       7.192  -0.725  -1.941  0.00  0.00    -0.276 OA
ATOM     31  C   UNL     1       7.455  -2.344  -3.638  0.00  0.00    +0.109 C 
ATOM     32  H   UNL     1       4.883  -2.407  -3.106  0.00  0.00    +0.149 HD
ENDBRANCH  27  28
ENDBRANCH  24  27
ENDBRANCH  19  20
ENDBRANCH   1  19
TORSDOF 6
