REMARK  Name = ZINC56508902
REMARK  10 active torsions:
REMARK  status: ('A' for Active; 'I' for Inactive)
REMARK    1  A    between atoms: C_1  and  C_2
REMARK    2  A    between atoms: C_2  and  C_3
REMARK    3  A    between atoms: C_3  and  N_4
REMARK    4  A    between atoms: N_4  and  C_5
REMARK    5  A    between atoms: N_4  and  C_10
REMARK    6  A    between atoms: C_5  and  C_6
REMARK    7  A    between atoms: N_8  and  C_9
REMARK    8  A    between atoms: C_10  and  C_11
REMARK    9  A    between atoms: N_16  and  C_17
REMARK   10  A    between atoms: C_23  and  C_25
REMARK                            x       y       z     vdW  Elec       q    Type
REMARK                         _______ _______ _______ _____ _____    ______ ____
ROOT
ATOM      1  C   UNL     1       0.657  -1.813   1.155  0.00  0.00    +0.204 C 
ATOM      2  O   UNL     1       1.044  -1.113   0.245  0.00  0.00    -0.277 OA
ATOM      3  N   UNL     1       1.461  -2.053   2.210  0.00  0.00    -0.242 N 
ATOM      4  C   UNL     1       2.696  -1.514   2.252  0.00  0.00    +0.306 C 
ATOM      5  O   UNL     1       3.084  -0.811   1.339  0.00  0.00    -0.252 OA
ATOM      6  N   UNL     1       3.500  -1.754   3.307  0.00  0.00    -0.296 N 
ATOM      7  H   UNL     1       1.152  -2.614   2.939  0.00  0.00    +0.159 HD
ATOM      8  H   UNL     1       3.190  -2.314   4.035  0.00  0.00    +0.151 HD
ENDROOT
BRANCH   6   9
ATOM      9  C   UNL     1       4.842  -1.167   3.353  0.00  0.00    +0.077 C 
ATOM     10  C   UNL     1       4.760   0.250   3.924  0.00  0.00    +0.022 C 
ATOM     11  C   UNL     1       6.162   0.862   3.972  0.00  0.00    +0.002 C 
ATOM     12  C   UNL     1       7.062   0.004   4.863  0.00  0.00    +0.000 C 
ATOM     13  C   UNL     1       7.144  -1.413   4.292  0.00  0.00    +0.005 C 
ATOM     14  C   UNL     1       5.743  -2.025   4.244  0.00  0.00    +0.006 C 
ATOM     15  C   UNL     1       5.824  -3.442   3.673  0.00  0.00    +0.009 C 
ENDBRANCH   6   9
BRANCH   1  16
ATOM     16  C   UNL     1      -0.723  -2.416   1.108  0.00  0.00    +0.020 C 
BRANCH  16  17
ATOM     17  N   UNL     1      -1.335  -2.138  -0.198  0.00  0.00    +0.391 N 
ATOM     18  H   UNL     1      -1.297  -1.147  -0.383  0.00  0.00    -0.080 HD
BRANCH  17  19
ATOM     19  C   UNL     1      -2.735  -2.581  -0.188  0.00  0.00    -0.078 C 
BRANCH  19  21
ATOM     20  C   UNL     1      -5.016  -2.088   0.705  0.00  0.00    +0.002 C 
ATOM     21  C   UNL     1      -3.531  -1.732   0.805  0.00  0.00    -0.022 C 
ENDBRANCH  19  21
ENDBRANCH  17  19
BRANCH  17  22
ATOM     22  C   UNL     1      -0.601  -2.860  -1.246  0.00  0.00    +0.019 C 
BRANCH  22  23
ATOM     23  C   UNL     1      -1.149  -2.479  -2.597  0.00  0.00    +0.196 C 
ATOM     24  O   UNL     1      -2.062  -1.685  -2.679  0.00  0.00    -0.278 OA
ATOM     25  N   UNL     1      -0.626  -3.022  -3.714  0.00  0.00    -0.320 N 
ATOM     26  C   UNL     1      -1.159  -2.652  -5.028  0.00  0.00    +0.128 C 
ATOM     27  H   UNL     1       0.104  -3.657  -3.649  0.00  0.00    +0.148 HD
ENDBRANCH  22  23
ENDBRANCH  17  22
ENDBRANCH  16  17
ENDBRANCH   1  16
TORSDOF 7
