REMARK  Name = ZINC21885927
REMARK  5 active torsions:
REMARK  status: ('A' for Active; 'I' for Inactive)
REMARK    1  A    between atoms: C_1  and  C_2
REMARK    2  A    between atoms: C_3  and  N_17
REMARK    3  A    between atoms: N_6  and  C_16
REMARK    4  A    between atoms: N_9  and  C_10
REMARK    5  A    between atoms: C_23  and  C_25
REMARK                            x       y       z     vdW  Elec       q    Type
REMARK                         _______ _______ _______ _____ _____    ______ ____
ROOT
ATOM      1  N   UNL     1       1.854  -1.201  -0.101  0.00  0.00    -0.321 N 
ATOM      2  C   UNL     1       2.372  -1.532   1.233  0.00  0.00    +0.124 C 
ATOM      3  C   UNL     1       2.412  -3.055   1.399  0.00  0.00    +0.127 C 
ATOM      4  N   UNL     1       3.171  -3.627   0.277  0.00  0.00    -0.293 N 
ATOM      5  C   UNL     1       2.797  -3.233  -1.090  0.00  0.00    +0.127 C 
ATOM      6  C   UNL     1       2.742  -1.703  -1.157  0.00  0.00    +0.124 C 
ATOM      7  C   UNL     1       4.183  -4.489   0.495  0.00  0.00    +0.267 C 
ATOM      8  O   UNL     1       4.439  -4.852   1.627  0.00  0.00    -0.268 OA
ENDROOT
BRANCH   7   9
ATOM      9  C   UNL     1       4.982  -4.994  -0.641  0.00  0.00    +0.151 A 
ATOM     10  C   UNL     1       6.122  -5.796  -0.562  0.00  0.00    +0.010 A 
ATOM     11  C   UNL     1       6.510  -6.019  -1.864  0.00  0.00    +0.070 A 
ATOM     12  N   UNL     1       5.640  -5.361  -2.654  0.00  0.00    -0.276 N 
ATOM     13  H   UNL     1       5.763  -5.384  -3.747  0.00  0.00    +0.189 HD
ATOM     14  N   UNL     1       4.748  -4.776  -1.926  0.00  0.00    -0.168 NA
ATOM     15  C   UNL     1       7.686  -6.861  -2.159  0.00  0.00    +0.003 A 
ATOM     16  C   UNL     1       8.296  -6.860  -3.405  0.00  0.00    +0.010 A 
ATOM     17  C   UNL     1       9.444  -7.603  -3.603  0.00  0.00    +0.001 A 
ATOM     18  C   UNL     1       9.976  -8.342  -2.561  0.00  0.00    +0.000 A 
ATOM     19  C   UNL     1       9.360  -8.358  -1.323  0.00  0.00    +0.004 A 
ATOM     20  C   UNL     1       8.204  -7.631  -1.111  0.00  0.00    -0.038 A 
ATOM     21  C   UNL     1       7.520  -7.682   0.227  0.00  0.00    +0.040 C 
ATOM     22  C   UNL     1       6.878  -6.350   0.610  0.00  0.00    +0.044 C 
ENDBRANCH   7   9
BRANCH   1  25
ATOM     23  C   UNL     1      -0.785  -0.240  -0.484  0.00  0.00    +0.066 C 
ATOM     24  C   UNL     1       0.402   0.685  -0.416  0.00  0.00    +0.052 A 
ATOM     25  C   UNL     1       1.647   0.184  -0.232  0.00  0.00    +0.115 A 
ATOM     26  C   UNL     1       2.774   1.119  -0.172  0.00  0.00    +0.278 A 
ATOM     27  O   UNL     1       3.910   0.711  -0.008  0.00  0.00    -0.265 OA
ATOM     28  N   UNL     1       2.531   2.440  -0.302  0.00  0.00    -0.262 N 
ATOM     29  C   UNL     1       1.275   2.885  -0.483  0.00  0.00    +0.336 A 
ATOM     30  O   UNL     1       1.080   4.080  -0.598  0.00  0.00    -0.246 OA
ATOM     31  N   UNL     1       0.230   2.042  -0.541  0.00  0.00    -0.265 N 
ATOM     32  C   UNL     1       3.642   3.394  -0.246  0.00  0.00    +0.157 C 
BRANCH  31  33
ATOM     33  C   UNL     1      -1.057   2.557  -0.737  0.00  0.00    +0.051 A 
ATOM     34  C   UNL     1      -1.724   2.327  -1.933  0.00  0.00    +0.026 A 
ATOM     35  C   UNL     1      -2.995   2.831  -2.122  0.00  0.00    +0.002 A 
ATOM     36  C   UNL     1      -3.601   3.574  -1.125  0.00  0.00    +0.000 A 
ATOM     37  C   UNL     1      -2.938   3.810   0.066  0.00  0.00    +0.002 A 
ATOM     38  C   UNL     1      -1.668   3.303   0.262  0.00  0.00    +0.026 A 
ENDBRANCH  31  33
ENDBRANCH   1  25
TORSDOF 3
