REMARK  Name = ZINC35265812
REMARK  14 active torsions:
REMARK  status: ('A' for Active; 'I' for Inactive)
REMARK    1  A    between atoms: C_1  and  C_2
REMARK    2  A    between atoms: C_2  and  C_3
REMARK    3  A    between atoms: C_3  and  N_4
REMARK    4  A    between atoms: C_5  and  C_37
REMARK    5  A    between atoms: C_6  and  C_30
REMARK    6  A    between atoms: C_7  and  C_12
REMARK    7  A    between atoms: C_16  and  N_18
REMARK    8  A    between atoms: N_21  and  C_22
REMARK    9  A    between atoms: C_26  and  C_28
REMARK   10  A    between atoms: C_30  and  O_32
REMARK   11  A    between atoms: O_32  and  C_33
REMARK   12  A    between atoms: C_33  and  C_34
REMARK   13  A    between atoms: C_34  and  O_35
REMARK   14  A    between atoms: O_35  and  C_36
REMARK                            x       y       z     vdW  Elec       q    Type
REMARK                         _______ _______ _______ _____ _____    ______ ____
ROOT
ATOM      1  C   UNL     1      -0.105  -5.941   0.080  0.00  0.00    -0.021 A 
ATOM      2  C   UNL     1       1.146  -5.463   0.425  0.00  0.00    +0.006 A 
ATOM      3  C   UNL     1       2.195  -6.342   0.621  0.00  0.00    +0.002 A 
ATOM      4  C   UNL     1       1.996  -7.701   0.472  0.00  0.00    +0.023 A 
ATOM      5  C   UNL     1       0.741  -8.184   0.125  0.00  0.00    +0.035 A 
ATOM      6  C   UNL     1      -0.312  -7.298  -0.065  0.00  0.00    +0.029 A 
ENDROOT
BRANCH   1  10
ATOM      7  N   UNL     1      -1.023  -2.250  -0.528  0.00  0.00    -0.259 N 
ATOM      8  C   UNL     1      -1.005  -3.051  -1.634  0.00  0.00    +0.024 C 
ATOM      9  C   UNL     1      -1.109  -4.393  -1.524  0.00  0.00    +0.078 C 
ATOM     10  C   UNL     1      -1.245  -4.979  -0.133  0.00  0.00    +0.144 C 
ATOM     11  N   UNL     1      -1.254  -4.029   0.993  0.00  0.00    -0.288 N 
ATOM     12  C   UNL     1      -1.136  -2.714   0.723  0.00  0.00    +0.307 C 
ATOM     13  O   UNL     1      -1.138  -1.922   1.646  0.00  0.00    -0.252 OA
ATOM     14  C   UNL     1      -0.868  -2.427  -2.999  0.00  0.00    +0.061 C 
ATOM     15  H   UNL     1      -1.338  -4.343   1.906  0.00  0.00    +0.151 HD
BRANCH   9  16
ATOM     16  C   UNL     1      -1.091  -5.224  -2.669  0.00  0.00    +0.339 C 
ATOM     17  O   UNL     1      -0.982  -4.731  -3.776  0.00  0.00    -0.245 OA
BRANCH  16  18
ATOM     18  O   UNL     1      -1.197  -6.562  -2.533  0.00  0.00    -0.459 OA
BRANCH  18  19
ATOM     19  C   UNL     1      -1.172  -7.340  -3.732  0.00  0.00    +0.260 C 
BRANCH  19  20
ATOM     20  C   UNL     1      -1.302  -8.823  -3.380  0.00  0.00    +0.200 C 
BRANCH  20  21
ATOM     21  O   UNL     1      -2.585  -9.064  -2.799  0.00  0.00    -0.380 OA
ATOM     22  C   UNL     1      -2.810 -10.427  -2.432  0.00  0.00    +0.194 C 
ENDBRANCH  20  21
ENDBRANCH  19  20
ENDBRANCH  18  19
ENDBRANCH  16  18
ENDBRANCH   9  16
BRANCH   7  23
ATOM     23  C   UNL     1      -0.907  -0.802  -0.721  0.00  0.00    +0.114 C 
BRANCH  23  25
ATOM     24  C   UNL     1      -2.164   1.296  -1.229  0.00  0.00    +0.005 C 
ATOM     25  C   UNL     1      -2.286  -0.216  -1.028  0.00  0.00    +0.016 C 
ENDBRANCH  23  25
ENDBRANCH   7  23
ENDBRANCH   1  10
BRANCH   5  26
ATOM     26  N   UNL     1       0.537  -9.559  -0.028  0.00  0.00    -0.269 N 
ATOM     27  C   UNL     1       1.524 -10.338  -0.514  0.00  0.00    +0.308 C 
ATOM     28  O   UNL     1       2.558  -9.833  -0.908  0.00  0.00    -0.252 OA
ATOM     29  N   UNL     1       1.365 -11.675  -0.565  0.00  0.00    -0.269 N 
ATOM     30  H   UNL     1      -0.315  -9.953   0.217  0.00  0.00    +0.156 HD
ATOM     31  H   UNL     1       0.512 -12.071  -0.325  0.00  0.00    +0.156 HD
BRANCH  29  32
ATOM     32  C   UNL     1       2.429 -12.492  -0.964  0.00  0.00    +0.036 A 
ATOM     33  C   UNL     1       2.180 -13.665  -1.667  0.00  0.00    +0.023 A 
ATOM     34  C   UNL     1       3.227 -14.475  -2.063  0.00  0.00    +0.003 A 
ATOM     35  C   UNL     1       4.528 -14.125  -1.763  0.00  0.00    +0.019 A 
ATOM     36  C   UNL     1       4.789 -12.949  -1.057  0.00  0.00    +0.054 A 
ATOM     37  C   UNL     1       3.732 -12.128  -0.662  0.00  0.00    +0.042 A 
BRANCH  36  38
ATOM     38  C   UNL     1       6.138 -12.583  -0.745  0.00  0.00    +0.099 C 
ATOM     39  N   UNL     1       7.208 -12.293  -0.496  0.00  0.00    -0.191 NA
ENDBRANCH  36  38
ENDBRANCH  29  32
ENDBRANCH   5  26
TORSDOF 11
