REMARK  Name = ZINC42636594
REMARK  9 active torsions:
REMARK  status: ('A' for Active; 'I' for Inactive)
REMARK    1  A    between atoms: C_1  and  C_2
REMARK    2  A    between atoms: C_2  and  C_4
REMARK    3  A    between atoms: C_2  and  N_14
REMARK    4  A    between atoms: N_14  and  C_15
REMARK    5  A    between atoms: C_15  and  C_17
REMARK    6  A    between atoms: C_15  and  C_18
REMARK    7  A    between atoms: N_20  and  C_21
REMARK    8  A    between atoms: C_25  and  N_27
REMARK    9  A    between atoms: C_28  and  C_30
REMARK                            x       y       z     vdW  Elec       q    Type
REMARK                         _______ _______ _______ _____ _____    ______ ____
ROOT
ATOM      1  C   UNL     1       0.031   0.124  -2.385  0.00  0.00    +0.014 C 
ATOM      2  C   UNL     1       0.151   1.644  -2.505  0.00  0.00    -0.004 C 
ENDROOT
BRANCH   1   3
ATOM      3  C   UNL     1       0.645  -0.526  -3.599  0.00  0.00    +0.203 C 
ATOM      4  O   UNL     1       1.578  -1.290  -3.471  0.00  0.00    -0.277 OA
ATOM      5  N   UNL     1       0.157  -0.257  -4.826  0.00  0.00    -0.287 N 
ATOM      6  H   UNL     1      -0.538   0.411  -4.936  0.00  0.00    +0.155 HD
BRANCH   5   7
ATOM      7  C   UNL     1       0.653  -0.941  -5.941  0.00  0.00    +0.035 A 
ATOM      8  C   UNL     1       0.764  -0.290  -7.164  0.00  0.00    +0.023 A 
ATOM      9  C   UNL     1       1.254  -0.964  -8.265  0.00  0.00    +0.004 A 
ATOM     10  C   UNL     1       1.634  -2.288  -8.155  0.00  0.00    +0.023 A 
ATOM     11  C   UNL     1       1.526  -2.945  -6.936  0.00  0.00    +0.035 A 
ATOM     12  C   UNL     1       1.040  -2.268  -5.827  0.00  0.00    +0.046 A 
BRANCH  11  13
ATOM     13  N   UNL     1       1.912  -4.285  -6.826  0.00  0.00    -0.286 N 
ATOM     14  C   UNL     1       2.952  -4.748  -7.547  0.00  0.00    +0.214 C 
ATOM     15  O   UNL     1       3.613  -3.985  -8.218  0.00  0.00    -0.276 OA
ATOM     16  C   UNL     1       3.295  -6.216  -7.518  0.00  0.00    +0.109 C 
ATOM     17  H   UNL     1       1.431  -4.881  -6.231  0.00  0.00    +0.155 HD
ENDBRANCH  11  13
ENDBRANCH   5   7
ENDBRANCH   1   3
BRANCH   1  18
ATOM     18  N   UNL     1       0.737  -0.329  -1.179  0.00  0.00    +0.391 N 
ATOM     19  H   UNL     1       1.686   0.012  -1.196  0.00  0.00    -0.084 HD
ATOM     20  H   UNL     1       0.742  -1.337  -1.150  0.00  0.00    -0.084 HD
BRANCH  18  22
ATOM     21  C   UNL     1       0.863  -0.161   1.261  0.00  0.00    -0.009 C 
ATOM     22  C   UNL     1       0.052   0.191   0.013  0.00  0.00    -0.043 C 
BRANCH  22  23
ATOM     23  C   UNL     1      -1.319  -0.427   0.114  0.00  0.00    -0.061 A 
ATOM     24  C   UNL     1      -1.500  -1.765  -0.183  0.00  0.00    +0.002 A 
ATOM     25  C   UNL     1      -2.759  -2.323  -0.091  0.00  0.00    +0.004 A 
ATOM     26  C   UNL     1      -3.846  -1.551   0.299  0.00  0.00    -0.044 A 
ATOM     27  C   UNL     1      -3.665  -0.220   0.599  0.00  0.00    -0.044 A 
ATOM     28  C   UNL     1      -2.396   0.339   0.507  0.00  0.00    +0.006 A 
ATOM     29  C   UNL     1      -4.794   0.672   1.042  0.00  0.00    +0.035 C 
ATOM     30  C   UNL     1      -6.143   0.049   0.687  0.00  0.00    +0.005 C 
ATOM     31  C   UNL     1      -6.162  -1.392   1.210  0.00  0.00    +0.005 C 
ATOM     32  C   UNL     1      -5.193  -2.222   0.370  0.00  0.00    +0.035 C 
ENDBRANCH  22  23
ENDBRANCH  18  22
ENDBRANCH   1  18
TORSDOF 6
