REMARK  Name = ZINC44737472
REMARK  8 active torsions:
REMARK  status: ('A' for Active; 'I' for Inactive)
REMARK    1  A    between atoms: C_1  and  C_2
REMARK    2  A    between atoms: C_9  and  C_11
REMARK    3  A    between atoms: C_11  and  C_13
REMARK    4  A    between atoms: C_11  and  N_14
REMARK    5  A    between atoms: C_15  and  C_17
REMARK    6  A    between atoms: C_28  and  C_30
REMARK    7  A    between atoms: C_32  and  C_39
REMARK    8  A    between atoms: C_34  and  C_35
REMARK                            x       y       z     vdW  Elec       q    Type
REMARK                         _______ _______ _______ _____ _____    ______ ____
ROOT
ATOM      1  C   UNL     1       1.920  -8.709   0.928  0.00  0.00    +0.100 C 
ATOM      2  C   UNL     1       0.794  -9.456   0.179  0.00  0.00    +0.121 C 
ATOM      3  N   UNL     1       1.268 -10.857   0.093  0.00  0.00    -0.296 N 
ATOM      4  C   UNL     1       1.911 -11.110   1.405  0.00  0.00    +0.115 C 
ATOM      5  C   UNL     1       2.651  -9.797   1.732  0.00  0.00    -0.004 C 
ATOM      6  C   UNL     1       2.562  -9.501   3.226  0.00  0.00    -0.010 C 
ATOM      7  C   UNL     1       3.345 -10.565   4.000  0.00  0.00    -0.082 C 
ATOM      8  N   UNL     1       4.745 -10.560   3.562  0.00  0.00    +0.379 N 
ATOM      9  C   UNL     1       4.829 -10.938   2.146  0.00  0.00    -0.082 C 
ATOM     10  C   UNL     1       4.109  -9.889   1.293  0.00  0.00    -0.010 C 
ATOM     11  C   UNL     1       1.142 -11.710  -0.943  0.00  0.00    +0.250 C 
ATOM     12  O   UNL     1       0.688 -11.318  -2.001  0.00  0.00    -0.270 OA
ATOM     13  H   UNL     1       5.132  -9.636   3.686  0.00  0.00    -0.086 HD
ATOM     14  H   UNL     1       5.272 -11.219   4.116  0.00  0.00    -0.086 HD
ENDROOT
BRANCH  11  15
ATOM     15  C   UNL     1       1.555 -13.117  -0.794  0.00  0.00    +0.087 A 
ATOM     16  C   UNL     1       1.982 -13.792   0.440  0.00  0.00    +0.058 A 
ATOM     17  C   UNL     1       2.258 -15.058   0.091  0.00  0.00    +0.103 A 
ATOM     18  O   UNL     1       2.040 -15.209  -1.224  0.00  0.00    -0.455 OA
ATOM     19  C   UNL     1       1.615 -14.066  -1.772  0.00  0.00    +0.220 A 
ATOM     20  C   UNL     1       2.736 -16.137   1.028  0.00  0.00    +0.086 C 
BRANCH  19  21
ATOM     21  C   UNL     1       1.265 -13.861  -3.223  0.00  0.00    +0.451 C 
ATOM     22  F   UNL     1       2.406 -13.458  -3.925  0.00  0.00    -0.163 F 
ATOM     23  F   UNL     1       0.786 -15.060  -3.762  0.00  0.00    -0.163 F 
ATOM     24  F   UNL     1       0.279 -12.874  -3.330  0.00  0.00    -0.163 F 
ENDBRANCH  19  21
ENDBRANCH  11  15
BRANCH   1  26
ATOM     25  N   UNL     1       2.098  -6.647   2.283  0.00  0.00    -0.305 N 
ATOM     26  C   UNL     1       1.337  -7.674   1.855  0.00  0.00    +0.219 C 
ATOM     27  O   UNL     1       0.183  -7.766   2.217  0.00  0.00    -0.275 OA
ATOM     28  H   UNL     1       3.020  -6.573   1.994  0.00  0.00    +0.149 HD
BRANCH  25  29
ATOM     29  C   UNL     1       1.530  -5.641   3.185  0.00  0.00    +0.136 C 
ATOM     30  C   UNL     1       0.806  -4.572   2.365  0.00  0.00    +0.036 C 
BRANCH  29  39
ATOM     31  C   UNL     1       6.040  -2.219   8.015  0.00  0.00    +0.044 C 
ATOM     32  C   UNL     1       5.527  -2.947   6.800  0.00  0.00    -0.048 A 
ATOM     33  C   UNL     1       6.403  -3.283   5.777  0.00  0.00    +0.005 A 
ATOM     34  C   UNL     1       5.958  -3.943   4.667  0.00  0.00    +0.030 A 
ATOM     35  C   UNL     1       4.609  -4.287   4.556  0.00  0.00    +0.089 A 
ATOM     36  C   UNL     1       3.721  -3.948   5.591  0.00  0.00    +0.067 A 
ATOM     37  C   UNL     1       4.192  -3.281   6.714  0.00  0.00    +0.031 A 
ATOM     38  N   UNL     1       2.482  -4.412   5.198  0.00  0.00    -0.340 N 
ATOM     39  C   UNL     1       2.637  -4.999   3.981  0.00  0.00    +0.128 A 
ATOM     40  N   UNL     1       3.881  -4.927   3.605  0.00  0.00    -0.231 NA
ATOM     41  H   UNL     1       1.654  -4.334   5.697  0.00  0.00    +0.167 HD
ENDBRANCH  29  39
ENDBRANCH  25  29
ENDBRANCH   1  26
TORSDOF 5
