REMARK  Name = ZINC15547410
REMARK  10 active torsions:
REMARK  status: ('A' for Active; 'I' for Inactive)
REMARK    1  A    between atoms: C_1  and  C_2
REMARK    2  A    between atoms: C_2  and  C_3
REMARK    3  A    between atoms: N_12  and  C_13
REMARK    4  A    between atoms: C_13  and  C_14
REMARK    5  A    between atoms: N_16  and  C_17
REMARK    6  A    between atoms: C_17  and  C_18
REMARK    7  A    between atoms: N_20  and  C_21
REMARK    8  A    between atoms: C_22  and  C_29
REMARK    9  A    between atoms: C_24  and  C_28
REMARK   10  A    between atoms: C_26  and  C_27
REMARK                            x       y       z     vdW  Elec       q    Type
REMARK                         _______ _______ _______ _____ _____    ______ ____
ROOT
ATOM      1  C   UNL     1       4.461   1.524   2.839  0.00  0.00    +0.197 C 
ATOM      2  O   UNL     1       4.942   0.781   2.010  0.00  0.00    -0.278 OA
ATOM      3  N   UNL     1       4.744   2.842   2.808  0.00  0.00    -0.308 N 
ATOM      4  H   UNL     1       4.360   3.436   3.471  0.00  0.00    +0.149 HD
ENDROOT
BRANCH   1   5
ATOM      5  C   UNL     1       3.547   0.975   3.904  0.00  0.00    +0.019 C 
BRANCH   5  14
ATOM      6  C   UNL     1       2.375  -0.976   4.647  0.00  0.00    -0.036 C 
ATOM      7  C   UNL     1       2.301  -2.494   4.525  0.00  0.00    -0.051 A 
ATOM      8  C   UNL     1       1.213  -3.257   4.942  0.00  0.00    +0.010 A 
ATOM      9  C   UNL     1       1.233  -4.603   4.792  0.00  0.00    +0.045 A 
ATOM     10  S   UNL     1       2.830  -4.866   4.035  0.00  0.00    -0.101 S 
ATOM     11  C   UNL     1       3.348  -3.175   3.978  0.00  0.00    -0.010 A 
ATOM     12  C   UNL     1       4.619  -2.583   3.466  0.00  0.00    +0.024 C 
ATOM     13  C   UNL     1       4.691  -1.131   3.969  0.00  0.00    -0.072 C 
ATOM     14  N   UNL     1       3.399  -0.475   3.722  0.00  0.00    +0.390 N 
ATOM     15  H   UNL     1       3.109  -0.662   2.774  0.00  0.00    -0.080 HD
BRANCH   6  17
ATOM     16  C   UNL     1       0.630  -0.781   2.870  0.00  0.00    +0.002 C 
ATOM     17  C   UNL     1       1.018  -0.365   4.290  0.00  0.00    -0.014 C 
ENDBRANCH   6  17
ENDBRANCH   5  14
ENDBRANCH   1   5
BRANCH   3  18
ATOM     18  C   UNL     1       5.633   3.376   1.773  0.00  0.00    +0.200 C 
BRANCH  18  19
ATOM     19  C   UNL     1       5.785   4.863   1.960  0.00  0.00    +0.234 C 
ATOM     20  O   UNL     1       5.208   5.423   2.868  0.00  0.00    -0.274 OA
ATOM     21  N   UNL     1       6.563   5.572   1.117  0.00  0.00    -0.284 N 
ATOM     22  H   UNL     1       7.083   5.116   0.438  0.00  0.00    +0.155 HD
BRANCH  21  23
ATOM     23  C   UNL     1       6.619   6.966   1.223  0.00  0.00    +0.039 A 
ATOM     24  C   UNL     1       7.848   7.609   1.303  0.00  0.00    -0.029 A 
ATOM     25  C   UNL     1       7.900   8.985   1.407  0.00  0.00    +0.008 A 
ATOM     26  C   UNL     1       6.731   9.723   1.433  0.00  0.00    -0.050 A 
ATOM     27  C   UNL     1       5.506   9.086   1.355  0.00  0.00    +0.008 A 
ATOM     28  C   UNL     1       5.447   7.711   1.244  0.00  0.00    -0.029 A 
ATOM     29  C   UNL     1       4.112   7.018   1.151  0.00  0.00    +0.045 C 
ATOM     30  C   UNL     1       6.792  11.224   1.547  0.00  0.00    +0.044 C 
ATOM     31  C   UNL     1       9.122   6.805   1.275  0.00  0.00    +0.045 C 
ENDBRANCH  21  23
ENDBRANCH  18  19
ENDBRANCH   3  18
TORSDOF 6
