REMARK  Name = ZINC20971580
REMARK  9 active torsions:
REMARK  status: ('A' for Active; 'I' for Inactive)
REMARK    1  A    between atoms: C_1  and  C_2
REMARK    2  A    between atoms: C_2  and  C_3
REMARK    3  A    between atoms: C_2  and  C_4
REMARK    4  A    between atoms: C_2  and  C_5
REMARK    5  A    between atoms: C_8  and  C_11
REMARK    6  A    between atoms: N_13  and  C_14
REMARK    7  A    between atoms: C_14  and  N_16
REMARK    8  A    between atoms: N_16  and  C_17
REMARK    9  A    between atoms: C_24  and  C_26
REMARK                            x       y       z     vdW  Elec       q    Type
REMARK                         _______ _______ _______ _____ _____    ______ ____
ROOT
ATOM      1  N   UNL     1       3.635  -4.811  -0.058  0.00  0.00    -0.297 N 
ATOM      2  H   UNL     1       4.538  -4.262  -0.362  0.00  0.00    +0.154 HD
ENDROOT
BRANCH   1   3
ATOM      3  C   UNL     1       3.664  -6.208   0.041  0.00  0.00    +0.035 A 
ATOM      4  C   UNL     1       4.319  -6.958  -0.933  0.00  0.00    +0.027 A 
ATOM      5  C   UNL     1       4.355  -8.333  -0.848  0.00  0.00    +0.050 A 
ATOM      6  C   UNL     1       3.737  -8.979   0.212  0.00  0.00    +0.156 A 
ATOM      7  C   UNL     1       3.075  -8.229   1.198  0.00  0.00    +0.112 A 
ATOM      8  C   UNL     1       3.048  -6.836   1.107  0.00  0.00    +0.054 A 
ATOM      9  N   UNL     1       2.575  -9.119   2.094  0.00  0.00    -0.209 NA
ATOM     10  C   UNL     1       2.893 -10.329   1.708  0.00  0.00    +0.228 A 
ATOM     11  O   UNL     1       3.601 -10.277   0.565  0.00  0.00    -0.435 OA
BRANCH  10  12
ATOM     12  C   UNL     1       2.528 -11.570   2.424  0.00  0.00    +0.038 A 
ATOM     13  C   UNL     1       2.922 -12.811   1.921  0.00  0.00    +0.013 A 
ATOM     14  C   UNL     1       2.578 -13.965   2.593  0.00  0.00    +0.002 A 
ATOM     15  C   UNL     1       1.845 -13.896   3.764  0.00  0.00    +0.015 A 
ATOM     16  C   UNL     1       1.452 -12.668   4.269  0.00  0.00    +0.019 A 
ATOM     17  C   UNL     1       1.794 -11.505   3.609  0.00  0.00    +0.028 A 
ATOM     18 BR   UNL     1       0.450 -12.585   5.871  0.00  0.00    -0.050 Br
ENDBRANCH  10  12
ENDBRANCH   1   3
BRANCH   1  19
ATOM     19  C   UNL     1       2.499  -4.140   0.221  0.00  0.00    +0.141 C 
ATOM     20  S   UNL     1       1.057  -4.999   0.555  0.00  0.00    -0.018 S 
BRANCH  19  23
ATOM     21  C   UNL     1       1.365  -2.121   0.513  0.00  0.00    +0.250 C 
ATOM     22  O   UNL     1       0.341  -2.731   0.750  0.00  0.00    -0.270 OA
ATOM     23  N   UNL     1       2.500  -2.792   0.235  0.00  0.00    -0.264 N 
ATOM     24  H   UNL     1       3.426  -2.240   0.019  0.00  0.00    +0.157 HD
BRANCH  21  28
ATOM     25  C   UNL     1       1.366   2.126   0.558  0.00  0.00    -0.042 A 
ATOM     26  C   UNL     1       0.198   1.435   0.829  0.00  0.00    +0.005 A 
ATOM     27  C   UNL     1       0.191   0.055   0.816  0.00  0.00    +0.013 A 
ATOM     28  C   UNL     1       1.365  -0.643   0.528  0.00  0.00    +0.037 A 
ATOM     29  C   UNL     1       2.539   0.061   0.256  0.00  0.00    +0.013 A 
ATOM     30  C   UNL     1       2.533   1.440   0.273  0.00  0.00    +0.005 A 
BRANCH  25  32
ATOM     31  C   UNL     1       0.954   4.128   1.963  0.00  0.00    +0.015 C 
ATOM     32  C   UNL     1       1.366   3.633   0.575  0.00  0.00    -0.013 C 
ATOM     33  C   UNL     1       2.769   4.146   0.246  0.00  0.00    +0.015 C 
ATOM     34  C   UNL     1       0.375   4.155  -0.468  0.00  0.00    +0.015 C 
ENDBRANCH  25  32
ENDBRANCH  21  28
ENDBRANCH  19  23
ENDBRANCH   1  19
TORSDOF 6
