REMARK  Name = ZINC39710388
REMARK  13 active torsions:
REMARK  status: ('A' for Active; 'I' for Inactive)
REMARK    1  A    between atoms: C_1  and  C_2
REMARK    2  A    between atoms: C_2  and  C_3
REMARK    3  A    between atoms: C_10  and  C_15
REMARK    4  A    between atoms: C_15  and  C_17
REMARK    5  A    between atoms: C_15  and  N_27
REMARK    6  A    between atoms: N_22  and  C_23
REMARK    7  A    between atoms: C_23  and  C_24
REMARK    8  A    between atoms: C_23  and  C_25
REMARK    9  A    between atoms: C_23  and  C_26
REMARK   10  A    between atoms: N_27  and  C_28
REMARK   11  A    between atoms: N_27  and  C_30
REMARK   12  A    between atoms: C_28  and  C_29
REMARK   13  A    between atoms: C_30  and  C_31
REMARK                            x       y       z     vdW  Elec       q    Type
REMARK                         _______ _______ _______ _____ _____    ______ ____
ROOT
ATOM      1  C   UNL     1       5.365  -3.224  -3.334  0.00  0.00    -0.009 C 
ENDROOT
BRANCH   1   9
ATOM      2  C   UNL     1       2.694   0.917  -0.208  0.00  0.00    -0.047 A 
ATOM      3  C   UNL     1       1.628   0.974  -1.107  0.00  0.00    +0.005 A 
ATOM      4  C   UNL     1       1.667   0.383  -2.329  0.00  0.00    +0.024 A 
ATOM      5  C   UNL     1       2.810  -0.325  -2.744  0.00  0.00    +0.040 A 
ATOM      6  N   UNL     1       2.837  -0.900  -3.946  0.00  0.00    -0.285 N 
ATOM      7  C   UNL     1       3.878  -1.580  -4.398  0.00  0.00    +0.223 C 
ATOM      8  O   UNL     1       3.845  -2.084  -5.505  0.00  0.00    -0.275 OA
ATOM      9  C   UNL     1       5.109  -1.729  -3.533  0.00  0.00    +0.088 C 
ATOM     10  C   UNL     1       5.084  -1.075  -2.165  0.00  0.00    -0.006 C 
ATOM     11  C   UNL     1       3.951  -0.402  -1.815  0.00  0.00    -0.007 A 
ATOM     12  C   UNL     1       3.844   0.262  -0.516  0.00  0.00    +0.013 A 
ATOM     13  H   UNL     1       2.057  -0.817  -4.516  0.00  0.00    +0.155 HD
BRANCH   2  15
ATOM     14  C   UNL     1       3.065   3.043   1.012  0.00  0.00    +0.009 C 
ATOM     15  C   UNL     1       2.570   1.600   1.129  0.00  0.00    +0.032 C 
ENDBRANCH   2  15
ENDBRANCH   1   9
BRANCH   1  16
ATOM     16  C   UNL     1       4.031  -3.972  -3.319  0.00  0.00    +0.205 C 
ATOM     17  N   UNL     1       3.255  -3.659  -4.527  0.00  0.00    -0.152 NA
ATOM     18  N   UNL     1       2.195  -3.124  -4.192  0.00  0.00    -0.070 NA
ATOM     19  N   UNL     1       2.070  -2.987  -2.810  0.00  0.00    -0.179 N 
ATOM     20  N   UNL     1       3.188  -3.501  -2.201  0.00  0.00    -0.183 NA
ATOM     21  H   UNL     1       1.312  -2.592  -2.351  0.00  0.00    +0.191 HD
BRANCH  20  22
ATOM     22  C   UNL     1       2.838  -4.610  -1.302  0.00  0.00    +0.035 C 
ATOM     23  C   UNL     1       4.116  -5.224  -0.728  0.00  0.00    +0.029 C 
ATOM     24  C   UNL     1       1.967  -4.085  -0.160  0.00  0.00    +0.029 C 
ATOM     25  C   UNL     1       2.067  -5.676  -2.084  0.00  0.00    +0.029 C 
ENDBRANCH  20  22
ENDBRANCH   1  16
BRANCH   1  26
ATOM     26  N   UNL     1       6.198  -3.729  -4.433  0.00  0.00    +0.387 N 
ATOM     27  H   UNL     1       6.521  -4.659  -4.212  0.00  0.00    -0.081 HD
BRANCH  26  28
ATOM     28  C   UNL     1       7.354  -2.842  -4.620  0.00  0.00    -0.081 C 
ATOM     29  C   UNL     1       8.145  -2.754  -3.313  0.00  0.00    -0.017 C 
ENDBRANCH  26  28
BRANCH  26  30
ATOM     30  C   UNL     1       5.406  -3.767  -5.670  0.00  0.00    -0.042 C 
BRANCH  30  31
ATOM     31  C   UNL     1       6.186  -4.481  -6.744  0.00  0.00    -0.064 A 
ATOM     32  C   UNL     1       7.030  -3.768  -7.574  0.00  0.00    +0.002 A 
ATOM     33  C   UNL     1       7.745  -4.423  -8.560  0.00  0.00    +0.000 A 
ATOM     34  C   UNL     1       7.616  -5.791  -8.714  0.00  0.00    +0.000 A 
ATOM     35  C   UNL     1       6.772  -6.504  -7.883  0.00  0.00    +0.000 A 
ATOM     36  C   UNL     1       6.060  -5.849  -6.895  0.00  0.00    +0.002 A 
ENDBRANCH  30  31
ENDBRANCH  26  30
ENDBRANCH   1  26
TORSDOF 8
