REMARK  Name = ZINC18173670
REMARK  3 active torsions:
REMARK  status: ('A' for Active; 'I' for Inactive)
REMARK    1  A    between atoms: C_1  and  N_40
REMARK    2  A    between atoms: C_12  and  C_15
REMARK    3  A    between atoms: C_20  and  N_21
REMARK                            x       y       z     vdW  Elec       q    Type
REMARK                         _______ _______ _______ _____ _____    ______ ____
ROOT
ATOM      1  C   UNL     1       5.420   2.057  -7.992  0.00  0.00    -0.096 C 
ATOM      2  C   UNL     1       4.826   3.616  -6.236  0.00  0.00    -0.074 C 
ATOM      3  C   UNL     1       3.967   3.766  -4.978  0.00  0.00    +0.018 C 
ATOM      4  C   UNL     1       4.502   2.808  -3.919  0.00  0.00    -0.027 A 
ATOM      5  C   UNL     1       5.311   1.785  -4.280  0.00  0.00    -0.021 A 
ATOM      6  S   UNL     1       5.691   0.947  -2.766  0.00  0.00    -0.080 S 
ATOM      7  C   UNL     1       4.799   1.930  -1.684  0.00  0.00    +0.080 A 
ATOM      8  C   UNL     1       4.206   2.906  -2.501  0.00  0.00    +0.068 A 
ATOM      9  C   UNL     1       3.350   3.920  -1.843  0.00  0.00    +0.248 C 
ATOM     10  O   UNL     1       2.894   4.863  -2.463  0.00  0.00    -0.270 OA
ATOM     11  N   UNL     1       3.098   3.757  -0.527  0.00  0.00    -0.289 N 
ATOM     12  C   UNL     1       3.413   2.536   0.208  0.00  0.00    +0.192 C 
ATOM     13  N   UNL     1       4.625   1.889  -0.325  0.00  0.00    -0.316 N 
ATOM     14  C   UNL     1       5.767   1.457  -5.667  0.00  0.00    -0.036 C 
ATOM     15  H   UNL     1       2.686   4.490  -0.044  0.00  0.00    +0.151 HD
ATOM     16  H   UNL     1       5.269   1.455   0.257  0.00  0.00    +0.149 HD
ATOM     17  N   UNL     1       4.894   2.190  -6.617  0.00  0.00    +0.381 N 
ATOM     18  H   UNL     1       3.950   1.789  -6.580  0.00  0.00    -0.082 HD
ENDROOT
BRANCH  12  19
ATOM     19  C   UNL     1       2.253   1.580   0.096  0.00  0.00    +0.021 A 
ATOM     20  C   UNL     1       1.378   1.677  -0.969  0.00  0.00    +0.009 A 
ATOM     21  C   UNL     1       0.315   0.800  -1.072  0.00  0.00    +0.001 A 
ATOM     22  C   UNL     1       0.126  -0.174  -0.108  0.00  0.00    +0.002 A 
ATOM     23  C   UNL     1       1.001  -0.270   0.957  0.00  0.00    +0.033 A 
ATOM     24  C   UNL     1       2.065   0.607   1.059  0.00  0.00    +0.133 A 
BRANCH  24  25
ATOM     25  N   UNL     1       3.002   0.504   2.201  0.00  0.00    +0.057 N 
ATOM     26  O   UNL     1       2.772  -0.275   3.109  0.00  0.00    -0.126 OA
ATOM     27  O   UNL     1       4.002   1.198   2.232  0.00  0.00    -0.126 OA
ENDBRANCH  24  25
ENDBRANCH  12  19
TORSDOF 2
