REMARK  Name = ZINC00931003
REMARK  9 active torsions:
REMARK  status: ('A' for Active; 'I' for Inactive)
REMARK    1  A    between atoms: C_1  and  O_2
REMARK    2  A    between atoms: O_2  and  C_3
REMARK    3  A    between atoms: C_3  and  C_5
REMARK    4  A    between atoms: C_8  and  N_11
REMARK    5  A    between atoms: N_11  and  C_12
REMARK    6  A    between atoms: C_12  and  C_14
REMARK    7  A    between atoms: C_12  and  C_19
REMARK    8  A    between atoms: N_21  and  C_22
REMARK    9  A    between atoms: C_28  and  C_30
REMARK                            x       y       z     vdW  Elec       q    Type
REMARK                         _______ _______ _______ _____ _____    ______ ____
ROOT
ATOM      1  N   UNL     1      -0.889   0.451   5.893  0.00  0.00    -0.252 N 
ATOM      2  C   UNL     1      -0.760   1.358   6.881  0.00  0.00    +0.265 C 
ATOM      3  O   UNL     1      -1.520   1.338   7.826  0.00  0.00    -0.271 OA
ENDROOT
BRANCH   2   4
ATOM      4  C   UNL     1       0.330   2.397   6.813  0.00  0.00    +0.296 C 
ATOM      5  C   UNL     1       0.010   3.410   5.705  0.00  0.00    +0.283 C 
ATOM      6  O   UNL     1       1.056   4.387   5.676  0.00  0.00    -0.484 OA
ATOM      7  C   UNL     1       1.448   4.900   6.874  0.00  0.00    +0.162 A 
ATOM      8  C   UNL     1       2.179   6.078   6.904  0.00  0.00    +0.049 A 
ATOM      9  C   UNL     1       2.587   6.609   8.113  0.00  0.00    +0.004 A 
ATOM     10  C   UNL     1       2.267   5.968   9.296  0.00  0.00    +0.004 A 
ATOM     11  C   UNL     1       1.537   4.795   9.273  0.00  0.00    +0.049 A 
ATOM     12  C   UNL     1       1.124   4.257   8.063  0.00  0.00    +0.163 A 
ATOM     13  O   UNL     1       0.404   3.102   8.057  0.00  0.00    -0.472 OA
ENDBRANCH   2   4
BRANCH   1  17
ATOM     14  C   UNL     1      -4.074  -2.234   5.934  0.00  0.00    +0.059 A 
ATOM     15  C   UNL     1      -3.852  -1.393   7.029  0.00  0.00    +0.017 A 
ATOM     16  C   UNL     1      -2.799  -0.507   7.012  0.00  0.00    +0.024 A 
ATOM     17  C   UNL     1      -1.955  -0.448   5.907  0.00  0.00    +0.038 A 
ATOM     18  C   UNL     1      -2.176  -1.279   4.813  0.00  0.00    +0.024 A 
ATOM     19  C   UNL     1      -3.224  -2.171   4.826  0.00  0.00    +0.017 A 
BRANCH  14  20
ATOM     20  C   UNL     1      -5.201  -3.185   5.949  0.00  0.00    +0.339 C 
ATOM     21  O   UNL     1      -5.938  -3.238   6.913  0.00  0.00    -0.245 OA
BRANCH  20  23
ATOM     22  C   UNL     1      -6.540  -4.905   4.977  0.00  0.00    +0.280 C 
ATOM     23  O   UNL     1      -5.413  -3.995   4.893  0.00  0.00    -0.464 OA
ENDBRANCH  20  23
ENDBRANCH  14  20
ENDBRANCH   1  17
BRANCH   1  24
ATOM     24  C   UNL     1       0.089   0.410   4.804  0.00  0.00    +0.204 C 
BRANCH  24  25
ATOM     25  C   UNL     1       0.773  -0.933   4.794  0.00  0.00    +0.019 A 
ATOM     26  C   UNL     1       2.048  -1.239   4.450  0.00  0.00    +0.013 A 
ATOM     27  C   UNL     1       2.464  -2.555   4.521  0.00  0.00    +0.008 A 
ATOM     28  C   UNL     1       1.582  -3.502   4.924  0.00  0.00    +0.045 A 
ATOM     29  S   UNL     1       0.113  -2.534   5.225  0.00  0.00    -0.099 S 
ENDBRANCH  24  25
BRANCH  24  30
ATOM     30  C   UNL     1      -0.613   0.626   3.488  0.00  0.00    +0.239 C 
ATOM     31  O   UNL     1      -1.814   0.797   3.463  0.00  0.00    -0.273 OA
ATOM     32  N   UNL     1       0.092   0.628   2.340  0.00  0.00    -0.311 N 
ATOM     33  H   UNL     1       1.052   0.491   2.360  0.00  0.00    +0.149 HD
BRANCH  32  34
ATOM     34  C   UNL     1      -0.591   0.838   1.061  0.00  0.00    +0.073 C 
ATOM     35  C   UNL     1       0.229   0.204  -0.065  0.00  0.00    +0.022 C 
ATOM     36  C   UNL     1      -0.485   0.423  -1.401  0.00  0.00    +0.002 C 
ATOM     37  C   UNL     1      -0.633   1.924  -1.660  0.00  0.00    +0.000 C 
ATOM     38  C   UNL     1      -1.452   2.557  -0.534  0.00  0.00    +0.002 C 
ATOM     39  C   UNL     1      -0.739   2.338   0.802  0.00  0.00    +0.022 C 
ENDBRANCH  32  34
ENDBRANCH  24  30
ENDBRANCH   1  24
TORSDOF 8
