REMARK  Name = ZINC35249196
REMARK  4 active torsions:
REMARK  status: ('A' for Active; 'I' for Inactive)
REMARK    1  A    between atoms: C_1  and  C_2
REMARK    2  A    between atoms: C_2  and  C_15
REMARK    3  A    between atoms: N_4  and  C_8
REMARK    4  A    between atoms: C_8  and  C_9
REMARK                            x       y       z     vdW  Elec       q    Type
REMARK                         _______ _______ _______ _____ _____    ______ ____
ROOT
ATOM      1  C   UNL     1      -0.019   1.526   0.010  0.00  0.00    +0.042 C 
ATOM      2  C   UNL     1       0.002  -0.004   0.002  0.00  0.00    +0.077 C 
ATOM      3  C   UNL     1      -1.434  -0.535   0.018  0.00  0.00    +0.119 C 
ATOM      4  N   UNL     1      -1.407  -2.003   0.088  0.00  0.00    -0.292 NA
ATOM      5  C   UNL     1      -0.689  -2.455   1.289  0.00  0.00    +0.113 C 
ATOM      6  C   UNL     1       0.739  -1.905   1.260  0.00  0.00    +0.176 C 
ATOM      7  O   UNL     1       0.694  -0.479   1.160  0.00  0.00    -0.371 OA
ATOM      8  C   UNL     1       0.716  -0.498  -1.258  0.00  0.00    +0.042 C 
ENDROOT
BRANCH   4   9
ATOM      9  C   UNL     1      -2.767  -2.557   0.049  0.00  0.00    +0.144 C 
BRANCH   9  10
ATOM     10  C   UNL     1      -2.696  -4.052  -0.126  0.00  0.00    +0.104 A 
ATOM     11  C   UNL     1      -2.677  -4.645  -1.349  0.00  0.00    +0.122 A 
ATOM     12  S   UNL     1      -2.594  -6.273  -0.946  0.00  0.00    +0.049 S 
ATOM     13  N   UNL     1      -2.588  -6.147   0.667  0.00  0.00    -0.109 NA
ATOM     14  N   UNL     1      -2.642  -4.881   0.895  0.00  0.00    -0.143 NA
ATOM     15 CL   UNL     1      -2.726  -3.909  -2.921  0.00  0.00    -0.072 Cl
ENDBRANCH   9  10
ENDBRANCH   4   9
TORSDOF 2
