REMARK  Name = ZINC37818293
REMARK  2 active torsions:
REMARK  status: ('A' for Active; 'I' for Inactive)
REMARK    1  A    between atoms: C_13  and  C_15
REMARK    2  A    between atoms: C_18  and  O_22
REMARK                            x       y       z     vdW  Elec       q    Type
REMARK                         _______ _______ _______ _____ _____    ______ ____
ROOT
ATOM      1  C   UNL     1      -0.019   1.521   0.010  0.00  0.00    +0.054 C 
ATOM      2  C   UNL     1       1.420   2.049  -0.001  0.00  0.00    +0.110 C 
ATOM      3  N   UNL     1       2.135   1.446  -1.134  0.00  0.00    -0.303 N 
ATOM      4  C   UNL     1       2.152  -0.017  -1.265  0.00  0.00    +0.110 C 
ATOM      5  C   UNL     1       0.708  -0.529  -1.244  0.00  0.00    +0.054 C 
ATOM      6  C   UNL     1       0.002  -0.004   0.002  0.00  0.00    +0.115 C 
ATOM      7  C   UNL     1      -1.405  -0.551   0.082  0.00  0.00    +0.244 C 
ATOM      8  O   UNL     1      -2.304  -0.382  -0.714  0.00  0.00    -0.273 OA
ATOM      9  N   UNL     1      -1.449  -1.266   1.225  0.00  0.00    -0.238 N 
ATOM     10  C   UNL     1      -0.274  -1.243   1.867  0.00  0.00    +0.307 C 
ATOM     11  O   UNL     1      -0.068  -1.813   2.920  0.00  0.00    -0.252 OA
ATOM     12  N   UNL     1       0.653  -0.516   1.215  0.00  0.00    -0.285 N 
ATOM     13  C   UNL     1       2.764   2.223  -2.038  0.00  0.00    +0.202 C 
ATOM     14  O   UNL     1       2.744   3.430  -1.921  0.00  0.00    -0.277 OA
ATOM     15  H   UNL     1      -2.234  -1.738   1.543  0.00  0.00    +0.159 HD
ATOM     16  H   UNL     1       1.570  -0.361   1.491  0.00  0.00    +0.151 HD
ENDROOT
BRANCH  13  17
ATOM     17  C   UNL     1       3.494   1.591  -3.196  0.00  0.00    +0.019 C 
ATOM     18  C   UNL     1       2.499   1.228  -4.327  0.00  0.00    +0.023 C 
ATOM     19  C   UNL     1       3.428   1.215  -5.569  0.00  0.00    +0.097 C 
ATOM     20  C   UNL     1       4.425   2.354  -5.269  0.00  0.00    -0.050 C 
ATOM     21  N   UNL     1       4.426   2.561  -3.808  0.00  0.00    +0.388 N 
ATOM     22  H   UNL     1       4.124   3.501  -3.599  0.00  0.00    -0.085 HD
ATOM     23  H   UNL     1       5.356   2.415  -3.443  0.00  0.00    -0.085 HD
BRANCH  19  24
ATOM     24  O   UNL     1       2.684   1.489  -6.758  0.00  0.00    -0.394 OA
ATOM     25  H   UNL     1       3.219   1.493  -7.564  0.00  0.00    +0.210 HD
ENDBRANCH  19  24
ENDBRANCH  13  17
TORSDOF 2
