REMARK  Name = ZINC23944319
REMARK  12 active torsions:
REMARK  status: ('A' for Active; 'I' for Inactive)
REMARK    1  A    between atoms: C_1  and  C_2
REMARK    2  A    between atoms: C_2  and  C_29
REMARK    3  A    between atoms: C_5  and  C_27
REMARK    4  A    between atoms: C_6  and  N_13
REMARK    5  A    between atoms: C_9  and  C_11
REMARK    6  A    between atoms: C_9  and  C_12
REMARK    7  A    between atoms: C_14  and  C_16
REMARK    8  A    between atoms: C_16  and  C_17
REMARK    9  A    between atoms: C_17  and  S_18
REMARK   10  A    between atoms: S_18  and  C_19
REMARK   11  A    between atoms: C_22  and  O_25
REMARK   12  A    between atoms: O_25  and  C_26
REMARK                            x       y       z     vdW  Elec       q    Type
REMARK                         _______ _______ _______ _____ _____    ______ ____
ROOT
ATOM      1  C   UNL     1      -0.623  -1.875  -2.229  0.00  0.00    -0.010 C 
ATOM      2  C   UNL     1      -0.840  -2.197  -0.748  0.00  0.00    -0.069 C 
ATOM      3  C   UNL     1      -1.219  -0.913  -0.002  0.00  0.00    +0.024 C 
ATOM      4  C   UNL     1       0.002  -0.004   0.002  0.00  0.00    -0.021 A 
ATOM      5  C   UNL     1      -0.018   1.443   0.010  0.00  0.00    +0.084 A 
ATOM      6  C   UNL     1       1.208   2.098   0.002  0.00  0.00    +0.090 A 
ATOM      7  S   UNL     1       2.353   0.798  -0.014  0.00  0.00    -0.078 S 
ATOM      8  C   UNL     1       1.232  -0.571  -0.007  0.00  0.00    -0.015 A 
ATOM      9  C   UNL     1       1.538  -2.033  -0.004  0.00  0.00    -0.041 C 
ATOM     10  N   UNL     1       0.333  -2.837  -0.175  0.00  0.00    +0.389 N 
ATOM     11  C   UNL     1       2.551  -2.344  -1.115  0.00  0.00    -0.005 C 
ATOM     12  C   UNL     1       2.191  -2.388   1.346  0.00  0.00    -0.005 C 
ATOM     13  C   UNL     1      -2.029  -3.171  -0.646  0.00  0.00    -0.010 C 
ATOM     14  H   UNL     1       0.093  -3.208   0.832  0.00  0.00    -0.084 HD
ATOM     15  H   UNL     1       0.640  -3.679  -0.812  0.00  0.00    -0.084 HD
ENDROOT
BRANCH   6  16
ATOM     16  N   UNL     1       1.452   3.464   0.006  0.00  0.00    -0.279 N 
ATOM     17  C   UNL     1       2.720   3.921  -0.004  0.00  0.00    +0.218 C 
ATOM     18  O   UNL     1       3.647   3.139  -0.016  0.00  0.00    -0.275 OA
ATOM     19  H   UNL     1       0.612   4.173   0.016  0.00  0.00    +0.155 HD
BRANCH  17  20
ATOM     20  C   UNL     1       2.986   5.405   0.000  0.00  0.00    +0.107 C 
BRANCH  20  21
ATOM     21  C   UNL     1       4.496   5.652  -0.012  0.00  0.00    +0.083 C 
BRANCH  21  22
ATOM     22  S   UNL     1       4.816   7.438  -0.007  0.00  0.00    -0.125 S 
BRANCH  22  23
ATOM     23  C   UNL     1       6.574   7.556  -0.023  0.00  0.00    +0.008 A 
ATOM     24  C   UNL     1       7.348   6.402  -0.029  0.00  0.00    +0.018 A 
ATOM     25  C   UNL     1       8.726   6.496  -0.046  0.00  0.00    +0.047 A 
ATOM     26  C   UNL     1       9.336   7.742  -0.046  0.00  0.00    +0.120 A 
ATOM     27  C   UNL     1       8.565   8.894  -0.034  0.00  0.00    +0.047 A 
ATOM     28  C   UNL     1       7.187   8.803  -0.023  0.00  0.00    +0.018 A 
BRANCH  26  29
ATOM     29  O   UNL     1      10.694   7.833  -0.058  0.00  0.00    -0.495 OA
ATOM     30  C   UNL     1      11.426   6.606  -0.069  0.00  0.00    +0.277 C 
ENDBRANCH  26  29
ENDBRANCH  22  23
ENDBRANCH  21  22
ENDBRANCH  20  21
ENDBRANCH  17  20
ENDBRANCH   6  16
BRANCH   5  31
ATOM     31  C   UNL     1      -1.244   2.182   0.032  0.00  0.00    +0.102 C 
ATOM     32  N   UNL     1      -2.217   2.768   0.049  0.00  0.00    -0.191 NA
ENDBRANCH   5  31
TORSDOF 7
