REMARK  Name = ZINC67269193
REMARK  10 active torsions:
REMARK  status: ('A' for Active; 'I' for Inactive)
REMARK    1  A    between atoms: C_1  and  C_2
REMARK    2  A    between atoms: N_5  and  C_8
REMARK    3  A    between atoms: C_8  and  C_10
REMARK    4  A    between atoms: C_8  and  C_11
REMARK    5  A    between atoms: C_11  and  N_12
REMARK    6  A    between atoms: C_13  and  C_15
REMARK    7  A    between atoms: C_15  and  C_16
REMARK    8  A    between atoms: C_16  and  C_17
REMARK    9  A    between atoms: C_17  and  C_18
REMARK   10  A    between atoms: C_18  and  C_19
REMARK                            x       y       z     vdW  Elec       q    Type
REMARK                         _______ _______ _______ _____ _____    ______ ____
ROOT
ATOM      1  N   UNL     1       1.651  -3.736  -2.468  0.00  0.00    -0.317 N 
ATOM      2  C   UNL     1       1.989  -4.060  -3.732  0.00  0.00    +0.213 C 
ATOM      3  O   UNL     1       2.878  -4.858  -3.937  0.00  0.00    -0.276 OA
ATOM      4  H   UNL     1       0.939  -3.098  -2.305  0.00  0.00    +0.149 HD
ENDROOT
BRANCH   1   5
ATOM      5  C   UNL     1       2.358  -4.349  -1.341  0.00  0.00    +0.088 C 
BRANCH   5   6
ATOM      6  C   UNL     1       1.709  -3.904  -0.029  0.00  0.00    -0.054 C 
ATOM      7  C   UNL     1       2.499  -4.475   1.150  0.00  0.00    -0.012 C 
BRANCH   6  12
ATOM      8  C   UNL     1       2.260   1.619   1.282  0.00  0.00    +0.007 C 
ATOM      9  C   UNL     1       2.320   0.091   1.323  0.00  0.00    -0.018 C 
ATOM     10  C   UNL     1       0.899  -0.479   1.276  0.00  0.00    -0.016 C 
ATOM     11  C   UNL     1       0.970  -2.007   1.237  0.00  0.00    -0.078 C 
ATOM     12  N   UNL     1       1.711  -2.437   0.045  0.00  0.00    +0.382 N 
ATOM     13  C   UNL     1       3.095  -1.954   0.119  0.00  0.00    -0.078 C 
ATOM     14  C   UNL     1       3.107  -0.424   0.114  0.00  0.00    -0.016 C 
ATOM     15  H   UNL     1       1.268  -2.060  -0.779  0.00  0.00    -0.081 HD
ENDBRANCH   6  12
ENDBRANCH   5   6
ENDBRANCH   1   5
BRANCH   2  16
ATOM     16  C   UNL     1       1.261  -3.429  -4.892  0.00  0.00    +0.096 C 
BRANCH  16  17
ATOM     17  C   UNL     1       1.835  -3.964  -6.205  0.00  0.00    +0.009 C 
BRANCH  17  18
ATOM     18  C   UNL     1       1.096  -3.324  -7.383  0.00  0.00    +0.002 C 
BRANCH  18  19
ATOM     19  C   UNL     1       1.670  -3.859  -8.696  0.00  0.00    +0.016 C 
BRANCH  19  20
ATOM     20  C   UNL     1       0.931  -3.219  -9.873  0.00  0.00    +0.069 C 
ATOM     21  C   UNL     1       1.445  -3.745 -11.190  0.00  0.00    +0.108 C 
ATOM     22  C   UNL     1       1.200  -2.663 -12.286  0.00  0.00    +0.105 C 
ATOM     23  C   UNL     1       1.953  -1.423 -11.808  0.00  0.00    +0.093 C 
ATOM     24  S   UNL     1       1.355  -1.422 -10.033  0.00  0.00    -0.154 S 
ATOM     25  N   UNL     1       1.632  -3.406 -13.448  0.00  0.00    -0.294 N 
ATOM     26  C   UNL     1       1.308  -4.708 -13.188  0.00  0.00    +0.300 C 
ATOM     27  O   UNL     1       1.294  -5.581 -14.035  0.00  0.00    -0.253 OA
ATOM     28  N   UNL     1       0.987  -4.913 -11.882  0.00  0.00    -0.294 N 
ATOM     29  H   UNL     1       2.061  -3.055 -14.244  0.00  0.00    +0.151 HD
ATOM     30  H   UNL     1       0.548  -5.690 -11.502  0.00  0.00    +0.151 HD
ENDBRANCH  19  20
ENDBRANCH  18  19
ENDBRANCH  17  18
ENDBRANCH  16  17
ENDBRANCH   2  16
TORSDOF 8
