REMARK  Name = ZINC58045753
REMARK  7 active torsions:
REMARK  status: ('A' for Active; 'I' for Inactive)
REMARK    1  A    between atoms: C_4  and  N_16
REMARK    2  A    between atoms: C_5  and  C_7
REMARK    3  A    between atoms: N_9  and  C_10
REMARK    4  A    between atoms: C_10  and  C_11
REMARK    5  A    between atoms: C_17  and  C_19
REMARK    6  A    between atoms: C_19  and  N_20
REMARK    7  A    between atoms: C_24  and  C_26
REMARK                            x       y       z     vdW  Elec       q    Type
REMARK                         _______ _______ _______ _____ _____    ______ ____
ROOT
ATOM      1  N   UNL     1       3.496  -0.527  -0.058  0.00  0.00    -0.286 N 
ATOM      2  C   UNL     1       4.606   0.223  -0.207  0.00  0.00    +0.201 C 
ATOM      3  O   UNL     1       4.522   1.433  -0.225  0.00  0.00    -0.278 OA
ATOM      4  H   UNL     1       3.570  -1.489   0.038  0.00  0.00    +0.155 HD
ENDROOT
BRANCH   1   8
ATOM      5  C   UNL     1      -0.257   1.292  -0.007  0.00  0.00    +0.001 A 
ATOM      6  C   UNL     1       0.807   1.902  -0.652  0.00  0.00    +0.002 A 
ATOM      7  C   UNL     1       2.050   1.303  -0.670  0.00  0.00    +0.024 A 
ATOM      8  C   UNL     1       2.242   0.081  -0.040  0.00  0.00    +0.045 A 
ATOM      9  C   UNL     1       1.168  -0.540   0.614  0.00  0.00    +0.058 A 
ATOM     10  C   UNL     1      -0.085   0.079   0.624  0.00  0.00    +0.015 A 
BRANCH   9  11
ATOM     11  C   UNL     1       1.359  -1.839   1.288  0.00  0.00    +0.246 C 
ATOM     12  O   UNL     1       2.469  -2.328   1.360  0.00  0.00    -0.270 OA
ATOM     13  N   UNL     1       0.302  -2.482   1.823  0.00  0.00    -0.304 N 
ATOM     14  H   UNL     1      -0.584  -2.092   1.765  0.00  0.00    +0.149 HD
BRANCH  13  15
ATOM     15  C   UNL     1       0.492  -3.772   2.491  0.00  0.00    +0.179 C 
BRANCH  15  16
ATOM     16  C   UNL     1      -0.835  -4.276   2.997  0.00  0.00    +0.122 A 
ATOM     17  C   UNL     1      -1.691  -5.058   2.316  0.00  0.00    +0.046 A 
ATOM     18  C   UNL     1      -2.800  -5.286   3.163  0.00  0.00    +0.041 A 
ATOM     19  C   UNL     1      -2.555  -4.630   4.311  0.00  0.00    +0.195 A 
ATOM     20  O   UNL     1      -1.361  -4.024   4.207  0.00  0.00    -0.466 OA
ENDBRANCH  15  16
ENDBRANCH  13  15
ENDBRANCH   9  11
ENDBRANCH   1   8
BRANCH   2  21
ATOM     21  C   UNL     1       5.950  -0.442  -0.353  0.00  0.00    +0.020 C 
BRANCH  21  22
ATOM     22  N   UNL     1       6.990   0.585  -0.501  0.00  0.00    +0.390 N 
ATOM     23  C   UNL     1       7.098   1.368   0.748  0.00  0.00    -0.077 C 
ATOM     24  C   UNL     1       8.253   0.702   1.535  0.00  0.00    -0.020 C 
ATOM     25  C   UNL     1       9.235   0.327   0.393  0.00  0.00    -0.013 C 
ATOM     26  C   UNL     1       8.290  -0.060  -0.764  0.00  0.00    -0.037 C 
ATOM     27  H   UNL     1       6.756   1.199  -1.266  0.00  0.00    -0.080 HD
BRANCH  26  28
ATOM     28  C   UNL     1       8.852   0.434  -2.072  0.00  0.00    -0.057 A 
ATOM     29  C   UNL     1       8.737   1.769  -2.412  0.00  0.00    +0.006 A 
ATOM     30  C   UNL     1       9.251   2.225  -3.611  0.00  0.00    +0.049 A 
ATOM     31  C   UNL     1       9.883   1.345  -4.477  0.00  0.00    +0.162 A 
ATOM     32  C   UNL     1      10.001   0.003  -4.133  0.00  0.00    +0.162 A 
ATOM     33  C   UNL     1       9.487  -0.448  -2.926  0.00  0.00    +0.051 A 
ATOM     34  O   UNL     1      10.625  -0.876  -4.964  0.00  0.00    -0.485 OA
ATOM     35  C   UNL     1      10.801  -0.463  -6.324  0.00  0.00    +0.270 C 
ATOM     36  C   UNL     1      11.335   0.976  -6.323  0.00  0.00    +0.270 C 
ATOM     37  O   UNL     1      10.380   1.808  -5.656  0.00  0.00    -0.485 OA
ENDBRANCH  26  28
ENDBRANCH  21  22
ENDBRANCH   2  21
TORSDOF 7
