REMARK  Name = ZINC28295705
REMARK  17 active torsions:
REMARK  status: ('A' for Active; 'I' for Inactive)
REMARK    1  A    between atoms: C_1  and  C_2
REMARK    2  A    between atoms: C_5  and  S_8
REMARK    3  A    between atoms: S_8  and  N_11
REMARK    4  A    between atoms: N_11  and  C_12
REMARK    5  A    between atoms: C_12  and  C_13
REMARK    6  A    between atoms: N_15  and  N_16
REMARK    7  A    between atoms: C_17  and  C_18
REMARK    8  A    between atoms: N_20  and  C_27
REMARK    9  A    between atoms: C_27  and  C_28
REMARK   10  A    between atoms: C_28  and  C_30
REMARK   11  A    between atoms: C_28  and  O_37
REMARK   12  A    between atoms: C_30  and  N_31
REMARK   13  A    between atoms: N_31  and  C_32
REMARK   14  A    between atoms: C_32  and  C_33
REMARK   15  A    between atoms: C_32  and  C_34
REMARK   16  A    between atoms: C_32  and  C_35
REMARK   17  A    between atoms: C_35  and  O_36
REMARK                            x       y       z     vdW  Elec       q    Type
REMARK                         _______ _______ _______ _____ _____    ______ ____
ROOT
ATOM      1  C   UNL     1      -4.264   0.734   1.106  0.00  0.00    +0.020 A 
ATOM      2  C   UNL     1      -3.208   1.564   0.890  0.00  0.00    +0.096 A 
ATOM      3  N   UNL     1      -2.062   0.977   1.338  0.00  0.00    -0.344 N 
ATOM      4  C   UNL     1      -2.339  -0.264   1.873  0.00  0.00    +0.050 A 
ATOM      5  C   UNL     1      -3.723  -0.474   1.754  0.00  0.00    +0.008 A 
ATOM      6  C   UNL     1      -4.291  -1.659   2.218  0.00  0.00    +0.010 A 
ATOM      7  C   UNL     1      -3.489  -2.621   2.792  0.00  0.00    +0.001 A 
ATOM      8  C   UNL     1      -2.122  -2.414   2.910  0.00  0.00    +0.002 A 
ATOM      9  C   UNL     1      -1.547  -1.247   2.456  0.00  0.00    +0.026 A 
ENDROOT
BRANCH   1  11
ATOM     10  N   UNL     1      -6.580   0.106   1.037  0.00  0.00    -0.188 NA
ATOM     11  C   UNL     1      -5.671   0.994   0.765  0.00  0.00    +0.140 C 
BRANCH  10  14
ATOM     12  C   UNL     1      -8.863  -0.567   0.994  0.00  0.00    +0.248 C 
ATOM     13  O   UNL     1      -8.552  -1.610   1.529  0.00  0.00    -0.273 OA
ATOM     14  N   UNL     1      -7.920   0.354   0.712  0.00  0.00    -0.206 N 
ATOM     15  H   UNL     1      -8.203   1.300   0.226  0.00  0.00    +0.177 HD
BRANCH  12  16
ATOM     16  C   UNL     1     -10.305  -0.300   0.644  0.00  0.00    +0.203 C 
BRANCH  16  17
ATOM     17  N   UNL     1     -11.125  -1.444   1.049  0.00  0.00    -0.181 NA
ATOM     18  H   UNL     1     -10.672  -2.443   1.137  0.00  0.00    +0.149 HD
BRANCH  17  19
ATOM     19  S   UNL     1     -12.772  -1.294   1.135  0.00  0.00    +0.059 S 
ATOM     20  O   UNL     1     -13.276  -2.564   1.525  0.00  0.00    -0.153 OA
ATOM     21  O   UNL     1     -13.033  -0.110   1.877  0.00  0.00    -0.153 OA
BRANCH  19  26
ATOM     22  C   UNL     1     -14.767  -0.292  -4.470  0.00  0.00    +0.044 C 
ATOM     23  C   UNL     1     -14.269  -0.542  -3.070  0.00  0.00    -0.050 A 
ATOM     24  C   UNL     1     -14.156  -1.836  -2.598  0.00  0.00    +0.005 A 
ATOM     25  C   UNL     1     -13.700  -2.066  -1.313  0.00  0.00    +0.029 A 
ATOM     26  C   UNL     1     -13.354  -1.001  -0.502  0.00  0.00    +0.105 A 
ATOM     27  C   UNL     1     -13.471   0.293  -0.973  0.00  0.00    +0.029 A 
ATOM     28  C   UNL     1     -13.924   0.523  -2.259  0.00  0.00    +0.005 A 
ENDBRANCH  19  26
ENDBRANCH  17  19
ENDBRANCH  16  17
ENDBRANCH  12  16
ENDBRANCH  10  14
ENDBRANCH   1  11
BRANCH   3  29
ATOM     29  C   UNL     1      -0.729   1.579   1.267  0.00  0.00    +0.151 C 
BRANCH  29  30
ATOM     30  C   UNL     1      -0.013   1.086   0.008  0.00  0.00    +0.117 C 
BRANCH  30  31
ATOM     31  O   UNL     1      -0.704   1.559  -1.150  0.00  0.00    -0.392 OA
ATOM     32  H   UNL     1      -0.334   1.304  -2.154  0.00  0.00    +0.210 HD
ENDBRANCH  30  31
BRANCH  30  33
ATOM     33  C   UNL     1       1.423   1.615  -0.003  0.00  0.00    -0.048 C 
BRANCH  33  34
ATOM     34  N   UNL     1       2.110   1.142  -1.212  0.00  0.00    +0.386 N 
ATOM     35  H   UNL     1       2.125   0.042  -1.218  0.00  0.00    -0.085 HD
ATOM     36  H   UNL     1       1.578   1.506  -2.103  0.00  0.00    -0.085 HD
BRANCH  34  37
ATOM     37  C   UNL     1       3.494   1.632  -1.256  0.00  0.00    -0.050 C 
ATOM     38  C   UNL     1       3.494   3.162  -1.260  0.00  0.00    -0.008 C 
ATOM     39  C   UNL     1       4.255   1.125  -0.029  0.00  0.00    -0.008 C 
BRANCH  37  40
ATOM     40  C   UNL     1       4.176   1.119  -2.526  0.00  0.00    +0.143 C 
BRANCH  40  41
ATOM     41  O   UNL     1       5.523   1.596  -2.569  0.00  0.00    -0.396 OA
ATOM     42  H   UNL     1       6.174   1.328  -3.414  0.00  0.00    +0.209 HD
ENDBRANCH  40  41
ENDBRANCH  37  40
ENDBRANCH  34  37
ENDBRANCH  33  34
ENDBRANCH  30  33
ENDBRANCH  29  30
ENDBRANCH   3  29
TORSDOF 14
