REMARK  Name = ZINC43592954
REMARK  8 active torsions:
REMARK  status: ('A' for Active; 'I' for Inactive)
REMARK    1  A    between atoms: C_1  and  C_2
REMARK    2  A    between atoms: C_2  and  C_3
REMARK    3  A    between atoms: C_2  and  N_4
REMARK    4  A    between atoms: C_7  and  C_10
REMARK    5  A    between atoms: C_10  and  N_11
REMARK    6  A    between atoms: N_11  and  S_12
REMARK    7  A    between atoms: S_12  and  C_15
REMARK    8  A    between atoms: C_18  and  N_22
REMARK                            x       y       z     vdW  Elec       q    Type
REMARK                         _______ _______ _______ _____ _____    ______ ____
ROOT
ATOM      1  S   UNL     1       6.597  -2.243  -2.526  0.00  0.00    +0.061 S 
ATOM      2  O   UNL     1       6.968  -3.178  -3.529  0.00  0.00    -0.153 OA
ATOM      3  O   UNL     1       7.126  -0.924  -2.480  0.00  0.00    -0.153 OA
ENDROOT
BRANCH   1   4
ATOM      4  C   UNL     1       6.974  -2.991  -0.976  0.00  0.00    +0.140 A 
ATOM      5  C   UNL     1       7.552  -4.246  -0.938  0.00  0.00    +0.033 A 
ATOM      6  C   UNL     1       7.850  -4.836   0.275  0.00  0.00    +0.025 A 
ATOM      7  C   UNL     1       7.568  -4.166   1.459  0.00  0.00    +0.027 A 
ATOM      8  C   UNL     1       6.988  -2.905   1.420  0.00  0.00    +0.063 A 
ATOM      9  C   UNL     1       6.697  -2.318   0.202  0.00  0.00    +0.151 A 
ATOM     10  F   UNL     1       6.137  -1.089   0.162  0.00  0.00    -0.203 F 
BRANCH   7  11
ATOM     11  N   UNL     1       7.868  -4.761   2.687  0.00  0.00    -0.358 N 
ATOM     12  H   UNL     1       8.273  -5.642   2.713  0.00  0.00    +0.142 HD
ATOM     13  H   UNL     1       7.671  -4.293   3.514  0.00  0.00    +0.142 HD
ENDBRANCH   7  11
ENDBRANCH   1   4
BRANCH   1  14
ATOM     14  N   UNL     1       4.950  -2.089  -2.608  0.00  0.00    -0.190 NA
ATOM     15  H   UNL     1       4.449  -2.586  -3.274  0.00  0.00    +0.148 HD
BRANCH  14  16
ATOM     16  C   UNL     1       4.249  -1.204  -1.674  0.00  0.00    +0.107 C 
BRANCH  16  20
ATOM     17  N   UNL     1       0.690  -0.478  -1.207  0.00  0.00    +0.381 N 
ATOM     18  C   UNL     1       0.834  -1.956  -1.177  0.00  0.00    -0.078 C 
ATOM     19  C   UNL     1       2.003  -2.253  -2.139  0.00  0.00    -0.016 C 
ATOM     20  C   UNL     1       2.829  -0.950  -2.181  0.00  0.00    -0.014 C 
ATOM     21  C   UNL     1       2.087   0.024  -1.240  0.00  0.00    -0.074 C 
ATOM     22  H   UNL     1       0.190  -0.187  -2.034  0.00  0.00    -0.081 HD
BRANCH  17  24
ATOM     23  C   UNL     1      -0.019   1.526   0.010  0.00  0.00    -0.014 C 
ATOM     24  C   UNL     1       0.002  -0.004   0.002  0.00  0.00    -0.075 C 
ATOM     25  C   UNL     1      -1.433  -0.534   0.013  0.00  0.00    -0.014 C 
ENDBRANCH  17  24
ENDBRANCH  16  20
ENDBRANCH  14  16
ENDBRANCH   1  14
TORSDOF 6
