REMARK  Name = ZINC32542037
REMARK  11 active torsions:
REMARK  status: ('A' for Active; 'I' for Inactive)
REMARK    1  A    between atoms: C_1  and  C_2
REMARK    2  A    between atoms: C_2  and  C_4
REMARK    3  A    between atoms: C_2  and  N_14
REMARK    4  A    between atoms: C_7  and  S_10
REMARK    5  A    between atoms: S_10  and  N_13
REMARK    6  A    between atoms: N_14  and  C_15
REMARK    7  A    between atoms: N_14  and  C_16
REMARK    8  A    between atoms: C_16  and  C_17
REMARK    9  A    between atoms: N_19  and  C_20
REMARK   10  A    between atoms: C_25  and  O_26
REMARK   11  A    between atoms: O_26  and  C_27
REMARK                            x       y       z     vdW  Elec       q    Type
REMARK                         _______ _______ _______ _____ _____    ______ ____
ROOT
ATOM      1  C   UNL     1       1.278  -2.024  -0.228  0.00  0.00    +0.019 C 
ENDROOT
BRANCH   1   2
ATOM      2  C   UNL     1       1.060  -0.548  -0.017  0.00  0.00    +0.201 C 
ATOM      3  O   UNL     1       2.010   0.190   0.135  0.00  0.00    -0.278 OA
ATOM      4  N   UNL     1      -0.192  -0.048   0.004  0.00  0.00    -0.284 N 
ATOM      5  H   UNL     1      -1.054  -0.721  -0.109  0.00  0.00    +0.155 HD
BRANCH   4   6
ATOM      6  C   UNL     1      -0.394   1.328   0.169  0.00  0.00    +0.076 A 
ATOM      7  C   UNL     1       0.593   2.111   0.752  0.00  0.00    +0.027 A 
ATOM      8  C   UNL     1       0.391   3.468   0.913  0.00  0.00    +0.002 A 
ATOM      9  C   UNL     1      -0.792   4.050   0.495  0.00  0.00    +0.004 A 
ATOM     10  C   UNL     1      -1.779   3.277  -0.086  0.00  0.00    +0.048 A 
ATOM     11  C   UNL     1      -1.583   1.916  -0.258  0.00  0.00    +0.150 A 
BRANCH  11  12
ATOM     12  O   UNL     1      -2.550   1.155  -0.835  0.00  0.00    -0.454 OA
BRANCH  12  13
ATOM     13  C   UNL     1      -3.650   1.785  -1.325  0.00  0.00    +0.129 A 
ATOM     14  C   UNL     1      -4.856   1.709  -0.644  0.00  0.00    +0.046 A 
ATOM     15  C   UNL     1      -5.971   2.354  -1.142  0.00  0.00    +0.004 A 
ATOM     16  C   UNL     1      -5.888   3.067  -2.324  0.00  0.00    +0.000 A 
ATOM     17  C   UNL     1      -4.689   3.141  -3.007  0.00  0.00    +0.004 A 
ATOM     18  C   UNL     1      -3.569   2.501  -2.511  0.00  0.00    +0.046 A 
ENDBRANCH  12  13
ENDBRANCH  11  12
ENDBRANCH   4   6
ENDBRANCH   1   2
BRANCH   1  19
ATOM     19  N   UNL     1       2.718  -2.314  -0.209  0.00  0.00    +0.388 N 
ATOM     20  C   UNL     1       3.396  -1.692  -1.355  0.00  0.00    -0.095 C 
ATOM     21  H   UNL     1       3.139  -1.878   0.709  0.00  0.00    -0.081 HD
BRANCH  19  23
ATOM     22  C   UNL     1       2.327  -4.357   1.083  0.00  0.00    -0.008 C 
ATOM     23  C   UNL     1       2.964  -3.762  -0.174  0.00  0.00    -0.041 C 
BRANCH  23  24
ATOM     24  C   UNL     1       4.448  -4.019  -0.155  0.00  0.00    -0.061 A 
ATOM     25  C   UNL     1       5.280  -3.213   0.599  0.00  0.00    +0.004 A 
ATOM     26  C   UNL     1       6.641  -3.453   0.620  0.00  0.00    +0.029 A 
ATOM     27  C   UNL     1       7.172  -4.491  -0.121  0.00  0.00    +0.105 A 
ATOM     28  C   UNL     1       6.341  -5.294  -0.880  0.00  0.00    +0.029 A 
ATOM     29  C   UNL     1       4.979  -5.058  -0.897  0.00  0.00    +0.004 A 
BRANCH  27  30
ATOM     30  S   UNL     1       8.908  -4.792  -0.100  0.00  0.00    +0.056 S 
ATOM     31  O   UNL     1       9.401  -4.243   1.115  0.00  0.00    -0.153 OA
ATOM     32  O   UNL     1       9.088  -6.158  -0.447  0.00  0.00    -0.153 OA
BRANCH  30  33
ATOM     33  N   UNL     1       9.575  -3.901  -1.327  0.00  0.00    -0.204 NA
ATOM     34  H   UNL     1      10.663  -4.061  -1.347  0.00  0.00    +0.144 HD
ATOM     35  H   UNL     1       9.364  -2.834  -1.161  0.00  0.00    +0.144 HD
ENDBRANCH  30  33
ENDBRANCH  27  30
ENDBRANCH  23  24
ENDBRANCH  19  23
ENDBRANCH   1  19
TORSDOF 9
