REMARK  Name = ZINC66175092
REMARK  12 active torsions:
REMARK  status: ('A' for Active; 'I' for Inactive)
REMARK    1  A    between atoms: C_1  and  C_2
REMARK    2  A    between atoms: C_2  and  C_3
REMARK    3  A    between atoms: C_3  and  C_5
REMARK    4  A    between atoms: C_3  and  N_6
REMARK    5  A    between atoms: N_6  and  C_7
REMARK    6  A    between atoms: N_6  and  C_8
REMARK    7  A    between atoms: C_8  and  C_9
REMARK    8  A    between atoms: C_9  and  N_10
REMARK    9  A    between atoms: N_13  and  C_14
REMARK   10  A    between atoms: C_14  and  C_15
REMARK   11  A    between atoms: N_17  and  C_18
REMARK   12  A    between atoms: C_23  and  C_24
REMARK                            x       y       z     vdW  Elec       q    Type
REMARK                         _______ _______ _______ _____ _____    ______ ____
ROOT
ATOM      1  N   UNL     1      -5.436  -0.349  -1.853  0.00  0.00    -0.301 N 
ATOM      2  C   UNL     1      -6.305  -0.150  -2.864  0.00  0.00    +0.300 C 
ATOM      3  O   UNL     1      -5.930   0.373  -3.895  0.00  0.00    -0.253 OA
ATOM      4  N   UNL     1      -7.591  -0.531  -2.731  0.00  0.00    -0.291 N 
ATOM      5  H   UNL     1      -5.735  -0.767  -1.031  0.00  0.00    +0.150 HD
ATOM      6  H   UNL     1      -7.891  -0.949  -1.908  0.00  0.00    +0.151 HD
ENDROOT
BRANCH   1   7
ATOM      7  C   UNL     1      -4.038   0.065  -1.998  0.00  0.00    +0.087 C 
BRANCH   7   8
ATOM      8  C   UNL     1      -3.271  -0.273  -0.718  0.00  0.00    -0.060 C 
BRANCH   8   9
ATOM      9  N   UNL     1      -1.869   0.142  -0.862  0.00  0.00    +0.381 N 
ATOM     10  C   UNL     1      -1.802   1.605  -0.982  0.00  0.00    -0.096 C 
ATOM     11  H   UNL     1      -1.477  -0.281  -1.690  0.00  0.00    -0.082 HD
BRANCH   9  12
ATOM     12  C   UNL     1      -1.107  -0.289   0.317  0.00  0.00    -0.072 C 
ATOM     13  C   UNL     1      -1.793   0.226   1.584  0.00  0.00    -0.013 C 
BRANCH  12  15
ATOM     14  C   UNL     1      -0.256  -2.327  -0.851  0.00  0.00    +0.002 C 
ATOM     15  C   UNL     1      -1.047  -1.817   0.355  0.00  0.00    -0.019 C 
ENDBRANCH  12  15
ENDBRANCH   9  12
ENDBRANCH   8   9
ENDBRANCH   7   8
ENDBRANCH   1   7
BRANCH   4  16
ATOM     16  C   UNL     1      -8.537  -0.314  -3.829  0.00  0.00    +0.202 C 
BRANCH  16  17
ATOM     17  C   UNL     1      -9.897  -0.825  -3.429  0.00  0.00    +0.234 C 
ATOM     18  O   UNL     1     -10.061  -1.321  -2.334  0.00  0.00    -0.274 OA
ATOM     19  N   UNL     1     -10.931  -0.730  -4.287  0.00  0.00    -0.284 N 
ATOM     20  H   UNL     1     -10.787  -0.394  -5.186  0.00  0.00    +0.155 HD
BRANCH  19  21
ATOM     21  C   UNL     1     -12.214  -1.116  -3.883  0.00  0.00    +0.036 A 
ATOM     22  C   UNL     1     -12.372  -2.078  -2.893  0.00  0.00    +0.024 A 
ATOM     23  C   UNL     1     -13.639  -2.456  -2.495  0.00  0.00    +0.017 A 
ATOM     24  C   UNL     1     -14.751  -1.880  -3.082  0.00  0.00    +0.018 A 
ATOM     25  C   UNL     1     -14.597  -0.922  -4.068  0.00  0.00    +0.020 A 
ATOM     26  C   UNL     1     -13.332  -0.535  -4.466  0.00  0.00    -0.028 A 
ATOM     27  C   UNL     1     -13.166   0.513  -5.536  0.00  0.00    +0.046 C 
ATOM     28 BR   UNL     1     -16.484  -2.402  -2.535  0.00  0.00    -0.050 Br
ENDBRANCH  19  21
ENDBRANCH  16  17
ENDBRANCH   4  16
TORSDOF 8
