REMARK  Name = ZINC62788592
REMARK  8 active torsions:
REMARK  status: ('A' for Active; 'I' for Inactive)
REMARK    1  A    between atoms: C_1  and  C_2
REMARK    2  A    between atoms: C_2  and  C_4
REMARK    3  A    between atoms: C_2  and  C_16
REMARK    4  A    between atoms: C_4  and  N_5
REMARK    5  A    between atoms: N_5  and  C_6
REMARK    6  A    between atoms: C_11  and  C_12
REMARK    7  A    between atoms: C_12  and  N_14
REMARK    8  A    between atoms: C_16  and  N_17
REMARK                            x       y       z     vdW  Elec       q    Type
REMARK                         _______ _______ _______ _____ _____    ______ ____
ROOT
ATOM      1  N   UNL     1      -1.917  -0.130  -1.302  0.00  0.00    -0.343 N 
ATOM      2  H   UNL     1      -1.465   0.452  -1.933  0.00  0.00    +0.146 HD
ENDROOT
BRANCH   1   3
ATOM      3  C   UNL     1      -3.210  -0.566  -1.562  0.00  0.00    +0.038 A 
ATOM      4  C   UNL     1      -3.900  -1.308  -0.613  0.00  0.00    +0.043 A 
ATOM      5  C   UNL     1      -5.186  -1.740  -0.873  0.00  0.00    +0.043 A 
ATOM      6  C   UNL     1      -5.798  -1.438  -2.081  0.00  0.00    +0.021 A 
ATOM      7  C   UNL     1      -5.128  -0.704  -3.035  0.00  0.00    +0.013 A 
ATOM      8  C   UNL     1      -3.829  -0.254  -2.784  0.00  0.00    +0.024 A 
ATOM      9 CL   UNL     1      -6.043  -2.667   0.319  0.00  0.00    -0.083 Cl
BRANCH   8  10
ATOM     10  C   UNL     1      -3.110   0.536  -3.796  0.00  0.00    +0.079 C 
ATOM     11  S   UNL     1      -2.055  -0.240  -4.898  0.00  0.00    -0.035 S 
BRANCH  10  12
ATOM     12  N   UNL     1      -3.283   1.872  -3.856  0.00  0.00    -0.352 N 
ATOM     13  H   UNL     1      -3.881   2.312  -3.232  0.00  0.00    +0.143 HD
ATOM     14  H   UNL     1      -2.809   2.393  -4.524  0.00  0.00    +0.143 HD
ENDBRANCH  10  12
ENDBRANCH   8  10
ENDBRANCH   1   3
BRANCH   1  15
ATOM     15  C   UNL     1      -1.235  -0.550  -0.076  0.00  0.00    +0.103 C 
BRANCH  15  17
ATOM     16  C   UNL     1       0.051   1.588   0.066  0.00  0.00    +0.007 C 
ATOM     17  C   UNL     1       0.166   0.065  -0.035  0.00  0.00    -0.014 C 
BRANCH  17  18
ATOM     18  C   UNL     1       0.923  -0.471   1.181  0.00  0.00    -0.074 C 
BRANCH  18  19
ATOM     19  N   UNL     1       1.150  -1.913   1.020  0.00  0.00    +0.380 N 
ATOM     20  C   UNL     1       2.126  -2.159  -0.073  0.00  0.00    -0.079 C 
ATOM     21  C   UNL     1       2.671  -3.573   0.249  0.00  0.00    -0.020 C 
ATOM     22  C   UNL     1       2.748  -3.571   1.793  0.00  0.00    -0.020 C 
ATOM     23  C   UNL     1       1.766  -2.473   2.243  0.00  0.00    -0.079 C 
ATOM     24  H   UNL     1       0.280  -2.383   0.823  0.00  0.00    -0.082 HD
ENDBRANCH  18  19
ENDBRANCH  17  18
ENDBRANCH  15  17
ENDBRANCH   1  15
TORSDOF 7
