REMARK  Name = ZINC36189018
REMARK  7 active torsions:
REMARK  status: ('A' for Active; 'I' for Inactive)
REMARK    1  A    between atoms: C_1  and  C_2
REMARK    2  A    between atoms: C_9  and  C_16
REMARK    3  A    between atoms: C_11  and  O_12
REMARK    4  A    between atoms: C_16  and  S_17
REMARK    5  A    between atoms: S_17  and  C_18
REMARK    6  A    between atoms: C_21  and  C_28
REMARK    7  A    between atoms: N_22  and  C_23
REMARK                            x       y       z     vdW  Elec       q    Type
REMARK                         _______ _______ _______ _____ _____    ______ ____
ROOT
ATOM      1  C   UNL     1       0.772  -6.563  -2.844  0.00  0.00    +0.113 C 
ENDROOT
BRANCH   1  10
ATOM      2  C   UNL     1       0.976   1.976  -0.616  0.00  0.00    +0.109 C 
ATOM      3  C   UNL     1       1.108   0.475  -0.623  0.00  0.00    +0.214 C 
ATOM      4  O   UNL     1       1.514  -0.105   0.369  0.00  0.00    -0.276 OA
ATOM      5  N   UNL     1       0.784  -0.211  -1.702  0.00  0.00    -0.286 N 
ATOM      6  C   UNL     1       0.777  -1.571  -1.667  0.00  0.00    +0.037 A 
ATOM      7  C   UNL     1       0.792  -2.302  -2.868  0.00  0.00    +0.024 A 
ATOM      8  C   UNL     1       0.785  -3.660  -2.846  0.00  0.00    +0.013 A 
ATOM      9  C   UNL     1       0.763  -4.343  -1.617  0.00  0.00    +0.022 A 
ATOM     10  C   UNL     1       0.757  -5.753  -1.573  0.00  0.00    -0.020 A 
ATOM     11  C   UNL     1       0.736  -6.374  -0.341  0.00  0.00    +0.092 A 
ATOM     12  C   UNL     1       0.722  -5.612   0.818  0.00  0.00    +0.285 A 
ATOM     13  O   UNL     1       0.728  -4.275   0.772  0.00  0.00    -0.425 OA
ATOM     14  C   UNL     1       0.748  -3.617  -0.405  0.00  0.00    +0.141 A 
ATOM     15  C   UNL     1       0.760  -2.234  -0.438  0.00  0.00    +0.070 A 
ATOM     16  H   UNL     1       0.551   0.255  -2.520  0.00  0.00    +0.155 HD
BRANCH  12  17
ATOM     17  O   UNL     1       0.701  -6.230   2.014  0.00  0.00    -0.480 OA
ATOM     18  H   UNL     1       0.692  -5.626   2.769  0.00  0.00    +0.295 HD
ENDBRANCH  12  17
ENDBRANCH   1  10
BRANCH   1  19
ATOM     19  S   UNL     1       2.425  -7.268  -3.092  0.00  0.00    -0.081 S 
BRANCH  19  20
ATOM     20  C   UNL     1       2.281  -8.174  -4.597  0.00  0.00    +0.192 A 
ATOM     21  N   UNL     1       1.204  -8.281  -5.342  0.00  0.00    -0.122 NA
ATOM     22  N   UNL     1       1.449  -9.014  -6.368  0.00  0.00    -0.128 NA
ATOM     23  C   UNL     1       2.697  -9.420  -6.342  0.00  0.00    +0.167 A 
ATOM     24  N   UNL     1       3.270  -8.889  -5.209  0.00  0.00    -0.299 N 
BRANCH  23  25
ATOM     25  C   UNL     1       3.363 -10.280  -7.343  0.00  0.00    +0.038 A 
ATOM     26  C   UNL     1       4.120 -11.377  -6.932  0.00  0.00    +0.013 A 
ATOM     27  C   UNL     1       4.739 -12.176  -7.871  0.00  0.00    +0.001 A 
ATOM     28  C   UNL     1       4.610 -11.892  -9.219  0.00  0.00    +0.001 A 
ATOM     29  C   UNL     1       3.861 -10.806  -9.635  0.00  0.00    +0.021 A 
ATOM     30  C   UNL     1       3.232 -10.001  -8.705  0.00  0.00    +0.052 A 
ATOM     31 CL   UNL     1       2.286  -8.642  -9.229  0.00  0.00    -0.083 Cl
ENDBRANCH  23  25
BRANCH  24  32
ATOM     32  C   UNL     1       4.652  -9.060  -4.753  0.00  0.00    +0.091 C 
ATOM     33  C   UNL     1       4.670  -9.692  -3.346  0.00  0.00    +0.025 C 
ATOM     34  C   UNL     1       5.851  -8.990  -2.630  0.00  0.00    +0.002 C 
ATOM     35  C   UNL     1       5.750  -7.535  -3.149  0.00  0.00    +0.002 C 
ATOM     36  C   UNL     1       5.338  -7.688  -4.628  0.00  0.00    +0.025 C 
ENDBRANCH  24  32
ENDBRANCH  19  20
ENDBRANCH   1  19
TORSDOF 6
