REMARK  Name = ZINC35486223
REMARK  11 active torsions:
REMARK  status: ('A' for Active; 'I' for Inactive)
REMARK    1  A    between atoms: C_1  and  C_2
REMARK    2  A    between atoms: C_2  and  N_3
REMARK    3  A    between atoms: N_3  and  C_4
REMARK    4  A    between atoms: N_3  and  C_6
REMARK    5  A    between atoms: C_4  and  C_5
REMARK    6  A    between atoms: C_6  and  C_7
REMARK    7  A    between atoms: C_7  and  N_8
REMARK    8  A    between atoms: C_9  and  C_25
REMARK    9  A    between atoms: C_28  and  O_31
REMARK   10  A    between atoms: O_31  and  C_32
REMARK   11  A    between atoms: C_32  and  C_33
REMARK                            x       y       z     vdW  Elec       q    Type
REMARK                         _______ _______ _______ _____ _____    ______ ____
ROOT
ATOM      1  N   UNL     1       2.014  -3.379  -2.846  0.00  0.00    -0.285 N 
ATOM      2  C   UNL     1       3.005  -4.262  -2.210  0.00  0.00    +0.144 C 
ATOM      3  C   UNL     1       2.698  -5.639  -2.701  0.00  0.00    +0.072 A 
ATOM      4  C   UNL     1       3.342  -6.928  -2.428  0.00  0.00    +0.199 A 
ATOM      5  O   UNL     1       4.186  -7.082  -1.563  0.00  0.00    -0.287 OA
ATOM      6  C   UNL     1       2.865  -8.028  -3.304  0.00  0.00    +0.065 A 
ATOM      7  C   UNL     1       3.516  -9.261  -3.306  0.00  0.00    +0.030 A 
ATOM      8  C   UNL     1       3.064 -10.269  -4.130  0.00  0.00    +0.019 A 
ATOM      9  C   UNL     1       1.966 -10.054  -4.953  0.00  0.00    +0.019 A 
ATOM     10  C   UNL     1       1.314  -8.842  -4.957  0.00  0.00    +0.048 A 
ATOM     11  C   UNL     1       1.752  -7.807  -4.131  0.00  0.00    +0.140 A 
ATOM     12  O   UNL     1       1.088  -6.628  -4.149  0.00  0.00    -0.450 OA
ATOM     13  C   UNL     1       1.623  -5.552  -3.539  0.00  0.00    +0.199 A 
ATOM     14  C   UNL     1       1.209  -4.140  -3.615  0.00  0.00    +0.283 C 
ATOM     15  O   UNL     1       0.280  -3.722  -4.277  0.00  0.00    -0.267 OA
ATOM     16 BR   UNL     1       3.938 -11.945  -4.140  0.00  0.00    -0.050 Br
ENDROOT
BRANCH   2  17
ATOM     17  C   UNL     1       2.870  -4.201  -0.711  0.00  0.00    -0.022 A 
ATOM     18  C   UNL     1       1.614  -4.160  -0.132  0.00  0.00    +0.009 A 
ATOM     19  C   UNL     1       1.487  -4.103   1.242  0.00  0.00    +0.046 A 
ATOM     20  C   UNL     1       2.620  -4.088   2.042  0.00  0.00    +0.121 A 
ATOM     21  C   UNL     1       3.879  -4.130   1.460  0.00  0.00    +0.046 A 
ATOM     22  C   UNL     1       4.000  -4.192   0.085  0.00  0.00    +0.009 A 
BRANCH  20  23
ATOM     23  O   UNL     1       2.498  -4.032   3.395  0.00  0.00    -0.492 OA
BRANCH  23  24
ATOM     24  C   UNL     1       3.708  -4.019   4.155  0.00  0.00    +0.225 C 
ATOM     25  C   UNL     1       3.371  -3.954   5.647  0.00  0.00    +0.048 C 
ENDBRANCH  23  24
ENDBRANCH  20  23
ENDBRANCH   2  17
BRANCH   1  26
ATOM     26  C   UNL     1       1.916  -1.928  -2.670  0.00  0.00    +0.090 C 
BRANCH  26  27
ATOM     27  C   UNL     1       0.996  -1.619  -1.488  0.00  0.00    -0.060 C 
BRANCH  27  28
ATOM     28  N   UNL     1       0.790  -0.168  -1.393  0.00  0.00    +0.380 N 
ATOM     29  H   UNL     1       1.685   0.297  -1.350  0.00  0.00    -0.082 HD
BRANCH  28  31
ATOM     30  C   UNL     1      -0.054   1.826  -2.538  0.00  0.00    -0.017 C 
ATOM     31  C   UNL     1       0.052   0.300  -2.574  0.00  0.00    -0.082 C 
ENDBRANCH  28  31
BRANCH  28  32
ATOM     32  C   UNL     1       0.019   0.140  -0.181  0.00  0.00    -0.082 C 
ATOM     33  C   UNL     1       0.851  -0.212   1.055  0.00  0.00    -0.017 C 
ENDBRANCH  28  32
ENDBRANCH  27  28
ENDBRANCH  26  27
ENDBRANCH   1  26
TORSDOF 8
