REMARK  Name = ZINC09125642
REMARK  9 active torsions:
REMARK  status: ('A' for Active; 'I' for Inactive)
REMARK    1  A    between atoms: C_1  and  C_2
REMARK    2  A    between atoms: C_2  and  C_4
REMARK    3  A    between atoms: C_2  and  N_46
REMARK    4  A    between atoms: C_11  and  C_13
REMARK    5  A    between atoms: C_11  and  C_14
REMARK    6  A    between atoms: C_11  and  N_46
REMARK    7  A    between atoms: N_16  and  C_17
REMARK    8  A    between atoms: C_17  and  C_18
REMARK    9  A    between atoms: N_20  and  C_21
REMARK                            x       y       z     vdW  Elec       q    Type
REMARK                         _______ _______ _______ _____ _____    ______ ____
ROOT
ATOM      1  C   UNL     1       3.895   7.507   0.427  0.00  0.00    +0.199 C 
ATOM      2  O   UNL     1       2.962   8.281   0.459  0.00  0.00    -0.278 OA
ATOM      3  N   UNL     1       3.669   6.183   0.312  0.00  0.00    -0.308 N 
ATOM      4  H   UNL     1       4.416   5.564   0.286  0.00  0.00    +0.149 HD
ENDROOT
BRANCH   1   5
ATOM      5  C   UNL     1       5.308   8.025   0.516  0.00  0.00    +0.014 C 
ATOM      6  C   UNL     1       5.995   7.425   1.744  0.00  0.00    -0.004 C 
BRANCH   5   7
ATOM      7  N   UNL     1       5.277   9.495   0.638  0.00  0.00    +0.391 N 
ATOM      8  H   UNL     1       4.494   9.864   0.087  0.00  0.00    -0.084 HD
ATOM      9  H   UNL     1       5.151   9.750   1.625  0.00  0.00    -0.084 HD
BRANCH   7  11
ATOM     10  C   UNL     1       6.453  10.263  -1.374  0.00  0.00    -0.009 C 
ATOM     11  C   UNL     1       6.539  10.076   0.142  0.00  0.00    -0.042 C 
BRANCH  11  12
ATOM     12  C   UNL     1       6.760  11.413   0.801  0.00  0.00    -0.048 A 
ATOM     13  C   UNL     1       5.696  12.089   1.369  0.00  0.00    +0.003 A 
ATOM     14  C   UNL     1       5.900  13.313   1.978  0.00  0.00    +0.000 A 
ATOM     15  C   UNL     1       7.166  13.867   2.010  0.00  0.00    +0.001 A 
ATOM     16  C   UNL     1       8.229  13.195   1.438  0.00  0.00    +0.015 A 
ATOM     17  C   UNL     1       8.027  11.967   0.833  0.00  0.00    +0.019 A 
ATOM     18 BR   UNL     1       9.481  11.048   0.050  0.00  0.00    -0.050 Br
ENDBRANCH  11  12
ENDBRANCH   7  11
ENDBRANCH   5   7
ENDBRANCH   1   5
BRANCH   3  19
ATOM     19  C   UNL     1       2.296   5.679   0.225  0.00  0.00    +0.200 C 
BRANCH  19  20
ATOM     20  C   UNL     1       2.319   4.177   0.104  0.00  0.00    +0.234 C 
ATOM     21  O   UNL     1       3.378   3.586   0.091  0.00  0.00    -0.274 OA
ATOM     22  N   UNL     1       1.163   3.491   0.009  0.00  0.00    -0.282 N 
ATOM     23  H   UNL     1       0.321   3.967  -0.061  0.00  0.00    +0.155 HD
BRANCH  22  24
ATOM     24  C   UNL     1       1.178   2.090   0.013  0.00  0.00    +0.072 A 
ATOM     25  C   UNL     1       2.230   1.407   0.608  0.00  0.00    +0.029 A 
ATOM     26  C   UNL     1       2.244   0.026   0.611  0.00  0.00    +0.043 A 
ATOM     27  C   UNL     1       1.210  -0.680   0.022  0.00  0.00    +0.161 A 
ATOM     28  C   UNL     1       0.156  -0.003  -0.574  0.00  0.00    +0.195 A 
ATOM     29  C   UNL     1       0.139   1.381  -0.579  0.00  0.00    +0.182 A 
ATOM     30  F   UNL     1      -0.884   2.043  -1.163  0.00  0.00    -0.200 F 
ATOM     31  F   UNL     1      -0.852  -0.694  -1.149  0.00  0.00    -0.199 F 
ATOM     32  F   UNL     1       1.226  -2.031   0.026  0.00  0.00    -0.202 F 
ENDBRANCH  22  24
ENDBRANCH  19  20
ENDBRANCH   3  19
TORSDOF 7
