REMARK  Name = ZINC46285764
REMARK  9 active torsions:
REMARK  status: ('A' for Active; 'I' for Inactive)
REMARK    1  A    between atoms: C_1  and  C_2
REMARK    2  A    between atoms: C_2  and  C_4
REMARK    3  A    between atoms: C_2  and  O_21
REMARK    4  A    between atoms: N_6  and  N_7
REMARK    5  A    between atoms: N_10  and  C_11
REMARK    6  A    between atoms: C_11  and  C_12
REMARK    7  A    between atoms: N_18  and  C_19
REMARK    8  A    between atoms: N_18  and  C_20
REMARK    9  A    between atoms: O_21  and  C_22
REMARK                            x       y       z     vdW  Elec       q    Type
REMARK                         _______ _______ _______ _____ _____    ______ ____
ROOT
ATOM      1  N   UNL     1       2.615  -1.135   2.610  0.00  0.00    -0.218 N 
ATOM      2  C   UNL     1       3.952  -1.078   2.769  0.00  0.00    +0.316 C 
ATOM      3  O   UNL     1       4.459  -1.481   3.798  0.00  0.00    -0.251 OA
ATOM      4  N   UNL     1       4.726  -0.575   1.788  0.00  0.00    -0.294 N 
ATOM      5  H   UNL     1       2.057  -1.496   3.316  0.00  0.00    +0.174 HD
ATOM      6  H   UNL     1       4.322  -0.254   0.967  0.00  0.00    +0.151 HD
ENDROOT
BRANCH   1   9
ATOM      7  C   UNL     1       0.693  -0.727   1.265  0.00  0.00    +0.270 C 
ATOM      8  O   UNL     1      -0.004  -1.180   2.148  0.00  0.00    -0.270 OA
ATOM      9  N   UNL     1       2.030  -0.670   1.424  0.00  0.00    -0.230 N 
ATOM     10  H   UNL     1       2.588  -0.308   0.718  0.00  0.00    +0.173 HD
BRANCH   7  12
ATOM     11  C   UNL     1       0.290   1.280  -0.134  0.00  0.00    +0.062 C 
ATOM     12  C   UNL     1       0.064  -0.228  -0.010  0.00  0.00    +0.257 C 
BRANCH  12  13
ATOM     13  O   UNL     1      -1.339  -0.499   0.012  0.00  0.00    -0.480 OA
BRANCH  13  14
ATOM     14  C   UNL     1      -1.966  -0.607  -1.189  0.00  0.00    +0.122 A 
ATOM     15  C   UNL     1      -1.270  -0.349  -2.361  0.00  0.00    +0.048 A 
ATOM     16  C   UNL     1      -1.908  -0.459  -3.581  0.00  0.00    +0.042 A 
ATOM     17  C   UNL     1      -3.242  -0.826  -3.635  0.00  0.00    +0.124 A 
ATOM     18  C   UNL     1      -3.938  -1.083  -2.466  0.00  0.00    +0.042 A 
ATOM     19  C   UNL     1      -3.300  -0.981  -1.244  0.00  0.00    +0.048 A 
ATOM     20  F   UNL     1      -3.865  -0.933  -4.829  0.00  0.00    -0.205 F 
ENDBRANCH  13  14
ENDBRANCH  12  13
ENDBRANCH   7  12
ENDBRANCH   1   9
BRANCH   4  21
ATOM     21  C   UNL     1       6.180  -0.513   1.961  0.00  0.00    +0.141 C 
BRANCH  21  22
ATOM     22  C   UNL     1       6.808   0.086   0.729  0.00  0.00    -0.026 A 
ATOM     23  C   UNL     1       7.201  -0.721  -0.331  0.00  0.00    +0.023 A 
ATOM     24  C   UNL     1       7.773  -0.141  -1.446  0.00  0.00    +0.084 A 
ATOM     25  N   UNL     1       7.949   1.165  -1.514  0.00  0.00    -0.350 N 
ATOM     26  C   UNL     1       7.587   1.967  -0.525  0.00  0.00    +0.098 A 
ATOM     27  C   UNL     1       7.000   1.451   0.626  0.00  0.00    +0.047 A 
ATOM     28  N   UNL     1       7.792   3.337  -0.639  0.00  0.00    -0.323 N 
ATOM     29  C   UNL     1       8.404   3.888  -1.851  0.00  0.00    +0.130 C 
ATOM     30  C   UNL     1       7.394   4.231   0.452  0.00  0.00    +0.130 C 
ATOM     31  H   UNL     1       8.353   1.547  -2.309  0.00  0.00    +0.166 HD
ENDBRANCH  21  22
ENDBRANCH   4  21
TORSDOF 6
