REMARK  Name = ZINC39534035
REMARK  9 active torsions:
REMARK  status: ('A' for Active; 'I' for Inactive)
REMARK    1  A    between atoms: C_4  and  O_32
REMARK    2  A    between atoms: C_5  and  C_7
REMARK    3  A    between atoms: C_10  and  C_13
REMARK    4  A    between atoms: C_13  and  C_15
REMARK    5  A    between atoms: C_13  and  N_24
REMARK    6  A    between atoms: C_15  and  N_16
REMARK    7  A    between atoms: N_16  and  C_17
REMARK    8  A    between atoms: C_22  and  O_23
REMARK    9  A    between atoms: C_28  and  O_31
REMARK                            x       y       z     vdW  Elec       q    Type
REMARK                         _______ _______ _______ _____ _____    ______ ____
ROOT
ATOM      1  C   UNL     1       1.291  -6.371  -0.092  0.00  0.00    +0.104 C 
ENDROOT
BRANCH   1   2
ATOM      2  N   UNL     1      -0.089  -6.752   0.237  0.00  0.00    -0.295 NA
ATOM      3  C   UNL     1      -0.187  -8.193   0.509  0.00  0.00    +0.066 C 
ATOM      4  C   UNL     1      -1.624  -8.538   0.905  0.00  0.00    -0.063 C 
ATOM      5  N   UNL     1      -2.536  -8.164  -0.185  0.00  0.00    +0.398 N 
ATOM      6  C   UNL     1      -2.445  -6.719  -0.428  0.00  0.00    +0.073 C 
ATOM      7  C   UNL     1      -1.014  -6.359  -0.835  0.00  0.00    +0.096 C 
ATOM      8  H   UNL     1      -2.279  -8.663  -1.024  0.00  0.00    -0.082 HD
ATOM      9  H   UNL     1      -3.482  -8.403   0.071  0.00  0.00    -0.082 HD
BRANCH   6  10
ATOM     10  O   UNL     1      -3.344  -6.354  -1.477  0.00  0.00    -0.409 OA
ATOM     11  H   UNL     1      -4.271  -6.554  -1.287  0.00  0.00    +0.207 HD
ENDBRANCH   6  10
ENDBRANCH   1   2
BRANCH   1  15
ATOM     12  C   UNL     1       1.504  -2.138  -0.657  0.00  0.00    -0.014 A 
ATOM     13  C   UNL     1       2.219  -2.993  -1.494  0.00  0.00    +0.009 A 
ATOM     14  C   UNL     1       2.147  -4.358  -1.307  0.00  0.00    +0.006 A 
ATOM     15  C   UNL     1       1.366  -4.879  -0.291  0.00  0.00    -0.029 A 
ATOM     16  C   UNL     1       0.655  -4.036   0.543  0.00  0.00    +0.006 A 
ATOM     17  C   UNL     1       0.724  -2.668   0.369  0.00  0.00    +0.009 A 
BRANCH  12  22
ATOM     18  C   UNL     1       0.485   1.453  -1.101  0.00  0.00    +0.001 A 
ATOM     19  C   UNL     1       1.716   2.074  -1.220  0.00  0.00    +0.004 A 
ATOM     20  C   UNL     1       2.880   1.333  -1.157  0.00  0.00    +0.046 A 
ATOM     21  C   UNL     1       2.820  -0.040  -0.974  0.00  0.00    +0.125 A 
ATOM     22  C   UNL     1       1.579  -0.670  -0.853  0.00  0.00    +0.024 A 
ATOM     23  C   UNL     1       0.411   0.087  -0.918  0.00  0.00    +0.012 A 
BRANCH  21  24
ATOM     24  O   UNL     1       3.964  -0.770  -0.913  0.00  0.00    -0.506 OA
ATOM     25  H   UNL     1       4.323  -0.866  -0.020  0.00  0.00    +0.292 HD
ENDBRANCH  21  24
ENDBRANCH  12  22
ENDBRANCH   1  15
BRANCH   1  26
ATOM     26  C   UNL     1       2.220  -6.780   1.053  0.00  0.00    +0.125 C 
BRANCH  26  27
ATOM     27  N   UNL     1       3.606  -6.472   0.691  0.00  0.00    -0.339 N 
ATOM     28  H   UNL     1       3.800  -6.023  -0.147  0.00  0.00    +0.146 HD
BRANCH  27  29
ATOM     29  C   UNL     1       4.649  -6.826   1.554  0.00  0.00    +0.069 A 
ATOM     30  C   UNL     1       4.374  -7.474   2.749  0.00  0.00    +0.026 A 
ATOM     31  C   UNL     1       5.407  -7.823   3.599  0.00  0.00    +0.002 A 
ATOM     32  C   UNL     1       6.715  -7.528   3.261  0.00  0.00    +0.004 A 
ATOM     33  C   UNL     1       6.997  -6.882   2.071  0.00  0.00    +0.047 A 
ATOM     34  C   UNL     1       5.968  -6.534   1.212  0.00  0.00    +0.138 A 
BRANCH  34  35
ATOM     35  O   UNL     1       6.244  -5.904   0.038  0.00  0.00    -0.505 OA
ATOM     36  H   UNL     1       6.256  -4.939   0.103  0.00  0.00    +0.292 HD
ENDBRANCH  34  35
ENDBRANCH  27  29
ENDBRANCH  26  27
ENDBRANCH   1  26
TORSDOF 9
