REMARK  Name = ZINC65498000
REMARK  7 active torsions:
REMARK  status: ('A' for Active; 'I' for Inactive)
REMARK    1  A    between atoms: C_1  and  C_2
REMARK    2  A    between atoms: C_2  and  C_3
REMARK    3  A    between atoms: C_2  and  C_4
REMARK    4  A    between atoms: C_2  and  C_5
REMARK    5  A    between atoms: C_7  and  C_11
REMARK    6  A    between atoms: C_11  and  N_12
REMARK    7  A    between atoms: N_12  and  C_13
REMARK                            x       y       z     vdW  Elec       q    Type
REMARK                         _______ _______ _______ _____ _____    ______ ____
ROOT
ATOM      1  N   UNL     1       4.161  -2.525  -3.087  0.00  0.00    -0.298 N 
ATOM      2  C   UNL     1       3.842  -3.598  -4.031  0.00  0.00    +0.132 C 
ATOM      3  C   UNL     1       4.915  -2.792  -1.976  0.00  0.00    +0.199 A 
ATOM      4  N   UNL     1       5.366  -4.058  -1.766  0.00  0.00    -0.295 N 
ATOM      5  H   UNL     1       5.152  -4.762  -2.398  0.00  0.00    +0.172 HD
ATOM      6  C   UNL     1       6.114  -4.332  -0.673  0.00  0.00    +0.256 A 
ATOM      7  O   UNL     1       6.529  -5.460  -0.464  0.00  0.00    -0.267 OA
ATOM      8  C   UNL     1       6.399  -3.282   0.215  0.00  0.00    +0.036 A 
ATOM      9  C   UNL     1       5.922  -2.041  -0.042  0.00  0.00    +0.051 A 
ATOM     10  N   UNL     1       5.194  -1.815  -1.134  0.00  0.00    -0.220 NA
ATOM     11  C   UNL     1       6.222  -0.907   0.917  0.00  0.00    +0.037 C 
ATOM     12  C   UNL     1       5.455  -1.165   2.218  0.00  0.00    -0.076 C 
ATOM     13  N   UNL     1       6.210  -2.032   3.106  0.00  0.00    +0.380 N 
ATOM     14  C   UNL     1       6.326  -3.415   2.678  0.00  0.00    -0.078 C 
ATOM     15  C   UNL     1       7.236  -3.534   1.450  0.00  0.00    +0.023 C 
ATOM     16  H   UNL     1       7.139  -1.652   3.204  0.00  0.00    -0.086 HD
ATOM     17  H   UNL     1       5.769  -2.017   4.013  0.00  0.00    -0.086 HD
ENDROOT
BRANCH   1  18
ATOM     18  C   UNL     1       3.673  -1.165  -3.331  0.00  0.00    +0.162 C 
BRANCH  18  21
ATOM     19  C   UNL     1       0.707  -0.490  -1.238  0.00  0.00    +0.068 A 
ATOM     20  C   UNL     1       2.089  -0.472  -1.456  0.00  0.00    +0.049 A 
ATOM     21  C   UNL     1       2.324  -0.992  -2.683  0.00  0.00    +0.054 A 
ATOM     22  N   UNL     1       1.133  -1.327  -3.222  0.00  0.00    -0.280 N 
ATOM     23  H   UNL     1       0.994  -1.722  -4.097  0.00  0.00    +0.189 HD
ATOM     24  N   UNL     1       0.134  -1.007  -2.294  0.00  0.00    -0.178 NA
BRANCH  19  26
ATOM     25  C   UNL     1      -0.019   1.526   0.010  0.00  0.00    +0.017 C 
ATOM     26  C   UNL     1       0.002  -0.004   0.002  0.00  0.00    +0.006 C 
ATOM     27  C   UNL     1       0.742  -0.511   1.242  0.00  0.00    +0.017 C 
ATOM     28  C   UNL     1      -1.433  -0.534   0.013  0.00  0.00    +0.017 C 
ENDBRANCH  19  26
ENDBRANCH  18  21
ENDBRANCH   1  18
TORSDOF 3
