REMARK  Name = ZINC09730334
REMARK  9 active torsions:
REMARK  status: ('A' for Active; 'I' for Inactive)
REMARK    1  A    between atoms: C_1  and  C_2
REMARK    2  A    between atoms: C_5  and  S_8
REMARK    3  A    between atoms: S_8  and  N_11
REMARK    4  A    between atoms: C_15  and  C_17
REMARK    5  A    between atoms: C_24  and  C_25
REMARK    6  A    between atoms: C_24  and  N_69
REMARK    7  A    between atoms: N_27  and  C_28
REMARK    8  A    between atoms: C_32  and  C_35
REMARK    9  A    between atoms: C_33  and  C_34
REMARK                            x       y       z     vdW  Elec       q    Type
REMARK                         _______ _______ _______ _____ _____    ______ ____
ROOT
ATOM      1  C   UNL     1       1.032  -1.934  -0.279  0.00  0.00    +0.234 C 
ATOM      2  O   UNL     1       1.297  -2.693  -1.187  0.00  0.00    -0.274 OA
ATOM      3  N   UNL     1      -0.206  -1.410  -0.179  0.00  0.00    -0.304 N 
ATOM      4  C   UNL     1      -0.520  -0.406   0.849  0.00  0.00    +0.089 C 
ATOM      5  C   UNL     1      -1.191   0.794   0.161  0.00  0.00    -0.059 C 
ATOM      6  C   UNL     1      -1.924  -0.581  -1.698  0.00  0.00    -0.059 C 
ATOM      7  C   UNL     1      -1.281  -1.833  -1.090  0.00  0.00    +0.089 C 
ATOM      8  N   UNL     1      -2.363   0.307  -0.600  0.00  0.00    +0.387 N 
ATOM      9  H   UNL     1      -2.974  -0.222   0.033  0.00  0.00    -0.081 HD
ENDROOT
BRANCH   1  14
ATOM     10  N   UNL     1       3.055  -2.674   0.863  0.00  0.00    -0.165 NA
ATOM     11  C   UNL     1       4.387  -2.176   0.472  0.00  0.00    +0.110 C 
ATOM     12  C   UNL     1       4.321  -0.645   0.700  0.00  0.00    +0.019 C 
ATOM     13  C   UNL     1       2.865  -0.329   0.267  0.00  0.00    +0.031 C 
ATOM     14  C   UNL     1       2.086  -1.576   0.736  0.00  0.00    +0.166 C 
BRANCH  10  15
ATOM     15  S   UNL     1       2.709  -4.215   1.362  0.00  0.00    +0.062 S 
ATOM     16  O   UNL     1       3.894  -4.725   1.958  0.00  0.00    -0.153 OA
ATOM     17  O   UNL     1       1.473  -4.148   2.059  0.00  0.00    -0.153 OA
BRANCH  15  22
ATOM     18  C   UNL     1       1.715  -7.512  -3.592  0.00  0.00    +0.044 C 
ATOM     19  C   UNL     1       1.964  -6.689  -2.355  0.00  0.00    -0.050 A 
ATOM     20  C   UNL     1       3.256  -6.480  -1.912  0.00  0.00    +0.005 A 
ATOM     21  C   UNL     1       3.484  -5.724  -0.777  0.00  0.00    +0.029 A 
ATOM     22  C   UNL     1       2.419  -5.177  -0.085  0.00  0.00    +0.106 A 
ATOM     23  C   UNL     1       1.126  -5.391  -0.526  0.00  0.00    +0.029 A 
ATOM     24  C   UNL     1       0.899  -6.142  -1.664  0.00  0.00    +0.005 A 
ENDBRANCH  15  22
ENDBRANCH  10  15
ENDBRANCH   1  14
BRANCH   8  25
ATOM     25  C   UNL     1      -3.117   1.453  -1.149  0.00  0.00    +0.019 C 
BRANCH  25  26
ATOM     26  C   UNL     1      -3.736   2.218  -0.008  0.00  0.00    +0.201 C 
ATOM     27  O   UNL     1      -3.550   1.858   1.135  0.00  0.00    -0.278 OA
ATOM     28  N   UNL     1      -4.495   3.304  -0.258  0.00  0.00    -0.287 N 
ATOM     29  H   UNL     1      -4.699   3.552  -1.173  0.00  0.00    +0.155 HD
BRANCH  28  30
ATOM     30  C   UNL     1      -4.989   4.071   0.802  0.00  0.00    +0.036 A 
ATOM     31  C   UNL     1      -5.293   3.468   2.016  0.00  0.00    +0.023 A 
ATOM     32  C   UNL     1      -5.774   4.229   3.063  0.00  0.00    +0.002 A 
ATOM     33  C   UNL     1      -5.964   5.589   2.900  0.00  0.00    +0.004 A 
ATOM     34  C   UNL     1      -5.668   6.192   1.691  0.00  0.00    -0.046 A 
ATOM     35  C   UNL     1      -5.181   5.437   0.642  0.00  0.00    -0.026 A 
ATOM     36  C   UNL     1      -4.858   6.095  -0.675  0.00  0.00    +0.046 C 
ATOM     37  C   UNL     1      -5.877   7.675   1.518  0.00  0.00    +0.044 C 
ENDBRANCH  28  30
ENDBRANCH  25  26
ENDBRANCH   8  25
TORSDOF 6
