REMARK  Name = ZINC10906176
REMARK  10 active torsions:
REMARK  status: ('A' for Active; 'I' for Inactive)
REMARK    1  A    between atoms: C_1  and  C_2
REMARK    2  A    between atoms: C_4  and  C_25
REMARK    3  A    between atoms: C_6  and  N_13
REMARK    4  A    between atoms: C_14  and  C_16
REMARK    5  A    between atoms: C_16  and  N_17
REMARK    6  A    between atoms: N_17  and  C_18
REMARK    7  A    between atoms: N_17  and  C_22
REMARK    8  A    between atoms: C_18  and  C_19
REMARK    9  A    between atoms: C_22  and  C_23
REMARK   10  A    between atoms: C_22  and  C_24
REMARK                            x       y       z     vdW  Elec       q    Type
REMARK                         _______ _______ _______ _____ _____    ______ ____
ROOT
ATOM      1  N   UNL     1      -3.152  -3.158   0.126  0.00  0.00    -0.257 N 
ATOM      2  C   UNL     1      -4.364  -3.748   0.114  0.00  0.00    +0.203 C 
ATOM      3  O   UNL     1      -5.366  -3.078   0.238  0.00  0.00    -0.277 OA
ATOM      4  H   UNL     1      -2.350  -3.695   0.026  0.00  0.00    +0.158 HD
ENDROOT
BRANCH   1  10
ATOM      5  C   UNL     1      -1.601   2.819   0.752  0.00  0.00    +0.068 C 
ATOM      6  C   UNL     1      -1.243   1.367   0.566  0.00  0.00    +0.070 A 
ATOM      7  C   UNL     1      -2.299   0.351   0.496  0.00  0.00    +0.053 A 
ATOM      8  C   UNL     1      -3.647   0.335   0.557  0.00  0.00    +0.114 A 
ATOM      9  O   UNL     1      -4.078  -0.934   0.429  0.00  0.00    -0.445 OA
ATOM     10  C   UNL     1      -3.052  -1.786   0.281  0.00  0.00    +0.206 A 
ATOM     11  C   UNL     1      -1.885  -1.062   0.311  0.00  0.00    +0.110 A 
ATOM     12  C   UNL     1      -0.456  -1.340   0.212  0.00  0.00    +0.277 A 
ATOM     13  O   UNL     1      -0.054  -2.480   0.060  0.00  0.00    -0.266 OA
ATOM     14  N   UNL     1       0.412  -0.310   0.292  0.00  0.00    -0.242 N 
ATOM     15  H   UNL     1       1.361  -0.495   0.226  0.00  0.00    +0.192 HD
ATOM     16  N   UNL     1      -0.000   1.010   0.461  0.00  0.00    -0.175 NA
ATOM     17  C   UNL     1      -4.528   1.543   0.740  0.00  0.00    +0.087 C 
ENDBRANCH   1  10
BRANCH   2  18
ATOM     18  C   UNL     1      -4.473  -5.242  -0.055  0.00  0.00    +0.020 C 
BRANCH  18  19
ATOM     19  N   UNL     1      -5.879  -5.648   0.070  0.00  0.00    +0.393 N 
ATOM     20  H   UNL     1      -6.443  -5.106  -0.567  0.00  0.00    -0.080 HD
BRANCH  19  21
ATOM     21  C   UNL     1      -6.335  -5.414   1.447  0.00  0.00    -0.074 C 
ATOM     22  C   UNL     1      -7.835  -5.700   1.543  0.00  0.00    -0.013 C 
ATOM     23  C   UNL     1      -5.577  -6.341   2.400  0.00  0.00    -0.013 C 
ENDBRANCH  19  21
BRANCH  19  24
ATOM     24  C   UNL     1      -6.008  -7.075  -0.253  0.00  0.00    +0.019 C 
BRANCH  24  25
ATOM     25  C   UNL     1      -7.436  -7.379  -0.625  0.00  0.00    +0.194 C 
ATOM     26  O   UNL     1      -8.235  -6.476  -0.754  0.00  0.00    -0.278 OA
ATOM     27  N   UNL     1      -7.826  -8.655  -0.814  0.00  0.00    -0.331 N 
ATOM     28  H   UNL     1      -7.187  -9.378  -0.711  0.00  0.00    +0.145 HD
ATOM     29  H   UNL     1      -8.745  -8.851  -1.053  0.00  0.00    +0.145 HD
ENDBRANCH  24  25
ENDBRANCH  19  24
ENDBRANCH  18  19
ENDBRANCH   2  18
TORSDOF 6
