REMARK  Name = ZINC54616931
REMARK  10 active torsions:
REMARK  status: ('A' for Active; 'I' for Inactive)
REMARK    1  A    between atoms: C_1  and  C_2
REMARK    2  A    between atoms: C_2  and  C_3
REMARK    3  A    between atoms: C_3  and  O_4
REMARK    4  A    between atoms: O_4  and  C_5
REMARK    5  A    between atoms: C_10  and  C_11
REMARK    6  A    between atoms: C_13  and  C_22
REMARK    7  A    between atoms: C_14  and  C_21
REMARK    8  A    between atoms: N_24  and  C_25
REMARK    9  A    between atoms: C_29  and  C_32
REMARK   10  A    between atoms: C_30  and  C_31
REMARK                            x       y       z     vdW  Elec       q    Type
REMARK                         _______ _______ _______ _____ _____    ______ ____
ROOT
ATOM      1  C   UNL     1       0.867  -5.097   1.016  0.00  0.00    +0.182 C 
ATOM      2  C   UNL     1       2.041  -5.886   0.500  0.00  0.00    +0.060 C 
ATOM      3  C   UNL     1       2.159  -7.212   0.658  0.00  0.00    +0.018 C 
ATOM      4  N   UNL     1       1.203  -7.962   1.299  0.00  0.00    -0.286 N 
ATOM      5  C   UNL     1      -0.017  -7.354   1.557  0.00  0.00    +0.240 A 
ATOM      6  N   UNL     1      -0.191  -6.013   1.424  0.00  0.00    -0.201 N 
ATOM      7  N   UNL     1      -1.524  -5.774   1.754  0.00  0.00    -0.042 NA
ATOM      8  N   UNL     1      -2.040  -6.922   2.054  0.00  0.00    -0.021 NA
ATOM      9  N   UNL     1      -1.156  -7.856   1.940  0.00  0.00    -0.092 NA
ATOM     10  C   UNL     1       3.382  -7.904   0.113  0.00  0.00    +0.061 C 
ATOM     11  H   UNL     1       1.374  -8.881   1.560  0.00  0.00    +0.155 HD
ENDROOT
BRANCH   1  17
ATOM     12  C   UNL     1       1.290  -2.884   2.117  0.00  0.00    +0.126 A 
ATOM     13  C   UNL     1       1.681  -2.124   3.209  0.00  0.00    +0.047 A 
ATOM     14  C   UNL     1       2.084  -2.747   4.374  0.00  0.00    +0.019 A 
ATOM     15  C   UNL     1       2.097  -4.128   4.452  0.00  0.00    +0.018 A 
ATOM     16  C   UNL     1       1.708  -4.888   3.364  0.00  0.00    +0.025 A 
ATOM     17  C   UNL     1       1.298  -4.269   2.199  0.00  0.00    +0.024 A 
ATOM     18 BR   UNL     1       2.649  -4.979   6.048  0.00  0.00    -0.050 Br
BRANCH  12  19
ATOM     19  O   UNL     1       0.893  -2.273   0.969  0.00  0.00    -0.492 OA
BRANCH  19  20
ATOM     20  C   UNL     1       1.013  -0.850   0.918  0.00  0.00    +0.229 C 
BRANCH  20  22
ATOM     21  C   UNL     1       0.483   1.190  -0.425  0.00  0.00    +0.007 C 
ATOM     22  C   UNL     1       0.466  -0.340  -0.417  0.00  0.00    +0.038 C 
ENDBRANCH  20  22
ENDBRANCH  19  20
ENDBRANCH  12  19
ENDBRANCH   1  17
BRANCH   2  23
ATOM     23  C   UNL     1       3.069  -5.195  -0.184  0.00  0.00    +0.248 C 
ATOM     24  O   UNL     1       2.925  -4.893  -1.355  0.00  0.00    -0.270 OA
ATOM     25  N   UNL     1       4.208  -4.871   0.460  0.00  0.00    -0.281 N 
ATOM     26  H   UNL     1       4.353  -5.173   1.371  0.00  0.00    +0.155 HD
BRANCH  25  27
ATOM     27  C   UNL     1       5.180  -4.100  -0.184  0.00  0.00    +0.037 A 
ATOM     28  C   UNL     1       4.843  -3.345  -1.300  0.00  0.00    +0.023 A 
ATOM     29  C   UNL     1       5.806  -2.584  -1.934  0.00  0.00    +0.002 A 
ATOM     30  C   UNL     1       7.105  -2.574  -1.458  0.00  0.00    +0.004 A 
ATOM     31  C   UNL     1       7.444  -3.324  -0.348  0.00  0.00    -0.046 A 
ATOM     32  C   UNL     1       6.484  -4.083   0.294  0.00  0.00    -0.026 A 
ATOM     33  C   UNL     1       6.853  -4.896   1.508  0.00  0.00    +0.046 C 
ATOM     34  C   UNL     1       8.860  -3.310   0.167  0.00  0.00    +0.044 C 
ENDBRANCH  25  27
ENDBRANCH   2  23
TORSDOF 6
