REMARK  Name = ZINC50224378
REMARK  5 active torsions:
REMARK  status: ('A' for Active; 'I' for Inactive)
REMARK    1  A    between atoms: C_2  and  N_10
REMARK    2  A    between atoms: C_11  and  C_13
REMARK    3  A    between atoms: C_13  and  N_14
REMARK    4  A    between atoms: C_16  and  C_19
REMARK    5  A    between atoms: C_19  and  N_20
REMARK                            x       y       z     vdW  Elec       q    Type
REMARK                         _______ _______ _______ _____ _____    ______ ____
ROOT
ATOM      1  N   UNL     1       1.161   3.487   0.009  0.00  0.00    -0.283 N 
ATOM      2  C   UNL     1      -0.011   4.148  -0.078  0.00  0.00    +0.239 C 
ATOM      3  O   UNL     1      -1.056   3.533  -0.072  0.00  0.00    -0.273 OA
ATOM      4  H   UNL     1       1.992   3.982   0.085  0.00  0.00    +0.155 HD
ENDROOT
BRANCH   1   6
ATOM      5  C   UNL     1       0.141   1.387  -0.611  0.00  0.00    +0.046 A 
ATOM      6  C   UNL     1       1.178   2.087  -0.009  0.00  0.00    +0.053 A 
ATOM      7  C   UNL     1       2.232   1.397   0.575  0.00  0.00    +0.064 A 
ATOM      8  C   UNL     1       2.247   0.015   0.555  0.00  0.00    +0.043 A 
ATOM      9  C   UNL     1       1.213  -0.681  -0.046  0.00  0.00    +0.061 A 
ATOM     10  C   UNL     1       0.161   0.005  -0.628  0.00  0.00    +0.061 A 
ATOM     11 CL   UNL     1      -1.136  -0.871  -1.380  0.00  0.00    -0.082 Cl
ATOM     12 CL   UNL     1       1.236  -2.417  -0.070  0.00  0.00    -0.082 Cl
ATOM     13 CL   UNL     1       3.531   2.269   1.328  0.00  0.00    -0.082 Cl
ENDBRANCH   1   6
BRANCH   2  14
ATOM     14  C   UNL     1      -0.022   5.651  -0.184  0.00  0.00    +0.241 C 
BRANCH  14  15
ATOM     15  N   UNL     1      -1.406   6.125  -0.266  0.00  0.00    -0.243 N 
ATOM     16  C   UNL     1      -1.979   7.042   0.548  0.00  0.00    +0.132 A 
ATOM     17  C   UNL     1      -3.256   7.179   0.120  0.00  0.00    +0.066 A 
ATOM     18  N   UNL     1      -3.399   6.351  -0.921  0.00  0.00    -0.136 NA
ATOM     19  N   UNL     1      -2.283   5.745  -1.127  0.00  0.00    -0.065 NA
BRANCH  17  20
ATOM     20  C   UNL     1      -4.309   8.086   0.702  0.00  0.00    -0.027 C 
BRANCH  20  21
ATOM     21  N   UNL     1      -4.336   9.350  -0.048  0.00  0.00    +0.382 N 
ATOM     22  H   UNL     1      -3.434   9.797   0.016  0.00  0.00    -0.090 HD
ATOM     23  H   UNL     1      -4.550   9.162  -1.016  0.00  0.00    -0.090 HD
ATOM     24  H   UNL     1      -5.041   9.957   0.342  0.00  0.00    -0.090 HD
ENDBRANCH  20  21
ENDBRANCH  17  20
ENDBRANCH  14  15
ENDBRANCH   2  14
TORSDOF 5
