REMARK  Name = ZINC38330720
REMARK  17 active torsions:
REMARK  status: ('A' for Active; 'I' for Inactive)
REMARK    1  A    between atoms: C_1  and  C_2
REMARK    2  A    between atoms: C_2  and  C_4
REMARK    3  A    between atoms: C_2  and  N_14
REMARK    4  A    between atoms: C_7  and  S_10
REMARK    5  A    between atoms: S_10  and  N_13
REMARK    6  A    between atoms: N_14  and  C_15
REMARK    7  A    between atoms: N_14  and  C_23
REMARK    8  A    between atoms: C_15  and  C_16
REMARK    9  A    between atoms: N_18  and  C_19
REMARK   10  A    between atoms: C_19  and  C_20
REMARK   11  A    between atoms: C_20  and  C_21
REMARK   12  A    between atoms: C_20  and  C_22
REMARK   13  A    between atoms: C_23  and  C_24
REMARK   14  A    between atoms: N_26  and  C_27
REMARK   15  A    between atoms: C_27  and  C_28
REMARK   16  A    between atoms: C_28  and  C_29
REMARK   17  A    between atoms: C_28  and  C_30
REMARK                            x       y       z     vdW  Elec       q    Type
REMARK                         _______ _______ _______ _____ _____    ______ ____
ROOT
ATOM      1  N   UNL     1       0.831  -0.548   1.189  0.00  0.00    +0.395 N 
ATOM      2  H   UNL     1       1.730  -0.115   1.338  0.00  0.00    -0.080 HD
ENDROOT
BRANCH   1   4
ATOM      3  C   UNL     1       0.048   1.346  -0.152  0.00  0.00    -0.008 C 
ATOM      4  C   UNL     1       0.314  -0.161  -0.131  0.00  0.00    -0.040 C 
BRANCH   4   5
ATOM      5  C   UNL     1       1.329  -0.507  -1.189  0.00  0.00    -0.061 A 
ATOM      6  C   UNL     1       2.675  -0.307  -0.948  0.00  0.00    +0.004 A 
ATOM      7  C   UNL     1       3.606  -0.624  -1.920  0.00  0.00    +0.029 A 
ATOM      8  C   UNL     1       3.191  -1.143  -3.132  0.00  0.00    +0.105 A 
ATOM      9  C   UNL     1       1.844  -1.344  -3.373  0.00  0.00    +0.029 A 
ATOM     10  C   UNL     1       0.914  -1.030  -2.400  0.00  0.00    +0.004 A 
BRANCH   8  11
ATOM     11  S   UNL     1       4.377  -1.546  -4.370  0.00  0.00    +0.056 S 
ATOM     12  O   UNL     1       3.695  -1.504  -5.616  0.00  0.00    -0.153 OA
ATOM     13  O   UNL     1       5.527  -0.755  -4.104  0.00  0.00    -0.153 OA
BRANCH  11  14
ATOM     14  N   UNL     1       4.821  -3.123  -4.128  0.00  0.00    -0.204 NA
ATOM     15  H   UNL     1       5.095  -3.671  -4.880  0.00  0.00    +0.144 HD
ATOM     16  H   UNL     1       4.808  -3.498  -3.233  0.00  0.00    +0.144 HD
ENDBRANCH  11  14
ENDBRANCH   8  11
ENDBRANCH   4   5
ENDBRANCH   1   4
BRANCH   1  17
ATOM     17  C   UNL     1      -0.105  -0.106   2.231  0.00  0.00    +0.020 C 
BRANCH  17  18
ATOM     18  C   UNL     1      -1.435  -0.786   2.034  0.00  0.00    +0.197 C 
ATOM     19  O   UNL     1      -1.623  -1.478   1.055  0.00  0.00    -0.278 OA
ATOM     20  N   UNL     1      -2.415  -0.627   2.945  0.00  0.00    -0.317 N 
ATOM     21  H   UNL     1      -2.264  -0.074   3.728  0.00  0.00    +0.149 HD
BRANCH  20  22
ATOM     22  C   UNL     1      -3.708  -1.289   2.753  0.00  0.00    +0.107 C 
BRANCH  22  23
ATOM     23  C   UNL     1      -4.634  -0.946   3.922  0.00  0.00    -0.000 C 
ATOM     24  C   UNL     1      -6.023  -1.534   3.661  0.00  0.00    +0.009 C 
ATOM     25  C   UNL     1      -4.065  -1.536   5.214  0.00  0.00    +0.009 C 
ENDBRANCH  22  23
ENDBRANCH  20  22
ENDBRANCH  17  18
ENDBRANCH   1  17
BRANCH   1  26
ATOM     26  C   UNL     1       0.975  -2.009   1.248  0.00  0.00    +0.020 C 
BRANCH  26  27
ATOM     27  C   UNL     1       1.674  -2.393   2.527  0.00  0.00    +0.197 C 
ATOM     28  O   UNL     1       1.975  -1.539   3.334  0.00  0.00    -0.278 OA
ATOM     29  N   UNL     1       1.963  -3.686   2.775  0.00  0.00    -0.317 N 
ATOM     30  H   UNL     1       1.722  -4.369   2.130  0.00  0.00    +0.149 HD
BRANCH  29  31
ATOM     31  C   UNL     1       2.642  -4.059   4.019  0.00  0.00    +0.107 C 
BRANCH  31  32
ATOM     32  C   UNL     1       2.850  -5.574   4.051  0.00  0.00    -0.000 C 
ATOM     33  C   UNL     1       3.668  -5.951   5.288  0.00  0.00    +0.009 C 
ATOM     34  C   UNL     1       1.491  -6.275   4.106  0.00  0.00    +0.009 C 
ENDBRANCH  31  32
ENDBRANCH  29  31
ENDBRANCH  26  27
ENDBRANCH   1  26
TORSDOF 12
