REMARK  Name = ZINC37020203
REMARK  8 active torsions:
REMARK  status: ('A' for Active; 'I' for Inactive)
REMARK    1  A    between atoms: C_1  and  C_2
REMARK    2  A    between atoms: C_2  and  C_3
REMARK    3  A    between atoms: C_2  and  C_4
REMARK    4  A    between atoms: C_4  and  C_6
REMARK    5  A    between atoms: C_4  and  N_21
REMARK    6  A    between atoms: N_8  and  C_9
REMARK    7  A    between atoms: C_14  and  O_15
REMARK    8  A    between atoms: O_15  and  C_16
REMARK                            x       y       z     vdW  Elec       q    Type
REMARK                         _______ _______ _______ _____ _____    ______ ____
ROOT
ATOM      1  C   UNL     1       2.164  -0.075  -1.202  0.00  0.00    +0.203 C 
ATOM      2  O   UNL     1       2.537   0.895  -1.829  0.00  0.00    -0.277 OA
ATOM      3  N   UNL     1       3.046  -0.785  -0.471  0.00  0.00    -0.284 N 
ATOM      4  H   UNL     1       2.737  -1.521   0.081  0.00  0.00    +0.155 HD
ENDROOT
BRANCH   3   5
ATOM      5  C   UNL     1       4.409  -0.461  -0.508  0.00  0.00    +0.078 A 
ATOM      6  C   UNL     1       4.805   0.863  -0.637  0.00  0.00    +0.047 A 
ATOM      7  C   UNL     1       6.151   1.181  -0.673  0.00  0.00    +0.044 A 
ATOM      8  C   UNL     1       7.104   0.182  -0.581  0.00  0.00    +0.039 A 
ATOM      9  C   UNL     1       6.715  -1.140  -0.452  0.00  0.00    +0.063 A 
ATOM     10  C   UNL     1       5.368  -1.465  -0.409  0.00  0.00    +0.162 A 
ATOM     11 BR   UNL     1       8.021  -2.501  -0.327  0.00  0.00    -0.046 Br
ATOM     12 CL   UNL     1       6.645   2.837  -0.835  0.00  0.00    -0.083 Cl
BRANCH  10  13
ATOM     13  O   UNL     1       4.984  -2.763  -0.277  0.00  0.00    -0.431 OA
BRANCH  13  14
ATOM     14  C   UNL     1       4.798  -3.510  -1.481  0.00  0.00    +0.541 C 
ATOM     15  F   UNL     1       3.806  -2.903  -2.258  0.00  0.00    -0.166 F 
ATOM     16  F   UNL     1       5.997  -3.544  -2.200  0.00  0.00    -0.166 F 
ENDBRANCH  13  14
ENDBRANCH  10  13
ENDBRANCH   3   5
BRANCH   1  17
ATOM     17  C   UNL     1       0.715  -0.485  -1.242  0.00  0.00    +0.016 C 
BRANCH  17  18
ATOM     18  N   UNL     1       0.071   0.102  -2.425  0.00  0.00    +0.386 N 
ATOM     19  H   UNL     1       0.135   1.108  -2.377  0.00  0.00    -0.089 HD
ATOM     20  H   UNL     1       0.537  -0.226  -3.258  0.00  0.00    -0.089 HD
ATOM     21  H   UNL     1      -0.899  -0.172  -2.451  0.00  0.00    -0.089 HD
ENDBRANCH  17  18
BRANCH  17  23
ATOM     22  C   UNL     1      -0.003   1.542   0.030  0.00  0.00    +0.006 C 
ATOM     23  C   UNL     1       0.009   0.012   0.022  0.00  0.00    -0.023 C 
ATOM     24  C   UNL     1      -1.429  -0.509   0.042  0.00  0.00    +0.006 C 
ENDBRANCH  17  23
ENDBRANCH   1  17
TORSDOF 6
