REMARK  Name = ZINC18207562
REMARK  9 active torsions:
REMARK  status: ('A' for Active; 'I' for Inactive)
REMARK    1  A    between atoms: C_1  and  C_2
REMARK    2  A    between atoms: C_2  and  O_3
REMARK    3  A    between atoms: O_3  and  C_4
REMARK    4  A    between atoms: C_4  and  C_6
REMARK    5  A    between atoms: C_7  and  N_18
REMARK    6  A    between atoms: C_10  and  O_16
REMARK    7  A    between atoms: O_16  and  C_17
REMARK    8  A    between atoms: N_18  and  C_19
REMARK    9  A    between atoms: C_19  and  N_21
REMARK                            x       y       z     vdW  Elec       q    Type
REMARK                         _______ _______ _______ _____ _____    ______ ____
ROOT
ATOM      1  C   UNL     1      -4.462  -3.840   0.036  0.00  0.00    +0.147 A 
ATOM      2  C   UNL     1      -3.090  -3.734   0.136  0.00  0.00    +0.073 A 
ATOM      3  C   UNL     1      -2.779  -2.303   0.135  0.00  0.00    +0.025 A 
ATOM      4  C   UNL     1      -1.584  -1.579   0.212  0.00  0.00    +0.057 A 
ATOM      5  C   UNL     1      -1.619  -0.200   0.187  0.00  0.00    +0.121 A 
ATOM      6  C   UNL     1      -2.836   0.470   0.087  0.00  0.00    +0.047 A 
ATOM      7  C   UNL     1      -4.018  -0.231   0.011  0.00  0.00    +0.030 A 
ATOM      8  C   UNL     1      -4.006  -1.623   0.034  0.00  0.00    +0.049 A 
ATOM      9  N   UNL     1      -5.008  -2.566  -0.031  0.00  0.00    -0.348 N 
ATOM     10  H   UNL     1      -5.955  -2.369  -0.109  0.00  0.00    +0.166 HD
ENDROOT
BRANCH   1  11
ATOM     11  C   UNL     1      -5.194  -5.053   0.003  0.00  0.00    +0.358 C 
ATOM     12  O   UNL     1      -4.606  -6.118  -0.024  0.00  0.00    -0.243 OA
BRANCH  11  13
ATOM     13  O   UNL     1      -6.544  -5.027  -0.001  0.00  0.00    -0.460 OA
BRANCH  13  15
ATOM     14  C   UNL     1      -8.730  -6.058  -0.034  0.00  0.00    +0.048 C 
ATOM     15  C   UNL     1      -7.217  -6.287  -0.036  0.00  0.00    +0.229 C 
ENDBRANCH  13  15
ENDBRANCH  11  13
ENDBRANCH   1  11
BRANCH   5  16
ATOM     16  O   UNL     1      -0.460   0.508   0.261  0.00  0.00    -0.495 OA
ATOM     17  C   UNL     1      -0.567   1.933   0.230  0.00  0.00    +0.277 C 
ENDBRANCH   5  16
BRANCH   2  18
ATOM     18  N   UNL     1      -2.180  -4.782   0.220  0.00  0.00    -0.294 N 
ATOM     19  H   UNL     1      -2.439  -5.673  -0.062  0.00  0.00    +0.154 HD
BRANCH  18  20
ATOM     20  C   UNL     1      -0.938  -4.559   0.694  0.00  0.00    +0.137 C 
ATOM     21  S   UNL     1       0.377  -4.405  -0.390  0.00  0.00    -0.018 S 
BRANCH  20  22
ATOM     22  N   UNL     1      -0.732  -4.458   2.022  0.00  0.00    -0.309 N 
ATOM     23  C   UNL     1      -1.864  -4.486   2.959  0.00  0.00    +0.125 C 
ATOM     24  C   UNL     1      -1.625  -5.603   3.984  0.00  0.00    +0.125 C 
ATOM     25  N   UNL     1      -0.264  -5.463   4.521  0.00  0.00    -0.314 N 
ATOM     26  C   UNL     1       0.868  -5.435   3.584  0.00  0.00    +0.125 C 
ATOM     27  C   UNL     1       0.629  -4.325   2.560  0.00  0.00    +0.125 C 
ATOM     28  C   UNL     1      -0.051  -5.359   5.891  0.00  0.00    +0.099 A 
ATOM     29  C   UNL     1      -1.121  -5.506   6.768  0.00  0.00    +0.042 A 
ATOM     30  C   UNL     1      -0.895  -5.400   8.128  0.00  0.00    +0.005 A 
ATOM     31  C   UNL     1       0.399  -5.150   8.568  0.00  0.00    +0.018 A 
ATOM     32  C   UNL     1       1.413  -5.016   7.641  0.00  0.00    +0.084 A 
ATOM     33  N   UNL     1       1.169  -5.127   6.349  0.00  0.00    -0.350 N 
ATOM     34  H   UNL     1       1.901  -5.032   5.720  0.00  0.00    +0.166 HD
ENDBRANCH  20  22
ENDBRANCH  18  20
ENDBRANCH   2  18
TORSDOF 7
