REMARK  Name = ZINC37952114
REMARK  7 active torsions:
REMARK  status: ('A' for Active; 'I' for Inactive)
REMARK    1  A    between atoms: C_1  and  C_2
REMARK    2  A    between atoms: C_2  and  C_3
REMARK    3  A    between atoms: C_3  and  C_4
REMARK    4  A    between atoms: C_3  and  C_11
REMARK    5  A    between atoms: C_3  and  N_14
REMARK    6  A    between atoms: N_14  and  C_15
REMARK    7  A    between atoms: C_15  and  C_16
REMARK                            x       y       z     vdW  Elec       q    Type
REMARK                         _______ _______ _______ _____ _____    ______ ____
ROOT
ATOM      1  C   UNL     1       0.718  -0.497  -1.257  0.00  0.00    +0.035 C 
ENDROOT
BRANCH   1   2
ATOM      2  C   UNL     1      -0.011   0.002  -2.478  0.00  0.00    -0.050 A 
ATOM      3  C   UNL     1       0.643   0.806  -3.392  0.00  0.00    +0.004 A 
ATOM      4  C   UNL     1      -0.024   1.264  -4.513  0.00  0.00    +0.015 A 
ATOM      5  C   UNL     1      -1.348   0.917  -4.718  0.00  0.00    +0.018 A 
ATOM      6  C   UNL     1      -2.002   0.112  -3.803  0.00  0.00    +0.015 A 
ATOM      7  C   UNL     1      -1.331  -0.349  -2.686  0.00  0.00    +0.004 A 
ATOM      8 BR   UNL     1      -2.262   1.543  -6.250  0.00  0.00    -0.050 Br
ENDBRANCH   1   2
BRANCH   1   9
ATOM      9  C   UNL     1       0.739  -2.004  -1.265  0.00  0.00    +0.204 C 
ATOM     10  O   UNL     1      -0.108  -2.626  -0.658  0.00  0.00    -0.277 OA
ATOM     11  N   UNL     1       1.697  -2.662  -1.947  0.00  0.00    -0.330 N 
ATOM     12  H   UNL     1       2.374  -2.165  -2.433  0.00  0.00    +0.145 HD
ATOM     13  H   UNL     1       1.710  -3.631  -1.953  0.00  0.00    +0.145 HD
ENDBRANCH   1   9
BRANCH   1  14
ATOM     14  N   UNL     1       2.096   0.011  -1.267  0.00  0.00    +0.391 N 
ATOM     15  H   UNL     1       2.569  -0.314  -2.097  0.00  0.00    -0.084 HD
ATOM     16  H   UNL     1       2.083   1.020  -1.262  0.00  0.00    -0.084 HD
BRANCH  14  17
ATOM     17  C   UNL     1       2.807  -0.476  -0.077  0.00  0.00    -0.077 C 
BRANCH  17  18
ATOM     18  C   UNL     1       4.242   0.054  -0.088  0.00  0.00    -0.028 C 
ATOM     19  C   UNL     1       5.373  -0.972  -0.190  0.00  0.00    +0.002 C 
ATOM     20  C   UNL     1       5.115  -0.246   1.132  0.00  0.00    +0.002 C 
ENDBRANCH  17  18
ENDBRANCH  14  17
ENDBRANCH   1  14
BRANCH   1  22
ATOM     21  C   UNL     1      -0.019   1.526   0.010  0.00  0.00    +0.003 C 
ATOM     22  C   UNL     1       0.002  -0.004   0.002  0.00  0.00    -0.002 C 
ENDBRANCH   1  22
TORSDOF 6
