REMARK  Name = ZINC34730250
REMARK  2 active torsions:
REMARK  status: ('A' for Active; 'I' for Inactive)
REMARK    1  A    between atoms: C_1  and  N_2
REMARK    2  A    between atoms: N_10  and  C_13
REMARK                            x       y       z     vdW  Elec       q    Type
REMARK                         _______ _______ _______ _____ _____    ______ ____
ROOT
ATOM      1  C   UNL     1      -0.018   1.461   0.010  0.00  0.00    +0.157 C 
ATOM      2  N   UNL     1       0.002  -0.004   0.002  0.00  0.00    -0.263 N 
ATOM      3  C   UNL     1      -1.164  -0.675   0.004  0.00  0.00    +0.265 A 
ATOM      4  O   UNL     1      -2.222  -0.074   0.013  0.00  0.00    -0.267 OA
ATOM      5  C   UNL     1      -1.142  -2.154  -0.005  0.00  0.00    +0.074 A 
ATOM      6  C   UNL     1      -2.285  -3.080  -0.005  0.00  0.00    -0.023 A 
ATOM      7  C   UNL     1      -1.953  -4.381  -0.013  0.00  0.00    -0.004 A 
ATOM      8  S   UNL     1      -0.178  -4.390  -0.024  0.00  0.00    -0.075 S 
ATOM      9  C   UNL     1       0.115  -2.747  -0.015  0.00  0.00    +0.097 A 
ATOM     10  N   UNL     1       1.257  -1.986  -0.016  0.00  0.00    -0.290 N 
ATOM     11  C   UNL     1       1.184  -0.642  -0.013  0.00  0.00    +0.332 A 
ATOM     12  O   UNL     1       2.211   0.009  -0.019  0.00  0.00    -0.246 OA
ATOM     13  C   UNL     1       2.567  -2.643  -0.026  0.00  0.00    +0.154 C 
ATOM     14  C   UNL     1      -3.166  -5.271  -0.009  0.00  0.00    +0.043 C 
ATOM     15  C   UNL     1      -4.324  -4.349   0.436  0.00  0.00    +0.010 C 
ATOM     16  C   UNL     1      -3.808  -2.963  -0.000  0.00  0.00    +0.037 C 
ENDROOT
TORSDOF 0
