REMARK  Name = ZINC06443578
REMARK  12 active torsions:
REMARK  status: ('A' for Active; 'I' for Inactive)
REMARK    1  A    between atoms: C_1  and  C_2
REMARK    2  A    between atoms: C_12  and  C_14
REMARK    3  A    between atoms: C_14  and  C_16
REMARK    4  A    between atoms: C_14  and  N_69
REMARK    5  A    between atoms: N_20  and  C_21
REMARK    6  A    between atoms: C_21  and  C_22
REMARK    7  A    between atoms: C_21  and  C_23
REMARK    8  A    between atoms: C_21  and  C_24
REMARK    9  A    between atoms: C_25  and  C_26
REMARK   10  A    between atoms: C_25  and  N_69
REMARK   11  A    between atoms: C_32  and  C_33
REMARK   12  A    between atoms: C_32  and  N_69
REMARK                            x       y       z     vdW  Elec       q    Type
REMARK                         _______ _______ _______ _____ _____    ______ ____
ROOT
ATOM      1  C   UNL     1      -0.942   1.025  -2.631  0.00  0.00    +0.040 C 
ENDROOT
BRANCH   1  13
ATOM      2  C   UNL     1      -0.416   6.825  -5.678  0.00  0.00    +0.046 C 
ATOM      3  C   UNL     1      -1.259   5.614  -5.983  0.00  0.00    -0.026 A 
ATOM      4  C   UNL     1      -2.105   5.615  -7.071  0.00  0.00    +0.005 A 
ATOM      5  C   UNL     1      -2.887   4.506  -7.362  0.00  0.00    +0.001 A 
ATOM      6  C   UNL     1      -2.832   3.391  -6.574  0.00  0.00    +0.010 A 
ATOM      7  C   UNL     1      -1.981   3.366  -5.465  0.00  0.00    -0.001 A 
ATOM      8  C   UNL     1      -1.186   4.489  -5.167  0.00  0.00    +0.052 A 
ATOM      9  N   UNL     1      -0.348   4.460  -4.073  0.00  0.00    -0.322 N 
ATOM     10  H   UNL     1       0.199   5.235  -3.868  0.00  0.00    +0.169 HD
ATOM     11  C   UNL     1      -0.278   3.373  -3.285  0.00  0.00    +0.251 A 
ATOM     12  O   UNL     1       0.474   3.382  -2.325  0.00  0.00    -0.268 OA
ATOM     13  C   UNL     1      -1.053   2.221  -3.540  0.00  0.00    +0.011 A 
ATOM     14  C   UNL     1      -1.893   2.186  -4.604  0.00  0.00    +0.017 A 
ENDBRANCH   1  13
BRANCH   1  15
ATOM     15  C   UNL     1       0.481   0.529  -2.625  0.00  0.00    +0.143 A 
ATOM     16  N   UNL     1       1.525   1.151  -2.134  0.00  0.00    -0.115 NA
ATOM     17  N   UNL     1       2.558   0.403  -2.319  0.00  0.00    -0.023 NA
ATOM     18  N   UNL     1       2.201  -0.677  -2.921  0.00  0.00    -0.043 NA
ATOM     19  N   UNL     1       0.928  -0.637  -3.127  0.00  0.00    -0.225 N 
BRANCH  19  20
ATOM     20  C   UNL     1       0.120  -1.668  -3.785  0.00  0.00    +0.059 C 
ATOM     21  C   UNL     1      -0.610  -1.057  -4.983  0.00  0.00    +0.036 C 
ATOM     22  C   UNL     1       1.030  -2.800  -4.265  0.00  0.00    +0.036 C 
ATOM     23  C   UNL     1      -0.904  -2.223  -2.793  0.00  0.00    +0.036 C 
ENDBRANCH  19  20
ENDBRANCH   1  15
BRANCH   1  24
ATOM     24  N   UNL     1      -1.314   1.429  -1.258  0.00  0.00    +0.395 N 
ATOM     25  H   UNL     1      -0.668   2.159  -0.938  0.00  0.00    -0.079 HD
BRANCH  24  26
ATOM     26  C   UNL     1      -1.217   0.269  -0.347  0.00  0.00    -0.041 C 
BRANCH  26  27
ATOM     27  C   UNL     1       0.117   0.321   0.353  0.00  0.00    -0.064 A 
ATOM     28  C   UNL     1       1.174  -0.434  -0.119  0.00  0.00    +0.002 A 
ATOM     29  C   UNL     1       2.399  -0.382   0.520  0.00  0.00    +0.000 A 
ATOM     30  C   UNL     1       2.564   0.417   1.636  0.00  0.00    +0.000 A 
ATOM     31  C   UNL     1       1.504   1.167   2.111  0.00  0.00    +0.000 A 
ATOM     32  C   UNL     1       0.281   1.120   1.469  0.00  0.00    +0.002 A 
ENDBRANCH  26  27
ENDBRANCH  24  26
BRANCH  24  33
ATOM     33  C   UNL     1      -2.691   1.967  -1.246  0.00  0.00    -0.040 C 
BRANCH  33  34
ATOM     34  C   UNL     1      -2.965   2.570   0.107  0.00  0.00    -0.046 A 
ATOM     35  C   UNL     1      -3.706   1.869   1.040  0.00  0.00    +0.003 A 
ATOM     36  C   UNL     1      -3.953   2.420   2.283  0.00  0.00    +0.000 A 
ATOM     37  C   UNL     1      -3.469   3.678   2.591  0.00  0.00    +0.001 A 
ATOM     38  C   UNL     1      -2.732   4.383   1.657  0.00  0.00    +0.020 A 
ATOM     39  C   UNL     1      -2.480   3.829   0.415  0.00  0.00    +0.042 A 
ATOM     40 CL   UNL     1      -1.555   4.713  -0.759  0.00  0.00    -0.083 Cl
ENDBRANCH  33  34
ENDBRANCH  24  33
ENDBRANCH   1  24
TORSDOF 8
