REMARK  Name = ZINC17150368
REMARK  18 active torsions:
REMARK  status: ('A' for Active; 'I' for Inactive)
REMARK    1  A    between atoms: C_1  and  C_2
REMARK    2  A    between atoms: C_2  and  O_3
REMARK    3  A    between atoms: O_3  and  C_4
REMARK    4  A    between atoms: C_7  and  N_13
REMARK    5  A    between atoms: C_9  and  O_10
REMARK    6  A    between atoms: O_10  and  C_11
REMARK    7  A    between atoms: C_11  and  C_12
REMARK    8  A    between atoms: C_14  and  C_16
REMARK    9  A    between atoms: C_16  and  S_17
REMARK   10  A    between atoms: S_17  and  C_18
REMARK   11  A    between atoms: C_21  and  C_24
REMARK   12  A    between atoms: N_22  and  N_23
REMARK   13  A    between atoms: C_24  and  O_25
REMARK   14  A    between atoms: O_25  and  C_26
REMARK   15  A    between atoms: C_28  and  C_35
REMARK   16  A    between atoms: C_31  and  C_32
REMARK   17  A    between atoms: C_32  and  C_33
REMARK   18  A    between atoms: C_32  and  C_34
REMARK                            x       y       z     vdW  Elec       q    Type
REMARK                         _______ _______ _______ _____ _____    ______ ____
ROOT
ATOM      1  C   UNL     1       6.601  -2.902   6.381  0.00  0.00    +0.209 A 
ATOM      2  N   UNL     1       7.112  -3.268   5.228  0.00  0.00    -0.121 NA
ATOM      3  N   UNL     1       8.216  -3.897   5.420  0.00  0.00    -0.128 NA
ATOM      4  C   UNL     1       8.470  -3.976   6.696  0.00  0.00    +0.189 A 
ATOM      5  N   UNL     1       7.451  -3.345   7.353  0.00  0.00    -0.225 N 
ENDROOT
BRANCH   5   6
ATOM      6  N   UNL     1       7.312  -3.189   8.703  0.00  0.00    -0.295 N 
ATOM      7  H   UNL     1       6.800  -3.961   9.105  0.00  0.00    +0.163 HD
ATOM      8  H   UNL     1       8.210  -3.080   9.149  0.00  0.00    +0.163 HD
ENDBRANCH   5   6
BRANCH   1   9
ATOM      9  S   UNL     1       5.100  -2.013   6.626  0.00  0.00    -0.075 S 
BRANCH   9  10
ATOM     10  C   UNL     1       4.576  -1.800   4.907  0.00  0.00    +0.173 C 
BRANCH  10  12
ATOM     11  N   UNL     1       2.689  -0.766   3.686  0.00  0.00    -0.285 N 
ATOM     12  C   UNL     1       3.273  -1.043   4.869  0.00  0.00    +0.227 C 
ATOM     13  O   UNL     1       2.751  -0.682   5.902  0.00  0.00    -0.275 OA
ATOM     14  H   UNL     1       3.071  -1.112   2.864  0.00  0.00    +0.155 HD
BRANCH  11  18
ATOM     15  C   UNL     1      -0.761   1.578   3.569  0.00  0.00    +0.162 A 
ATOM     16  C   UNL     1      -0.553   0.701   4.622  0.00  0.00    +0.051 A 
ATOM     17  C   UNL     1       0.591  -0.073   4.662  0.00  0.00    +0.027 A 
ATOM     18  C   UNL     1       1.530   0.020   3.644  0.00  0.00    +0.037 A 
ATOM     19  C   UNL     1       1.322   0.893   2.585  0.00  0.00    +0.072 A 
ATOM     20  C   UNL     1       0.176   1.670   2.545  0.00  0.00    +0.164 A 
BRANCH  15  21
ATOM     21  O   UNL     1      -1.885   2.344   3.534  0.00  0.00    -0.489 OA
BRANCH  21  23
ATOM     22  C   UNL     1      -3.996   3.133   4.406  0.00  0.00    +0.048 C 
ATOM     23  C   UNL     1      -2.804   2.198   4.619  0.00  0.00    +0.226 C 
ENDBRANCH  21  23
ENDBRANCH  15  21
BRANCH  20  24
ATOM     24  O   UNL     1      -0.030   2.525   1.508  0.00  0.00    -0.489 OA
BRANCH  24  25
ATOM     25  C   UNL     1       0.976   2.572   0.495  0.00  0.00    +0.226 C 
ATOM     26  C   UNL     1       0.572   3.583  -0.579  0.00  0.00    +0.048 C 
ENDBRANCH  24  25
ENDBRANCH  20  24
ENDBRANCH  11  18
ENDBRANCH  10  12
ENDBRANCH   9  10
ENDBRANCH   1   9
BRANCH   4  27
ATOM     27  C   UNL     1       9.666  -4.639   7.329  0.00  0.00    +0.306 C 
BRANCH  27  28
ATOM     28  O   UNL     1       9.366  -6.011   7.592  0.00  0.00    -0.484 OA
BRANCH  28  29
ATOM     29  C   UNL     1      10.345  -6.758   8.167  0.00  0.00    +0.125 A 
ATOM     30  C   UNL     1      11.571  -6.182   8.470  0.00  0.00    +0.049 A 
ATOM     31  C   UNL     1      12.565  -6.943   9.054  0.00  0.00    -0.047 A 
ATOM     32  C   UNL     1      12.339  -8.278   9.336  0.00  0.00    +0.004 A 
ATOM     33  C   UNL     1      11.119  -8.854   9.034  0.00  0.00    +0.008 A 
ATOM     34  C   UNL     1      10.120  -8.095   8.456  0.00  0.00    -0.003 A 
ATOM     35  C   UNL     1      13.896  -6.318   9.384  0.00  0.00    +0.044 C 
BRANCH  34  36
ATOM     36  C   UNL     1       8.788  -8.723   8.133  0.00  0.00    +0.016 C 
ATOM     37  C   UNL     1       8.993  -9.881   7.154  0.00  0.00    +0.012 C 
ATOM     38  C   UNL     1       8.147  -9.249   9.419  0.00  0.00    +0.012 C 
ENDBRANCH  34  36
ENDBRANCH  28  29
ENDBRANCH  27  28
ENDBRANCH   4  27
TORSDOF 13
