REMARK  Name = ZINC08636327
REMARK  11 active torsions:
REMARK  status: ('A' for Active; 'I' for Inactive)
REMARK    1  A    between atoms: C_1  and  C_2
REMARK    2  A    between atoms: C_4  and  C_32
REMARK    3  A    between atoms: C_6  and  N_8
REMARK    4  A    between atoms: C_11  and  C_25
REMARK    5  A    between atoms: C_14  and  O_24
REMARK    6  A    between atoms: C_16  and  O_23
REMARK    7  A    between atoms: N_27  and  C_28
REMARK    8  A    between atoms: C_28  and  C_29
REMARK    9  A    between atoms: C_29  and  N_58
REMARK   10  A    between atoms: C_30  and  N_58
REMARK   11  A    between atoms: C_31  and  N_58
REMARK                            x       y       z     vdW  Elec       q    Type
REMARK                         _______ _______ _______ _____ _____    ______ ____
ROOT
ATOM      1  N   UNL     1      -3.318  -0.431   1.403  0.00  0.00    -0.277 N 
ATOM      2  C   UNL     1      -1.918  -0.849   1.556  0.00  0.00    +0.115 C 
ATOM      3  C   UNL     1      -1.204  -0.247   2.713  0.00  0.00    +0.100 C 
ATOM      4  C   UNL     1      -0.365   0.971   2.403  0.00  0.00    +0.048 C 
ATOM      5  C   UNL     1       0.465   0.780   1.161  0.00  0.00    +0.146 C 
ATOM      6  C   UNL     1      -0.359   0.403  -0.044  0.00  0.00    +0.165 C 
ATOM      7  C   UNL     1      -1.319  -0.742   0.173  0.00  0.00    +0.124 C 
ATOM      8  N   UNL     1      -2.503  -0.517  -0.692  0.00  0.00    -0.319 N 
ATOM      9  C   UNL     1      -3.573  -0.307   0.089  0.00  0.00    +0.138 C 
ATOM     10  S   UNL     1      -5.121   0.084  -0.531  0.00  0.00    -0.018 S 
ATOM     11  H   UNL     1      -2.503  -0.521  -1.662  0.00  0.00    +0.148 HD
ENDROOT
BRANCH   1  17
ATOM     12  C   UNL     1      -6.012  -2.176   5.126  0.00  0.00    +0.044 C 
ATOM     13  C   UNL     1      -5.549  -1.032   4.263  0.00  0.00    -0.048 A 
ATOM     14  C   UNL     1      -6.023   0.246   4.498  0.00  0.00    +0.006 A 
ATOM     15  C   UNL     1      -5.601   1.300   3.708  0.00  0.00    -0.048 A 
ATOM     16  C   UNL     1      -4.704   1.079   2.681  0.00  0.00    +0.027 A 
ATOM     17  C   UNL     1      -4.226  -0.203   2.442  0.00  0.00    +0.036 A 
ATOM     18  C   UNL     1      -4.656  -1.260   3.234  0.00  0.00    +0.027 A 
ATOM     19  C   UNL     1      -6.119   2.691   3.968  0.00  0.00    +0.044 C 
ENDBRANCH   1  17
BRANCH   3  20
ATOM     20  C   UNL     1      -2.227   0.142   3.749  0.00  0.00    +0.218 C 
ATOM     21  O   UNL     1      -2.874   1.158   3.611  0.00  0.00    -0.275 OA
ATOM     22  N   UNL     1      -2.423  -0.640   4.829  0.00  0.00    -0.317 N 
ATOM     23  H   UNL     1      -1.937  -1.475   4.918  0.00  0.00    +0.149 HD
BRANCH  22  24
ATOM     24  C   UNL     1      -3.371  -0.230   5.869  0.00  0.00    +0.085 C 
BRANCH  24  25
ATOM     25  C   UNL     1      -3.559  -1.374   6.867  0.00  0.00    -0.061 C 
BRANCH  25  28
ATOM     26  C   UNL     1      -4.898  -2.105   8.747  0.00  0.00    -0.097 C 
ATOM     27  C   UNL     1      -3.957   0.126   8.725  0.00  0.00    -0.097 C 
ATOM     28  N   UNL     1      -4.533  -0.953   7.896  0.00  0.00    +0.377 N 
ATOM     29  H   UNL     1      -5.378  -0.601   7.431  0.00  0.00    -0.083 HD
ENDBRANCH  25  28
ENDBRANCH  24  25
ENDBRANCH  22  24
ENDBRANCH   3  20
BRANCH   6  30
ATOM     30  O   UNL     1      -1.110   1.549  -0.452  0.00  0.00    -0.387 OA
ATOM     31  H   UNL     1      -0.568   2.323  -0.653  0.00  0.00    +0.210 HD
ENDBRANCH   6  30
BRANCH   5  32
ATOM     32  O   UNL     1       1.420  -0.253   1.409  0.00  0.00    -0.389 OA
ATOM     33  H   UNL     1       1.992  -0.085   2.171  0.00  0.00    +0.210 HD
ENDBRANCH   5  32
TORSDOF 7
