REMARK  Name = ZINC31958735
REMARK  9 active torsions:
REMARK  status: ('A' for Active; 'I' for Inactive)
REMARK    1  A    between atoms: C_1  and  C_2
REMARK    2  A    between atoms: C_2  and  C_3
REMARK    3  A    between atoms: C_4  and  C_18
REMARK    4  A    between atoms: C_9  and  N_12
REMARK    5  A    between atoms: C_13  and  C_15
REMARK    6  A    between atoms: C_15  and  C_16
REMARK    7  A    between atoms: C_16  and  N_17
REMARK    8  A    between atoms: C_20  and  C_25
REMARK    9  A    between atoms: C_23  and  C_24
REMARK                            x       y       z     vdW  Elec       q    Type
REMARK                         _______ _______ _______ _____ _____    ______ ____
ROOT
ATOM      1  C   UNL     1      -3.266   6.564   0.571  0.00  0.00    +0.051 A 
ATOM      2  C   UNL     1      -2.674   7.788   0.471  0.00  0.00    +0.093 A 
ATOM      3  N   UNL     1      -1.365   7.605   0.236  0.00  0.00    -0.228 NA
ATOM      4  C   UNL     1      -1.112   6.304   0.185  0.00  0.00    +0.139 A 
ATOM      5  N   UNL     1      -2.286   5.629   0.391  0.00  0.00    -0.301 N 
ATOM      6  C   UNL     1      -2.310   4.262   0.384  0.00  0.00    +0.116 A 
ATOM      7  C   UNL     1      -1.172   3.555   0.183  0.00  0.00    +0.050 A 
ATOM      8  C   UNL     1       0.050   4.225  -0.032  0.00  0.00    +0.028 A 
ATOM      9  C   UNL     1       0.081   5.583  -0.032  0.00  0.00    +0.048 A 
ENDROOT
BRANCH   2  10
ATOM     10  C   UNL     1      -3.359   9.098   0.600  0.00  0.00    +0.005 A 
ATOM     11  C   UNL     1      -4.532   9.346  -0.111  0.00  0.00    +0.013 A 
ATOM     12  C   UNL     1      -5.168  10.564   0.017  0.00  0.00    -0.050 A 
ATOM     13  C   UNL     1      -4.637  11.542   0.839  0.00  0.00    +0.003 A 
ATOM     14  C   UNL     1      -3.470  11.303   1.542  0.00  0.00    +0.004 A 
ATOM     15  C   UNL     1      -2.828  10.086   1.426  0.00  0.00    -0.041 A 
ATOM     16  C   UNL     1      -1.557   9.827   2.193  0.00  0.00    +0.044 C 
ATOM     17  C   UNL     1      -6.440  10.832  -0.745  0.00  0.00    +0.044 C 
ENDBRANCH   2  10
BRANCH   7  18
ATOM     18  N   UNL     1      -1.210   2.153   0.182  0.00  0.00    -0.284 N 
ATOM     19  C   UNL     1      -0.375   1.456  -0.614  0.00  0.00    +0.215 C 
ATOM     20  O   UNL     1       0.345   2.039  -1.396  0.00  0.00    -0.276 OA
ATOM     21  H   UNL     1      -1.921   1.622   0.832  0.00  0.00    +0.155 HD
BRANCH  19  22
ATOM     22  C   UNL     1      -0.341  -0.049  -0.537  0.00  0.00    +0.076 C 
BRANCH  22  23
ATOM     23  C   UNL     1       0.678  -0.588  -1.542  0.00  0.00    -0.077 C 
BRANCH  23  24
ATOM     24  N   UNL     1       0.711  -2.055  -1.467  0.00  0.00    +0.378 N 
ATOM     25  H   UNL     1       1.444  -2.443  -2.190  0.00  0.00    -0.090 HD
ATOM     26  H   UNL     1      -0.285  -2.457  -1.703  0.00  0.00    -0.090 HD
ATOM     27  H   UNL     1       0.999  -2.364  -0.451  0.00  0.00    -0.090 HD
ENDBRANCH  23  24
ENDBRANCH  22  23
ENDBRANCH  19  22
ENDBRANCH   7  18
BRANCH   1  29
ATOM     28  C   UNL     1      -4.987   6.313   2.338  0.00  0.00    +0.010 C 
ATOM     29  C   UNL     1      -4.725   6.294   0.831  0.00  0.00    +0.052 C 
ENDBRANCH   1  29
TORSDOF 6
