REMARK  Name = ZINC43287773
REMARK  10 active torsions:
REMARK  status: ('A' for Active; 'I' for Inactive)
REMARK    1  A    between atoms: C_1  and  C_2
REMARK    2  A    between atoms: C_2  and  C_3
REMARK    3  A    between atoms: C_3  and  N_4
REMARK    4  A    between atoms: N_4  and  C_5
REMARK    5  A    between atoms: N_4  and  C_10
REMARK    6  A    between atoms: C_5  and  C_6
REMARK    7  A    between atoms: C_10  and  C_12
REMARK    8  A    between atoms: C_10  and  C_18
REMARK    9  A    between atoms: C_18  and  C_20
REMARK   10  A    between atoms: C_18  and  N_21
REMARK                            x       y       z     vdW  Elec       q    Type
REMARK                         _______ _______ _______ _____ _____    ______ ____
ROOT
ATOM      1  C   UNL     1       1.601  -2.779   1.832  0.00  0.00    +0.079 C 
ENDROOT
BRANCH   1   2
ATOM      2  C   UNL     1       1.491  -4.223   1.416  0.00  0.00    +0.006 A 
ATOM      3  C   UNL     1       1.828  -5.339   2.108  0.00  0.00    +0.028 A 
ATOM      4  C   UNL     1       1.637  -6.576   1.520  0.00  0.00    +0.025 A 
ATOM      5  C   UNL     1       1.119  -6.636   0.269  0.00  0.00    +0.060 A 
ATOM      6  S   UNL     1       0.876  -4.909  -0.114  0.00  0.00    -0.099 S 
ATOM      7 BR   UNL     1       2.092  -8.160   2.447  0.00  0.00    -0.050 Br
ENDBRANCH   1   2
BRANCH   1   8
ATOM      8  C   UNL     1       2.772  -2.124   1.097  0.00  0.00    -0.056 C 
ATOM      9  C   UNL     1       2.935  -0.682   1.579  0.00  0.00    -0.012 C 
BRANCH   8  10
ATOM     10  N   UNL     1       4.005  -2.875   1.373  0.00  0.00    +0.381 N 
ATOM     11  H   UNL     1       3.898  -3.826   1.055  0.00  0.00    -0.090 HD
ATOM     12  H   UNL     1       4.777  -2.443   0.888  0.00  0.00    -0.090 HD
ATOM     13  H   UNL     1       4.186  -2.870   2.365  0.00  0.00    -0.090 HD
ENDBRANCH   8  10
ENDBRANCH   1   8
BRANCH   1  14
ATOM     14  N   UNL     1       0.356  -2.076   1.494  0.00  0.00    -0.289 NA
BRANCH  14  15
ATOM     15  C   UNL     1       0.332  -1.701   0.074  0.00  0.00    +0.085 C 
BRANCH  15  17
ATOM     16  C   UNL     1      -1.138  -1.054  -1.840  0.00  0.00    +0.005 C 
ATOM     17  C   UNL     1      -1.112  -1.444  -0.361  0.00  0.00    +0.012 C 
ENDBRANCH  15  17
ENDBRANCH  14  15
BRANCH  14  18
ATOM     18  C   UNL     1       0.167  -0.899   2.353  0.00  0.00    +0.198 C 
BRANCH  18  19
ATOM     19  C   UNL     1      -0.247  -1.351   3.754  0.00  0.00    +0.402 C 
ATOM     20  F   UNL     1       0.810  -2.045   4.352  0.00  0.00    -0.169 F 
ATOM     21  F   UNL     1      -0.568  -0.232   4.530  0.00  0.00    -0.169 F 
ATOM     22  F   UNL     1      -1.363  -2.190   3.663  0.00  0.00    -0.169 F 
ENDBRANCH  18  19
ENDBRANCH  14  18
ENDBRANCH   1  14
TORSDOF 8
