REMARK  Name = ZINC18935166
REMARK  12 active torsions:
REMARK  status: ('A' for Active; 'I' for Inactive)
REMARK    1  A    between atoms: C_1  and  C_2
REMARK    2  A    between atoms: C_2  and  C_3
REMARK    3  A    between atoms: C_2  and  C_4
REMARK    4  A    between atoms: C_4  and  N_5
REMARK    5  A    between atoms: N_5  and  C_6
REMARK    6  A    between atoms: C_7  and  N_22
REMARK    7  A    between atoms: N_8  and  C_15
REMARK    8  A    between atoms: C_15  and  C_16
REMARK    9  A    between atoms: C_23  and  C_25
REMARK   10  A    between atoms: C_25  and  N_71
REMARK   11  A    between atoms: C_26  and  N_71
REMARK   12  A    between atoms: C_27  and  N_71
REMARK                            x       y       z     vdW  Elec       q    Type
REMARK                         _______ _______ _______ _____ _____    ______ ____
ROOT
ATOM      1  N   UNL     1       2.041   2.344   0.382  0.00  0.00    -0.266 N 
ATOM      2  C   UNL     1       2.574   2.507   1.611  0.00  0.00    +0.203 C 
ATOM      3  O   UNL     1       3.586   3.162   1.751  0.00  0.00    -0.277 OA
ENDROOT
BRANCH   1   4
ATOM      4  C   UNL     1       2.714   2.847  -0.751  0.00  0.00    +0.140 A 
ATOM      5  C   UNL     1       2.140   3.830  -1.530  0.00  0.00    +0.128 A 
ATOM      6  N   UNL     1       2.821   4.301  -2.629  0.00  0.00    -0.276 N 
ATOM      7  C   UNL     1       4.033   3.809  -2.940  0.00  0.00    +0.331 A 
ATOM      8  O   UNL     1       4.620   4.238  -3.915  0.00  0.00    -0.246 OA
ATOM      9  N   UNL     1       4.609   2.850  -2.193  0.00  0.00    -0.273 N 
ATOM     10  H   UNL     1       5.509   2.498  -2.449  0.00  0.00    +0.173 HD
ATOM     11  C   UNL     1       3.987   2.358  -1.104  0.00  0.00    +0.277 A 
ATOM     12  O   UNL     1       4.520   1.493  -0.430  0.00  0.00    -0.266 OA
BRANCH   5  13
ATOM     13  N   UNL     1       0.901   4.334  -1.212  0.00  0.00    -0.343 N 
ATOM     14  H   UNL     1       0.468   4.069  -0.386  0.00  0.00    +0.144 HD
ATOM     15  H   UNL     1       0.460   4.953  -1.814  0.00  0.00    +0.144 HD
ENDBRANCH   5  13
BRANCH   6  16
ATOM     16  C   UNL     1       2.222   5.345  -3.464  0.00  0.00    +0.163 C 
BRANCH  16  17
ATOM     17  C   UNL     1       2.629   6.700  -2.944  0.00  0.00    -0.028 A 
ATOM     18  C   UNL     1       1.850   7.340  -1.999  0.00  0.00    +0.005 A 
ATOM     19  C   UNL     1       2.226   8.580  -1.518  0.00  0.00    +0.000 A 
ATOM     20  C   UNL     1       3.376   9.185  -1.990  0.00  0.00    +0.000 A 
ATOM     21  C   UNL     1       4.152   8.547  -2.939  0.00  0.00    +0.000 A 
ATOM     22  C   UNL     1       3.779   7.304  -3.416  0.00  0.00    +0.005 A 
ENDBRANCH  16  17
ENDBRANCH   6  16
ENDBRANCH   1   4
BRANCH   1  23
ATOM     23  C   UNL     1       0.764   1.644   0.224  0.00  0.00    +0.117 C 
BRANCH  23  25
ATOM     24  C   UNL     1      -0.329  -0.602   0.170  0.00  0.00    +0.009 C 
ATOM     25  C   UNL     1       1.012   0.136   0.172  0.00  0.00    +0.001 C 
ATOM     26  C   UNL     1       1.786  -0.210  -1.102  0.00  0.00    +0.009 C 
ENDBRANCH  23  25
ENDBRANCH   1  23
BRANCH   2  27
ATOM     27  C   UNL     1       1.912   1.877   2.809  0.00  0.00    +0.020 C 
BRANCH  27  29
ATOM     28  C   UNL     1       2.447   3.591   4.434  0.00  0.00    -0.095 C 
ATOM     29  N   UNL     1       2.707   2.198   4.013  0.00  0.00    +0.388 N 
ATOM     30  H   UNL     1       3.704   2.098   3.790  0.00  0.00    -0.081 HD
BRANCH  29  31
ATOM     31  C   UNL     1       2.364   1.267   5.108  0.00  0.00    -0.037 C 
ATOM     32  C   UNL     1       0.905   1.450   5.522  0.00  0.00    -0.010 C 
ATOM     33  C   UNL     1       0.656   0.629   6.793  0.00  0.00    +0.003 C 
ATOM     34  C   UNL     1       1.402   1.292   7.948  0.00  0.00    +0.035 C 
ATOM     35  C   UNL     1       2.841   1.541   7.577  0.00  0.00    -0.046 A 
ATOM     36  C   UNL     1       3.281   1.532   6.272  0.00  0.00    -0.058 A 
ATOM     37  C   UNL     1       4.621   1.775   5.997  0.00  0.00    +0.002 A 
ATOM     38  C   UNL     1       5.513   2.021   7.021  0.00  0.00    +0.000 A 
ATOM     39  C   UNL     1       5.072   2.026   8.330  0.00  0.00    +0.000 A 
ATOM     40  C   UNL     1       3.741   1.787   8.605  0.00  0.00    +0.004 A 
ENDBRANCH  29  31
ENDBRANCH  27  29
ENDBRANCH   2  27
TORSDOF 9
