REMARK  Name = ZINC01906836
REMARK  4 active torsions:
REMARK  status: ('A' for Active; 'I' for Inactive)
REMARK    1  A    between atoms: C_1  and  C_2
REMARK    2  A    between atoms: C_2  and  C_3
REMARK    3  A    between atoms: C_3  and  N_4
REMARK    4  A    between atoms: C_14  and  C_16
REMARK                            x       y       z     vdW  Elec       q    Type
REMARK                         _______ _______ _______ _____ _____    ______ ____
ROOT
ATOM      1  N   UNL     1       0.762  -1.980   1.234  0.00  0.00    +0.380 N 
ATOM      2  C   UNL     1       1.544  -2.451   0.084  0.00  0.00    -0.074 C 
ATOM      3  C   UNL     1       1.504  -3.979   0.026  0.00  0.00    +0.048 C 
ATOM      4  C   UNL     1       2.107  -4.548   1.317  0.00  0.00    +0.177 C 
ATOM      5  C   UNL     1       1.320  -3.995   2.511  0.00  0.00    +0.048 C 
ATOM      6  C   UNL     1       1.366  -2.466   2.480  0.00  0.00    -0.074 C 
ATOM      7  N   UNL     1       2.062  -5.988   1.305  0.00  0.00    -0.177 NA
ATOM      8  C   UNL     1       2.990  -6.527   0.265  0.00  0.00    +0.138 C 
ATOM      9  C   UNL     1       2.577  -7.973   0.237  0.00  0.00    +0.023 C 
ATOM     10  C   UNL     1       1.340  -8.001   0.769  0.00  0.00    +0.047 C 
ATOM     11  N   UNL     1       0.936  -6.696   1.114  0.00  0.00    -0.273 N 
ATOM     12  C   UNL     1       4.348  -6.242   0.834  0.00  0.00    +0.018 A 
ATOM     13  C   UNL     1       5.392  -7.127   0.799  0.00  0.00    +0.024 A 
ATOM     14  C   UNL     1       6.608  -6.776   1.367  0.00  0.00    +0.018 A 
ATOM     15  C   UNL     1       6.756  -5.536   1.963  0.00  0.00    +0.019 A 
ATOM     16  C   UNL     1       5.705  -4.641   1.993  0.00  0.00    +0.047 A 
ATOM     17  C   UNL     1       4.487  -4.979   1.422  0.00  0.00    +0.128 A 
ATOM     18  O   UNL     1       3.469  -4.108   1.421  0.00  0.00    -0.469 OA
ATOM     19 BR   UNL     1       8.060  -7.987   1.324  0.00  0.00    -0.050 Br
ATOM     20  H   UNL     1       0.025  -6.373   1.198  0.00  0.00    +0.167 HD
ATOM     21  H   UNL     1      -0.182  -2.328   1.160  0.00  0.00    -0.082 HD
ENDROOT
BRANCH  10  22
ATOM     22  C   UNL     1       0.526  -9.223   0.964  0.00  0.00    -0.003 A 
ATOM     23  C   UNL     1       1.031 -10.468   0.590  0.00  0.00    +0.011 A 
ATOM     24  C   UNL     1       0.268 -11.603   0.773  0.00  0.00    +0.016 A 
ATOM     25  C   UNL     1      -0.996 -11.507   1.328  0.00  0.00    +0.018 A 
ATOM     26  C   UNL     1      -1.503 -10.274   1.701  0.00  0.00    +0.016 A 
ATOM     27  C   UNL     1      -0.747  -9.134   1.527  0.00  0.00    +0.011 A 
ATOM     28 BR   UNL     1      -2.036 -13.067   1.575  0.00  0.00    -0.050 Br
ENDBRANCH  10  22
BRANCH   1  29
ATOM     29  C   UNL     1       0.742  -0.511   1.242  0.00  0.00    -0.079 C 
BRANCH  29  31
ATOM     30  C   UNL     1      -0.019   1.526   0.010  0.00  0.00    +0.002 C 
ATOM     31  C   UNL     1       0.002  -0.004   0.002  0.00  0.00    -0.022 C 
ENDBRANCH  29  31
ENDBRANCH   1  29
TORSDOF 3
