REMARK  Name = ZINC39021277
REMARK  11 active torsions:
REMARK  status: ('A' for Active; 'I' for Inactive)
REMARK    1  A    between atoms: C_1  and  C_2
REMARK    2  A    between atoms: C_2  and  O_3
REMARK    3  A    between atoms: O_3  and  C_4
REMARK    4  A    between atoms: C_4  and  C_6
REMARK    5  A    between atoms: C_9  and  N_12
REMARK    6  A    between atoms: C_13  and  C_15
REMARK    7  A    between atoms: C_15  and  S_16
REMARK    8  A    between atoms: S_16  and  C_17
REMARK    9  A    between atoms: C_21  and  C_25
REMARK   10  A    between atoms: N_23  and  N_24
REMARK   11  A    between atoms: C_28  and  C_31
REMARK                            x       y       z     vdW  Elec       q    Type
REMARK                         _______ _______ _______ _____ _____    ______ ____
ROOT
ATOM      1  C   UNL     1       5.396  -8.082  -8.480  0.00  0.00    +0.214 C 
ATOM      2  N   UNL     1       4.746  -7.599  -9.720  0.00  0.00    -0.228 NA
ATOM      3  N   UNL     1       5.428  -6.332 -10.023  0.00  0.00    -0.234 NA
ATOM      4  C   UNL     1       6.839  -6.612  -9.649  0.00  0.00    +0.185 C 
ATOM      5  N   UNL     1       6.733  -7.455  -8.434  0.00  0.00    -0.197 NA
ATOM      6  H   UNL     1       3.758  -7.453  -9.576  0.00  0.00    +0.143 HD
ATOM      7  H   UNL     1       5.352  -6.106 -11.003  0.00  0.00    +0.143 HD
ENDROOT
BRANCH   4   8
ATOM      8  C   UNL     1       7.579  -5.310  -9.338  0.00  0.00    +0.187 C 
ATOM      9  C   UNL     1       7.553  -4.379 -10.537  0.00  0.00    +0.034 C 
ATOM     10  C   UNL     1       8.854  -4.224 -10.853  0.00  0.00    +0.091 C 
ATOM     11  N   UNL     1       9.637  -4.938 -10.003  0.00  0.00    -0.154 NA
ATOM     12  N   UNL     1       9.016  -5.564  -9.136  0.00  0.00    -0.176 NA
BRANCH  10  13
ATOM     13  C   UNL     1       9.359  -3.392 -11.973  0.00  0.00    +0.002 A 
ATOM     14  C   UNL     1       8.466  -2.694 -12.784  0.00  0.00    +0.011 A 
ATOM     15  C   UNL     1       8.941  -1.922 -13.824  0.00  0.00    +0.020 A 
ATOM     16  C   UNL     1      10.302  -1.840 -14.063  0.00  0.00    +0.041 A 
ATOM     17  C   UNL     1      11.193  -2.531 -13.260  0.00  0.00    +0.020 A 
ATOM     18  C   UNL     1      10.729  -3.301 -12.214  0.00  0.00    +0.011 A 
ATOM     19 CL   UNL     1      10.893  -0.867 -15.374  0.00  0.00    -0.084 Cl
ENDBRANCH  10  13
ENDBRANCH   4   8
BRANCH   5  20
ATOM     20  N   UNL     1       7.781  -8.463  -8.405  0.00  0.00    -0.264 NA
ATOM     21  H   UNL     1       7.688  -9.058  -7.596  0.00  0.00    +0.137 HD
ATOM     22  H   UNL     1       7.784  -9.006  -9.256  0.00  0.00    +0.137 HD
ENDBRANCH   5  20
BRANCH   1  23
ATOM     23  S   UNL     1       4.425  -7.583  -7.032  0.00  0.00    -0.115 S 
BRANCH  23  24
ATOM     24  C   UNL     1       4.348  -5.775  -7.158  0.00  0.00    +0.168 C 
BRANCH  24  26
ATOM     25  N   UNL     1       3.368  -3.894  -5.884  0.00  0.00    -0.285 N 
ATOM     26  C   UNL     1       3.557  -5.224  -5.999  0.00  0.00    +0.227 C 
ATOM     27  O   UNL     1       3.091  -5.977  -5.171  0.00  0.00    -0.275 OA
ATOM     28  H   UNL     1       3.674  -3.298  -6.586  0.00  0.00    +0.155 HD
BRANCH  25  32
ATOM     29  C   UNL     1       1.470  -2.345  -2.516  0.00  0.00    +0.059 A 
ATOM     30  C   UNL     1       2.279  -3.480  -2.405  0.00  0.00    +0.017 A 
ATOM     31  C   UNL     1       2.904  -3.989  -3.520  0.00  0.00    +0.024 A 
ATOM     32  C   UNL     1       2.732  -3.376  -4.757  0.00  0.00    +0.033 A 
ATOM     33  C   UNL     1       1.929  -2.246  -4.872  0.00  0.00    +0.024 A 
ATOM     34  C   UNL     1       1.295  -1.735  -3.762  0.00  0.00    +0.017 A 
BRANCH  29  35
ATOM     35  C   UNL     1       0.797  -1.796  -1.323  0.00  0.00    +0.339 C 
ATOM     36  O   UNL     1       0.091  -0.813  -1.423  0.00  0.00    -0.245 OA
BRANCH  35  37
ATOM     37  O   UNL     1       0.967  -2.386  -0.124  0.00  0.00    -0.461 OA
BRANCH  37  39
ATOM     38  C   UNL     1       0.597  -2.601   2.255  0.00  0.00    +0.048 C 
ATOM     39  C   UNL     1       0.286  -1.801   0.988  0.00  0.00    +0.229 C 
ENDBRANCH  37  39
ENDBRANCH  35  37
ENDBRANCH  29  35
ENDBRANCH  25  32
ENDBRANCH  24  26
ENDBRANCH  23  24
ENDBRANCH   1  23
TORSDOF 10
