REMARK  Name = ZINC39362810
REMARK  10 active torsions:
REMARK  status: ('A' for Active; 'I' for Inactive)
REMARK    1  A    between atoms: C_1  and  C_2
REMARK    2  A    between atoms: C_2  and  O_3
REMARK    3  A    between atoms: O_3  and  C_4
REMARK    4  A    between atoms: C_7  and  N_10
REMARK    5  A    between atoms: C_11  and  C_13
REMARK    6  A    between atoms: C_13  and  S_14
REMARK    7  A    between atoms: S_14  and  C_15
REMARK    8  A    between atoms: C_18  and  C_28
REMARK    9  A    between atoms: N_20  and  C_21
REMARK   10  A    between atoms: C_28  and  C_29
REMARK                            x       y       z     vdW  Elec       q    Type
REMARK                         _______ _______ _______ _____ _____    ______ ____
ROOT
ATOM      1  C   UNL     1      -5.183 -10.175   0.475  0.00  0.00    +0.180 C 
ATOM      2  N   UNL     1      -4.129 -10.918   0.459  0.00  0.00    -0.162 NA
ATOM      3  N   UNL     1      -4.458 -12.277   0.524  0.00  0.00    -0.246 N 
ATOM      4  C   UNL     1      -5.929 -12.340   0.588  0.00  0.00    +0.187 C 
ATOM      5  N   UNL     1      -6.345 -10.928   0.558  0.00  0.00    -0.258 N 
ATOM      6  H   UNL     1      -3.842 -13.027   0.526  0.00  0.00    +0.170 HD
ENDROOT
BRANCH   5   7
ATOM      7  C   UNL     1      -7.656 -10.442   0.602  0.00  0.00    +0.038 A 
ATOM      8  C   UNL     1      -8.418 -10.600   1.752  0.00  0.00    +0.026 A 
ATOM      9  C   UNL     1      -9.712 -10.118   1.793  0.00  0.00    +0.040 A 
ATOM     10  C   UNL     1     -10.249  -9.479   0.689  0.00  0.00    +0.124 A 
ATOM     11  C   UNL     1      -9.491  -9.320  -0.459  0.00  0.00    +0.040 A 
ATOM     12  C   UNL     1      -8.195  -9.795  -0.503  0.00  0.00    +0.026 A 
ATOM     13  F   UNL     1     -11.515  -9.009   0.731  0.00  0.00    -0.205 F 
ENDBRANCH   5   7
BRANCH   1  14
ATOM     14  S   UNL     1      -5.151  -8.414   0.408  0.00  0.00    -0.079 S 
BRANCH  14  15
ATOM     15  C   UNL     1      -3.385  -8.011   0.310  0.00  0.00    +0.173 C 
BRANCH  15  17
ATOM     16  N   UNL     1      -1.979  -5.981   0.168  0.00  0.00    -0.285 N 
ATOM     17  C   UNL     1      -3.214  -6.515   0.246  0.00  0.00    +0.227 C 
ATOM     18  O   UNL     1      -4.188  -5.792   0.265  0.00  0.00    -0.275 OA
ATOM     19  H   UNL     1      -1.205  -6.559   0.078  0.00  0.00    +0.155 HD
BRANCH  16  23
ATOM     20  C   UNL     1      -1.485  -1.843   0.315  0.00  0.00    +0.121 A 
ATOM     21  C   UNL     1      -2.509  -2.445   1.031  0.00  0.00    +0.047 A 
ATOM     22  C   UNL     1      -2.674  -3.815   0.983  0.00  0.00    +0.027 A 
ATOM     23  C   UNL     1      -1.813  -4.590   0.217  0.00  0.00    +0.034 A 
ATOM     24  C   UNL     1      -0.788  -3.987  -0.499  0.00  0.00    +0.027 A 
ATOM     25  C   UNL     1      -0.628  -2.617  -0.455  0.00  0.00    +0.047 A 
BRANCH  20  26
ATOM     26  O   UNL     1      -1.323  -0.494   0.363  0.00  0.00    -0.492 OA
BRANCH  26  28
ATOM     27  C   UNL     1      -1.905   1.732   1.104  0.00  0.00    +0.048 C 
ATOM     28  C   UNL     1      -2.241   0.241   1.175  0.00  0.00    +0.225 C 
ENDBRANCH  26  28
ENDBRANCH  20  26
ENDBRANCH  16  23
ENDBRANCH  15  17
ENDBRANCH  14  15
ENDBRANCH   1  14
BRANCH   4  29
ATOM     29  C   UNL     1      -6.486 -13.098  -0.619  0.00  0.00    +0.097 C 
BRANCH  29  30
ATOM     30  C   UNL     1      -6.065 -14.543  -0.543  0.00  0.00    +0.029 A 
ATOM     31  N   UNL     1      -4.844 -14.930  -1.025  0.00  0.00    -0.311 N 
ATOM     32  C   UNL     1      -4.458 -16.217  -0.961  0.00  0.00    +0.327 A 
ATOM     33  O   UNL     1      -3.369 -16.538  -1.395  0.00  0.00    -0.247 OA
ATOM     34  N   UNL     1      -5.261 -17.154  -0.423  0.00  0.00    -0.275 N 
ATOM     35  C   UNL     1      -6.472 -16.814   0.063  0.00  0.00    +0.254 A 
ATOM     36  O   UNL     1      -7.199 -17.661   0.550  0.00  0.00    -0.268 OA
ATOM     37  C   UNL     1      -6.888 -15.462   0.007  0.00  0.00    +0.091 A 
ATOM     38  H   UNL     1      -4.967 -18.078  -0.385  0.00  0.00    +0.173 HD
ATOM     39  H   UNL     1      -4.251 -14.269  -1.416  0.00  0.00    +0.170 HD
ENDBRANCH  29  30
ENDBRANCH   4  29
TORSDOF 9
