REMARK  Name = ZINC12330245
REMARK  7 active torsions:
REMARK  status: ('A' for Active; 'I' for Inactive)
REMARK    1  A    between atoms: C_1  and  O_2
REMARK    2  A    between atoms: O_2  and  C_3
REMARK    3  A    between atoms: C_15  and  C_16
REMARK    4  A    between atoms: C_15  and  N_64
REMARK    5  A    between atoms: C_16  and  C_18
REMARK    6  A    between atoms: C_16  and  O_28
REMARK    7  A    between atoms: C_30  and  O_32
REMARK                            x       y       z     vdW  Elec       q    Type
REMARK                         _______ _______ _______ _____ _____    ______ ____
ROOT
ATOM      1  C   UNL     1      -7.235  -8.871  -3.070  0.00  0.00    +0.124 A 
ATOM      2  C   UNL     1      -8.608  -8.685  -2.986  0.00  0.00    +0.046 A 
ATOM      3  C   UNL     1      -9.134  -7.872  -2.003  0.00  0.00    +0.013 A 
ATOM      4  C   UNL     1      -8.300  -7.238  -1.096  0.00  0.00    +0.023 A 
ATOM      5  C   UNL     1      -6.930  -7.424  -1.173  0.00  0.00    +0.130 A 
ATOM      6  C   UNL     1      -6.398  -8.241  -2.164  0.00  0.00    +0.091 A 
ATOM      7  O   UNL     1      -6.077  -6.830  -0.297  0.00  0.00    -0.485 OA
ATOM      8  C   UNL     1      -6.566  -5.727   0.464  0.00  0.00    +0.110 C 
ATOM      9  C   UNL     1      -6.762  -4.515  -0.449  0.00  0.00    +0.029 C 
ATOM     10  C   UNL     1      -5.408  -4.090  -1.022  0.00  0.00    -0.075 C 
ATOM     11  C   UNL     1      -4.251  -4.925   0.937  0.00  0.00    -0.075 C 
ATOM     12  C   UNL     1      -5.570  -5.376   1.569  0.00  0.00    +0.029 C 
ATOM     13  C   UNL     1      -7.909  -6.120   1.088  0.00  0.00    +0.084 C 
ATOM     14  C   UNL     1      -8.916  -6.354  -0.041  0.00  0.00    +0.152 C 
ATOM     15  N   UNL     1      -4.505  -3.737   0.094  0.00  0.00    +0.382 N 
ATOM     16  H   UNL     1      -4.951  -3.011   0.666  0.00  0.00    -0.082 HD
ENDROOT
BRANCH   1  18
ATOM     17  C   UNL     1      -7.638 -10.286  -4.937  0.00  0.00    +0.277 C 
ATOM     18  O   UNL     1      -6.714  -9.669  -4.038  0.00  0.00    -0.495 OA
ENDBRANCH   1  18
BRANCH  14  19
ATOM     19  O   UNL     1     -10.084  -6.987   0.486  0.00  0.00    -0.387 OA
ATOM     20  H   UNL     1     -10.766  -7.166  -0.175  0.00  0.00    +0.210 HD
ENDBRANCH  14  19
BRANCH  15  21
ATOM     21  C   UNL     1      -3.229  -3.213  -0.436  0.00  0.00    -0.042 C 
BRANCH  21  22
ATOM     22  C   UNL     1      -3.445  -1.767  -0.887  0.00  0.00    +0.128 C 
BRANCH  22  23
ATOM     23  C   UNL     1      -2.151  -1.211  -1.426  0.00  0.00    -0.021 A 
ATOM     24  C   UNL     1      -1.177  -0.756  -0.557  0.00  0.00    +0.006 A 
ATOM     25  C   UNL     1       0.003  -0.246  -1.057  0.00  0.00    +0.004 A 
ATOM     26  C   UNL     1       0.220  -0.184  -2.428  0.00  0.00    -0.044 A 
ATOM     27  C   UNL     1      -0.748  -0.641  -3.293  0.00  0.00    -0.044 A 
ATOM     28  C   UNL     1      -1.937  -1.153  -2.787  0.00  0.00    +0.010 A 
ATOM     29  C   UNL     1      -0.577  -0.613  -4.789  0.00  0.00    +0.035 C 
ATOM     30  C   UNL     1       0.542   0.348  -5.184  0.00  0.00    +0.005 C 
ATOM     31  C   UNL     1       1.788   0.005  -4.358  0.00  0.00    +0.005 C 
ATOM     32  C   UNL     1       1.525   0.397  -2.905  0.00  0.00    +0.035 C 
ENDBRANCH  22  23
BRANCH  22  33
ATOM     33  O   UNL     1      -3.875  -0.980   0.225  0.00  0.00    -0.389 OA
ATOM     34  H   UNL     1      -3.246  -0.959   0.959  0.00  0.00    +0.210 HD
ENDBRANCH  22  33
ENDBRANCH  21  22
ENDBRANCH  15  21
TORSDOF 6
