REMARK  Name = ZINC63650872
REMARK  5 active torsions:
REMARK  status: ('A' for Active; 'I' for Inactive)
REMARK    1  A    between atoms: C_6  and  C_7
REMARK    2  A    between atoms: C_9  and  C_12
REMARK    3  A    between atoms: C_12  and  S_13
REMARK    4  A    between atoms: S_13  and  C_14
REMARK    5  A    between atoms: C_14  and  C_15
REMARK                            x       y       z     vdW  Elec       q    Type
REMARK                         _______ _______ _______ _____ _____    ______ ____
ROOT
ATOM      1  S   UNL     1      -3.465  -4.348   1.734  0.00  0.00    -0.147 S 
ENDROOT
BRANCH   1   2
ATOM      2  C   UNL     1      -3.249  -3.787   0.023  0.00  0.00    +0.128 C 
BRANCH   2   5
ATOM      3  C   UNL     1      -1.266  -0.763   0.011  0.00  0.00    +0.227 A 
ATOM      4  N   UNL     1      -1.376  -2.071   0.010  0.00  0.00    -0.213 NA
ATOM      5  C   UNL     1      -2.679  -2.392   0.020  0.00  0.00    +0.090 A 
ATOM      6  C   UNL     1      -3.385  -1.247   0.027  0.00  0.00    +0.221 A 
ATOM      7  O   UNL     1      -2.500  -0.230   0.026  0.00  0.00    -0.443 OA
BRANCH   3  13
ATOM      8  C   UNL     1      -0.017   1.392   0.010  0.00  0.00    +0.014 A 
ATOM      9  C   UNL     1       1.170   2.095   0.002  0.00  0.00    +0.016 A 
ATOM     10  C   UNL     1       2.378   1.419  -0.013  0.00  0.00    +0.018 A 
ATOM     11  C   UNL     1       2.403   0.034  -0.021  0.00  0.00    +0.016 A 
ATOM     12  C   UNL     1       1.223  -0.680  -0.014  0.00  0.00    +0.014 A 
ATOM     13  C   UNL     1       0.002  -0.004   0.002  0.00  0.00    +0.037 A 
ATOM     14 BR   UNL     1       4.000   2.390  -0.024  0.00  0.00    -0.050 Br
ENDBRANCH   3  13
ENDBRANCH   2   5
ENDBRANCH   1   2
BRANCH   1  15
ATOM     15  C   UNL     1      -4.150  -6.019   1.565  0.00  0.00    +0.145 C 
BRANCH  15  16
ATOM     16  C   UNL     1      -4.381  -6.609   2.933  0.00  0.00    +0.146 A 
ATOM     17  N   UNL     1      -3.419  -7.296   3.524  0.00  0.00    -0.199 NA
ATOM     18  C   UNL     1      -3.619  -7.817   4.732  0.00  0.00    +0.217 A 
ATOM     19  N   UNL     1      -4.786  -7.647   5.343  0.00  0.00    -0.181 NA
ATOM     20  C   UNL     1      -5.750  -6.956   4.745  0.00  0.00    +0.217 A 
ATOM     21  N   UNL     1      -5.541  -6.433   3.539  0.00  0.00    -0.199 NA
ATOM     22  N   UNL     1      -6.964  -6.776   5.376  0.00  0.00    -0.327 N 
ATOM     23  N   UNL     1      -2.614  -8.535   5.350  0.00  0.00    -0.327 N 
ATOM     24  H   UNL     1      -7.114  -7.155   6.256  0.00  0.00    +0.145 HD
ATOM     25  H   UNL     1      -7.668  -6.271   4.938  0.00  0.00    +0.145 HD
ATOM     26  H   UNL     1      -1.762  -8.659   4.903  0.00  0.00    +0.145 HD
ATOM     27  H   UNL     1      -2.760  -8.915   6.230  0.00  0.00    +0.145 HD
ENDBRANCH  15  16
ENDBRANCH   1  15
TORSDOF 5
