REMARK  Name = ZINC67309971
REMARK  12 active torsions:
REMARK  status: ('A' for Active; 'I' for Inactive)
REMARK    1  A    between atoms: C_1  and  C_2
REMARK    2  A    between atoms: C_5  and  N_11
REMARK    3  A    between atoms: C_7  and  C_8
REMARK    4  A    between atoms: N_14  and  C_15
REMARK    5  A    between atoms: N_14  and  C_24
REMARK    6  A    between atoms: C_15  and  C_16
REMARK    7  A    between atoms: C_16  and  C_17
REMARK    8  A    between atoms: C_17  and  C_18
REMARK    9  A    between atoms: C_24  and  C_25
REMARK   10  A    between atoms: C_25  and  N_26
REMARK   11  A    between atoms: N_26  and  C_27
REMARK   12  A    between atoms: N_26  and  C_28
REMARK                            x       y       z     vdW  Elec       q    Type
REMARK                         _______ _______ _______ _____ _____    ______ ____
ROOT
ATOM      1  N   UNL     1       0.146  -4.330   0.193  0.00  0.00    -0.269 N 
ATOM      2  C   UNL     1       0.211  -5.126  -0.893  0.00  0.00    +0.306 C 
ATOM      3  O   UNL     1       0.135  -4.643  -2.006  0.00  0.00    -0.252 OA
ATOM      4  N   UNL     1       0.360  -6.457  -0.745  0.00  0.00    -0.287 N 
ATOM      5  H   UNL     1       0.131  -4.722   1.081  0.00  0.00    +0.156 HD
ENDROOT
BRANCH   1  10
ATOM      6  C   UNL     1      -0.022   1.319  -0.403  0.00  0.00    +0.044 C 
ATOM      7  C   UNL     1       0.020  -0.179  -0.248  0.00  0.00    -0.038 A 
ATOM      8  C   UNL     1       0.696  -0.744   0.815  0.00  0.00    +0.006 A 
ATOM      9  C   UNL     1       0.738  -2.118   0.962  0.00  0.00    +0.023 A 
ATOM     10  C   UNL     1       0.100  -2.940   0.040  0.00  0.00    +0.036 A 
ATOM     11  C   UNL     1      -0.582  -2.383  -1.030  0.00  0.00    +0.036 A 
ATOM     12  C   UNL     1      -0.629  -0.996  -1.175  0.00  0.00    +0.041 A 
BRANCH  12  13
ATOM     13  C   UNL     1      -1.359  -0.394  -2.311  0.00  0.00    +0.242 C 
ATOM     14  O   UNL     1      -1.346   0.811  -2.472  0.00  0.00    -0.270 OA
ATOM     15  N   UNL     1      -2.039  -1.180  -3.168  0.00  0.00    -0.325 N 
ATOM     16  H   UNL     1      -2.050  -2.142  -3.040  0.00  0.00    +0.145 HD
ATOM     17  H   UNL     1      -2.518  -0.785  -3.914  0.00  0.00    +0.145 HD
ENDBRANCH  12  13
ENDBRANCH   1  10
BRANCH   4  18
ATOM     18  C   UNL     1       0.431  -7.322  -1.925  0.00  0.00    +0.109 C 
BRANCH  18  19
ATOM     19  C   UNL     1       1.889  -7.465  -2.366  0.00  0.00    +0.024 C 
BRANCH  19  20
ATOM     20  C   UNL     1       1.962  -8.368  -3.599  0.00  0.00    +0.036 C 
BRANCH  20  21
ATOM     21  C   UNL     1       3.399  -8.510  -4.033  0.00  0.00    -0.047 A 
ATOM     22  C   UNL     1       3.939  -7.614  -4.937  0.00  0.00    +0.003 A 
ATOM     23  C   UNL     1       5.256  -7.743  -5.335  0.00  0.00    +0.000 A 
ATOM     24  C   UNL     1       6.033  -8.769  -4.829  0.00  0.00    +0.000 A 
ATOM     25  C   UNL     1       5.493  -9.664  -3.925  0.00  0.00    +0.000 A 
ATOM     26  C   UNL     1       4.177  -9.532  -3.524  0.00  0.00    +0.003 A 
ENDBRANCH  20  21
ENDBRANCH  19  20
ENDBRANCH  18  19
ENDBRANCH   4  18
BRANCH   4  27
ATOM     27  C   UNL     1       0.452  -7.040   0.596  0.00  0.00    +0.091 C 
BRANCH  27  28
ATOM     28  C   UNL     1      -0.949  -7.400   1.093  0.00  0.00    -0.060 C 
BRANCH  28  29
ATOM     29  N   UNL     1      -0.857  -7.984   2.438  0.00  0.00    +0.377 N 
ATOM     30  C   UNL     1      -2.209  -8.219   2.963  0.00  0.00    -0.097 C 
ATOM     31  C   UNL     1      -0.130  -9.258   2.369  0.00  0.00    -0.097 C 
ATOM     32  H   UNL     1      -0.365  -7.348   3.047  0.00  0.00    -0.083 HD
ENDBRANCH  28  29
ENDBRANCH  27  28
ENDBRANCH   4  27
TORSDOF 9
