REMARK  Name = ZINC13387870
REMARK  7 active torsions:
REMARK  status: ('A' for Active; 'I' for Inactive)
REMARK    1  A    between atoms: C_1  and  C_2
REMARK    2  A    between atoms: C_2  and  C_4
REMARK    3  A    between atoms: C_2  and  O_33
REMARK    4  A    between atoms: C_8  and  N_10
REMARK    5  A    between atoms: C_11  and  C_13
REMARK    6  A    between atoms: C_19  and  C_28
REMARK    7  A    between atoms: C_22  and  C_24
REMARK                            x       y       z     vdW  Elec       q    Type
REMARK                         _______ _______ _______ _____ _____    ______ ____
ROOT
ATOM      1  C   UNL     1       6.231  -2.143   3.257  0.00  0.00    +0.091 C 
ATOM      2  C   UNL     1       7.037  -2.599   4.280  0.00  0.00    +0.104 C 
ATOM      3  N   UNL     1       8.320  -2.668   3.841  0.00  0.00    -0.269 N 
ATOM      4  N   UNL     1       8.392  -2.240   2.521  0.00  0.00    -0.226 N 
ATOM      5  C   UNL     1       7.107  -1.924   2.100  0.00  0.00    +0.126 C 
ATOM      6  N   UNL     1       6.822  -1.511   0.899  0.00  0.00    -0.364 N 
ATOM      7  C   UNL     1       7.899  -1.411  -0.095  0.00  0.00    +0.119 C 
ATOM      8  C   UNL     1       9.222  -1.056   0.583  0.00  0.00    +0.063 C 
ATOM      9  C   UNL     1       9.563  -2.106   1.648  0.00  0.00    +0.201 C 
ATOM     10  H   UNL     1       9.075  -2.970   4.370  0.00  0.00    +0.170 HD
ATOM     11  H   UNL     1       5.912  -1.273   0.663  0.00  0.00    +0.161 HD
ENDROOT
BRANCH   7  12
ATOM     12  C   UNL     1       8.044  -2.733  -0.805  0.00  0.00    +0.012 A 
ATOM     13  C   UNL     1       8.282  -2.975  -2.117  0.00  0.00    +0.013 A 
ATOM     14  C   UNL     1       8.379  -4.284  -2.550  0.00  0.00    +0.008 A 
ATOM     15  C   UNL     1       8.231  -5.287  -1.650  0.00  0.00    +0.045 A 
ATOM     16  S   UNL     1       7.954  -4.385  -0.135  0.00  0.00    -0.100 S 
ENDBRANCH   7  12
BRANCH   1  18
ATOM     17  N   UNL     1       4.097  -1.655   2.185  0.00  0.00    -0.281 N 
ATOM     18  C   UNL     1       4.782  -1.926   3.314  0.00  0.00    +0.253 C 
ATOM     19  O   UNL     1       4.198  -1.991   4.379  0.00  0.00    -0.270 OA
ATOM     20  H   UNL     1       4.535  -1.726   1.323  0.00  0.00    +0.155 HD
BRANCH  17  25
ATOM     21  C   UNL     1       0.915   0.023   1.422  0.00  0.00    -0.018 A 
ATOM     22  C   UNL     1       0.097  -0.510   2.401  0.00  0.00    +0.006 A 
ATOM     23  C   UNL     1       0.604  -1.422   3.309  0.00  0.00    +0.002 A 
ATOM     24  C   UNL     1       1.930  -1.803   3.240  0.00  0.00    +0.023 A 
ATOM     25  C   UNL     1       2.754  -1.270   2.258  0.00  0.00    +0.034 A 
ATOM     26  C   UNL     1       2.240  -0.359   1.344  0.00  0.00    +0.029 A 
BRANCH  21  28
ATOM     27  C   UNL     1       0.420   2.421   1.035  0.00  0.00    +0.043 C 
ATOM     28  C   UNL     1       0.359   1.016   0.434  0.00  0.00    +0.141 C 
BRANCH  28  29
ATOM     29  O   UNL     1      -0.999   0.683   0.138  0.00  0.00    -0.387 OA
ATOM     30  H   UNL     1      -1.422   1.282  -0.493  0.00  0.00    +0.210 HD
ENDBRANCH  28  29
ENDBRANCH  21  28
ENDBRANCH  17  25
ENDBRANCH   1  18
BRANCH   9  31
ATOM     31  C   UNL     1      10.775  -1.657   2.468  0.00  0.00    +0.410 C 
ATOM     32  F   UNL     1      11.044  -2.607   3.459  0.00  0.00    -0.169 F 
ATOM     33  F   UNL     1      11.886  -1.532   1.627  0.00  0.00    -0.169 F 
ATOM     34  F   UNL     1      10.502  -0.423   3.066  0.00  0.00    -0.169 F 
ENDBRANCH   9  31
TORSDOF 6
