REMARK  Name = ZINC31157786
REMARK  10 active torsions:
REMARK  status: ('A' for Active; 'I' for Inactive)
REMARK    1  A    between atoms: C_1  and  N_2
REMARK    2  A    between atoms: N_2  and  C_3
REMARK    3  A    between atoms: N_2  and  C_16
REMARK    4  A    between atoms: C_3  and  C_4
REMARK    5  A    between atoms: N_6  and  C_7
REMARK    6  A    between atoms: C_7  and  C_8
REMARK    7  A    between atoms: C_8  and  C_9
REMARK    8  A    between atoms: C_16  and  C_17
REMARK    9  A    between atoms: N_19  and  C_20
REMARK   10  A    between atoms: C_24  and  C_26
REMARK                            x       y       z     vdW  Elec       q    Type
REMARK                         _______ _______ _______ _____ _____    ______ ____
ROOT
ATOM      1  C   UNL     1       2.503   0.109  -0.803  0.00  0.00    -0.095 C 
ATOM      2  N   UNL     1       2.390   1.020   0.343  0.00  0.00    +0.389 N 
ATOM      3  H   UNL     1       2.178   0.414   1.237  0.00  0.00    -0.081 HD
ENDROOT
BRANCH   2   4
ATOM      4  C   UNL     1       3.652   1.736   0.572  0.00  0.00    +0.019 C 
BRANCH   4   5
ATOM      5  C   UNL     1       4.716   0.756   0.996  0.00  0.00    +0.196 C 
ATOM      6  O   UNL     1       4.449  -0.423   1.097  0.00  0.00    -0.278 OA
ATOM      7  N   UNL     1       5.964   1.189   1.262  0.00  0.00    -0.317 N 
ATOM      8  H   UNL     1       6.206   2.258   1.171  0.00  0.00    +0.149 HD
BRANCH   7   9
ATOM      9  C   UNL     1       6.998   0.237   1.674  0.00  0.00    +0.109 C 
BRANCH   9  10
ATOM     10  C   UNL     1       8.313   0.982   1.913  0.00  0.00    +0.054 C 
BRANCH  10  11
ATOM     11  C   UNL     1       9.376   0.002   2.337  0.00  0.00    -0.046 A 
ATOM     12  C   UNL     1       9.565  -0.276   3.678  0.00  0.00    +0.006 A 
ATOM     13  C   UNL     1      10.537  -1.178   4.067  0.00  0.00    +0.038 A 
ATOM     14  C   UNL     1      11.329  -1.796   3.114  0.00  0.00    +0.123 A 
ATOM     15  C   UNL     1      11.142  -1.512   1.771  0.00  0.00    +0.038 A 
ATOM     16  C   UNL     1      10.166  -0.614   1.384  0.00  0.00    +0.006 A 
ATOM     17  F   UNL     1      12.282  -2.674   3.494  0.00  0.00    -0.205 F 
ENDBRANCH  10  11
ENDBRANCH   9  10
ENDBRANCH   7   9
ENDBRANCH   4   5
ENDBRANCH   2   4
BRANCH   2  18
ATOM     18  C   UNL     1       1.277   1.961   0.161  0.00  0.00    +0.019 C 
BRANCH  18  19
ATOM     19  C   UNL     1      -0.027   1.205   0.175  0.00  0.00    +0.201 C 
ATOM     20  O   UNL     1      -0.028   0.001   0.322  0.00  0.00    -0.278 OA
ATOM     21  N   UNL     1      -1.191   1.867   0.018  0.00  0.00    -0.287 N 
ATOM     22  H   UNL     1      -1.197   2.966  -0.029  0.00  0.00    +0.155 HD
BRANCH  21  23
ATOM     23  C   UNL     1      -2.391   1.155  -0.086  0.00  0.00    +0.034 A 
ATOM     24  C   UNL     1      -2.412  -0.089  -0.704  0.00  0.00    +0.025 A 
ATOM     25  C   UNL     1      -3.597  -0.791  -0.800  0.00  0.00    +0.022 A 
ATOM     26  C   UNL     1      -4.766  -0.252  -0.292  0.00  0.00    +0.053 A 
ATOM     27  C   UNL     1      -4.749   0.990   0.319  0.00  0.00    +0.075 A 
ATOM     28  C   UNL     1      -3.565   1.694   0.423  0.00  0.00    +0.037 A 
ATOM     29 CL   UNL     1      -6.255  -1.134  -0.421  0.00  0.00    -0.083 Cl
BRANCH  27  30
ATOM     30  C   UNL     1      -6.024   1.573   0.872  0.00  0.00    +0.419 C 
ATOM     31  F   UNL     1      -5.756   2.825   1.438  0.00  0.00    -0.166 F 
ATOM     32  F   UNL     1      -6.957   1.718  -0.160  0.00  0.00    -0.166 F 
ATOM     33  F   UNL     1      -6.540   0.720   1.853  0.00  0.00    -0.166 F 
ENDBRANCH  27  30
ENDBRANCH  21  23
ENDBRANCH  18  19
ENDBRANCH   2  18
TORSDOF 9
