REMARK  Name = ZINC21316211
REMARK  6 active torsions:
REMARK  status: ('A' for Active; 'I' for Inactive)
REMARK    1  A    between atoms: C_8  and  C_10
REMARK    2  A    between atoms: C_10  and  S_11
REMARK    3  A    between atoms: S_11  and  C_12
REMARK    4  A    between atoms: N_16  and  N_17
REMARK    5  A    between atoms: N_18  and  N_19
REMARK    6  A    between atoms: C_20  and  C_21
REMARK                            x       y       z     vdW  Elec       q    Type
REMARK                         _______ _______ _______ _____ _____    ______ ____
ROOT
ATOM      1  C   UNL     1      -4.474   9.337   0.085  0.00  0.00    +0.210 A 
ATOM      2  N   UNL     1      -3.162   9.351   0.072  0.00  0.00    -0.119 NA
ATOM      3  N   UNL     1      -2.715   8.023   0.065  0.00  0.00    -0.109 NA
ATOM      4  C   UNL     1      -3.768   7.242   0.065  0.00  0.00    +0.254 A 
ATOM      5  N   UNL     1      -4.882   8.034   0.081  0.00  0.00    -0.211 N 
ATOM      6  N   UNL     1      -3.753   5.854   0.056  0.00  0.00    -0.204 N 
ATOM      7  H   UNL     1      -4.700   5.294   0.061  0.00  0.00    +0.177 HD
ENDROOT
BRANCH   5   8
ATOM      8  N   UNL     1      -6.176   7.598   0.090  0.00  0.00    -0.294 N 
ATOM      9  H   UNL     1      -6.394   6.520   0.085  0.00  0.00    +0.163 HD
ATOM     10  H   UNL     1      -7.002   8.325   0.102  0.00  0.00    +0.163 HD
ENDBRANCH   5   8
BRANCH   6  11
ATOM     11  N   UNL     1      -2.533   5.167   0.040  0.00  0.00    -0.187 NA
ATOM     12  C   UNL     1      -2.519   3.868   0.031  0.00  0.00    +0.139 C 
BRANCH  12  13
ATOM     13  C   UNL     1      -1.235   3.144   0.014  0.00  0.00    +0.014 A 
ATOM     14  C   UNL     1      -1.216   1.747  -0.001  0.00  0.00    +0.011 A 
ATOM     15  C   UNL     1      -0.011   1.076  -0.011  0.00  0.00    +0.002 A 
ATOM     16  C   UNL     1       1.179   1.783  -0.018  0.00  0.00    +0.021 A 
ATOM     17  C   UNL     1       1.170   3.167  -0.009  0.00  0.00    +0.060 A 
ATOM     18  C   UNL     1      -0.030   3.853   0.007  0.00  0.00    +0.068 A 
ATOM     19 CL   UNL     1      -0.040   5.589   0.019  0.00  0.00    -0.081 Cl
ATOM     20 CL   UNL     1       2.669   4.043  -0.017  0.00  0.00    -0.082 Cl
ENDBRANCH  12  13
ENDBRANCH   6  11
BRANCH   1  21
ATOM     21  S   UNL     1      -5.524  10.752   0.103  0.00  0.00    -0.075 S 
BRANCH  21  22
ATOM     22  C   UNL     1      -4.373  12.153   0.101  0.00  0.00    +0.173 C 
BRANCH  22  30
ATOM     23  C   UNL     1      -5.263  18.198  -0.172  0.00  0.00    +0.005 A 
ATOM     24  C   UNL     1      -6.649  18.125  -0.155  0.00  0.00    +0.020 A 
ATOM     25  C   UNL     1      -7.259  16.890  -0.049  0.00  0.00    +0.113 A 
ATOM     26  N   UNL     1      -6.542  15.786   0.031  0.00  0.00    -0.240 NA
ATOM     27  C   UNL     1      -5.219  15.815   0.025  0.00  0.00    +0.125 A 
ATOM     28  C   UNL     1      -4.538  17.023  -0.080  0.00  0.00    +0.044 A 
ATOM     29  N   UNL     1      -4.502  14.624   0.118  0.00  0.00    -0.270 N 
ATOM     30  C   UNL     1      -5.152  13.443   0.116  0.00  0.00    +0.229 C 
ATOM     31  O   UNL     1      -6.365  13.419   0.127  0.00  0.00    -0.275 OA
ATOM     32  H   UNL     1      -3.404  14.647   0.193  0.00  0.00    +0.156 HD
ENDBRANCH  22  30
ENDBRANCH  21  22
ENDBRANCH   1  21
TORSDOF 6
