REMARK  Name = ZINC11898509
REMARK  8 active torsions:
REMARK  status: ('A' for Active; 'I' for Inactive)
REMARK    1  A    between atoms: C_1  and  N_2
REMARK    2  A    between atoms: C_6  and  C_7
REMARK    3  A    between atoms: C_7  and  C_9
REMARK    4  A    between atoms: C_7  and  N_59
REMARK    5  A    between atoms: C_9  and  N_10
REMARK    6  A    between atoms: C_11  and  C_13
REMARK    7  A    between atoms: N_15  and  C_16
REMARK    8  A    between atoms: C_20  and  C_22
REMARK                            x       y       z     vdW  Elec       q    Type
REMARK                         _______ _______ _______ _____ _____    ______ ____
ROOT
ATOM      1  C   UNL     1       0.280   3.639   9.797  0.00  0.00    +0.095 C 
ENDROOT
BRANCH   1   2
ATOM      2  N   UNL     1       0.568   2.559  10.743  0.00  0.00    -0.309 N 
ATOM      3  C   UNL     1       1.623   1.746  10.538  0.00  0.00    +0.299 C 
ATOM      4  O   UNL     1       2.336   1.910   9.570  0.00  0.00    -0.265 OA
ATOM      5  H   UNL     1      -0.002   2.428  11.518  0.00  0.00    +0.149 HD
BRANCH   3   6
ATOM      6  C   UNL     1       1.916   0.644  11.503  0.00  0.00    +0.303 C 
ATOM      7  O   UNL     1       1.203   0.480  12.472  0.00  0.00    -0.265 OA
ATOM      8  N   UNL     1       2.972  -0.168  11.298  0.00  0.00    -0.278 N 
ATOM      9  H   UNL     1       3.580   0.004  10.562  0.00  0.00    +0.155 HD
BRANCH   8  10
ATOM     10  C   UNL     1       3.189  -1.258  12.145  0.00  0.00    +0.034 A 
ATOM     11  C   UNL     1       2.890  -1.159  13.498  0.00  0.00    +0.023 A 
ATOM     12  C   UNL     1       3.106  -2.239  14.332  0.00  0.00    +0.002 A 
ATOM     13  C   UNL     1       3.614  -3.419  13.820  0.00  0.00    +0.012 A 
ATOM     14  C   UNL     1       3.919  -3.519  12.475  0.00  0.00    +0.057 A 
ATOM     15  C   UNL     1       3.705  -2.443  11.635  0.00  0.00    +0.035 A 
BRANCH  14  16
ATOM     16  C   UNL     1       4.478  -4.805  11.924  0.00  0.00    +0.417 C 
ATOM     17  F   UNL     1       5.875  -4.773  11.992  0.00  0.00    -0.166 F 
ATOM     18  F   UNL     1       4.080  -4.953  10.591  0.00  0.00    -0.166 F 
ATOM     19  F   UNL     1       3.999  -5.883  12.676  0.00  0.00    -0.166 F 
ENDBRANCH  14  16
ENDBRANCH   8  10
ENDBRANCH   3   6
ENDBRANCH   1   2
BRANCH   1  20
ATOM     20  C   UNL     1      -0.884   4.481  10.323  0.00  0.00    -0.003 C 
BRANCH  20  30
ATOM     21  C   UNL     1      -2.298   2.705   9.475  0.00  0.00    -0.073 C 
ATOM     22  C   UNL     1      -3.235   1.595   9.951  0.00  0.00    +0.017 C 
ATOM     23  C   UNL     1      -4.426   2.194  10.654  0.00  0.00    -0.048 A 
ATOM     24  C   UNL     1      -5.548   1.402  10.845  0.00  0.00    +0.004 A 
ATOM     25  C   UNL     1      -6.657   1.909  11.492  0.00  0.00    +0.000 A 
ATOM     26  C   UNL     1      -6.649   3.213  11.952  0.00  0.00    +0.000 A 
ATOM     27  C   UNL     1      -5.534   4.002  11.759  0.00  0.00    +0.002 A 
ATOM     28  C   UNL     1      -4.419   3.495  11.108  0.00  0.00    -0.061 A 
ATOM     29  C   UNL     1      -3.227   4.397  10.919  0.00  0.00    -0.042 C 
ATOM     30  N   UNL     1      -2.029   3.593  10.624  0.00  0.00    +0.389 N 
ATOM     31  H   UNL     1      -1.800   3.019  11.444  0.00  0.00    -0.080 HD
ENDBRANCH  20  30
BRANCH  20  37
ATOM     32  C   UNL     1       1.318   6.649  10.582  0.00  0.00    +0.148 C 
ATOM     33  N   UNL     1       0.506   6.137  11.689  0.00  0.00    -0.355 N 
ATOM     34  C   UNL     1       0.594   6.537  12.989  0.00  0.00    +0.085 A 
ATOM     35  C   UNL     1      -0.308   5.837  13.707  0.00  0.00    +0.019 A 
ATOM     36  C   UNL     1      -0.981   4.977  12.816  0.00  0.00    +0.021 A 
ATOM     37  C   UNL     1      -0.465   5.185  11.588  0.00  0.00    +0.006 A 
ENDBRANCH  20  37
ENDBRANCH   1  20
TORSDOF 7
