REMARK  Name = ZINC20813011
REMARK  9 active torsions:
REMARK  status: ('A' for Active; 'I' for Inactive)
REMARK    1  A    between atoms: C_1  and  C_2
REMARK    2  A    between atoms: C_2  and  C_3
REMARK    3  A    between atoms: C_8  and  N_9
REMARK    4  A    between atoms: C_10  and  C_12
REMARK    5  A    between atoms: C_12  and  N_13
REMARK    6  A    between atoms: N_16  and  C_19
REMARK    7  A    between atoms: C_19  and  C_21
REMARK    8  A    between atoms: C_19  and  C_22
REMARK    9  A    between atoms: N_27  and  C_28
REMARK                            x       y       z     vdW  Elec       q    Type
REMARK                         _______ _______ _______ _____ _____    ______ ____
ROOT
ATOM      1  N   UNL     1       2.029   0.029   1.280  0.00  0.00    +0.387 N 
ATOM      2  C   UNL     1       0.613  -0.298   1.501  0.00  0.00    -0.063 C 
ATOM      3  C   UNL     1      -0.212   0.188   0.307  0.00  0.00    +0.066 C 
ATOM      4  N   UNL     1      -0.028   1.637   0.145  0.00  0.00    -0.295 NA
ATOM      5  C   UNL     1       1.388   1.964  -0.075  0.00  0.00    +0.066 C 
ATOM      6  C   UNL     1       2.213   1.478   1.119  0.00  0.00    -0.063 C 
ATOM      7  H   UNL     1       2.350  -0.461   0.349  0.00  0.00    -0.081 HD
ENDROOT
BRANCH   4   8
ATOM      8  C   UNL     1      -0.864   2.155  -0.946  0.00  0.00    +0.140 C 
ATOM      9  C   UNL     1      -0.398   1.556  -2.275  0.00  0.00    +0.034 C 
BRANCH   8  10
ATOM     10  C   UNL     1      -0.743   3.656  -1.002  0.00  0.00    +0.237 C 
ATOM     11  O   UNL     1      -0.031   4.237  -0.211  0.00  0.00    -0.274 OA
ATOM     12  N   UNL     1      -1.426   4.353  -1.931  0.00  0.00    -0.239 N 
ATOM     13  C   UNL     1      -1.318   5.696  -1.981  0.00  0.00    +0.306 C 
ATOM     14  O   UNL     1      -0.604   6.278  -1.189  0.00  0.00    -0.252 OA
ATOM     15  N   UNL     1      -2.002   6.393  -2.911  0.00  0.00    -0.294 N 
ATOM     16  H   UNL     1      -2.072   3.826  -2.649  0.00  0.00    +0.159 HD
ATOM     17  H   UNL     1      -2.648   5.866  -3.628  0.00  0.00    +0.151 HD
BRANCH  15  18
ATOM     18  C   UNL     1      -1.884   7.852  -2.965  0.00  0.00    +0.037 C 
ATOM     19  C   UNL     1      -2.350   8.451  -1.637  0.00  0.00    +0.029 C 
ATOM     20  C   UNL     1      -2.227   9.975  -1.694  0.00  0.00    -0.008 C 
ATOM     21  C   UNL     1      -3.098  10.515  -2.830  0.00  0.00    +0.007 C 
ATOM     22  C   UNL     1      -2.632   9.915  -4.158  0.00  0.00    -0.008 C 
ATOM     23  C   UNL     1      -2.755   8.392  -4.101  0.00  0.00    +0.029 C 
ATOM     24  C   UNL     1      -1.172  10.301  -4.407  0.00  0.00    +0.007 C 
ATOM     25  C   UNL     1      -0.301   9.761  -3.271  0.00  0.00    -0.008 C 
ATOM     26  C   UNL     1      -0.768  10.360  -1.942  0.00  0.00    +0.007 C 
ATOM     27  C   UNL     1      -0.424   8.237  -3.214  0.00  0.00    +0.029 C 
ENDBRANCH  15  18
ENDBRANCH   8  10
ENDBRANCH   4   8
BRANCH   1  28
ATOM     28  C   UNL     1       2.865  -0.490   2.372  0.00  0.00    +0.019 C 
BRANCH  28  30
ATOM     29  N   UNL     1       3.447  -2.695   3.329  0.00  0.00    -0.287 N 
ATOM     30  C   UNL     1       2.852  -1.996   2.342  0.00  0.00    +0.201 C 
ATOM     31  O   UNL     1       2.307  -2.580   1.429  0.00  0.00    -0.278 OA
ATOM     32  H   UNL     1       3.879  -2.168   4.192  0.00  0.00    +0.155 HD
BRANCH  29  38
ATOM     33  C   UNL     1       4.609  -4.763   3.784  0.00  0.00    -0.026 A 
ATOM     34  C   UNL     1       4.673  -6.140   3.710  0.00  0.00    +0.005 A 
ATOM     35  C   UNL     1       3.649  -6.850   3.111  0.00  0.00    +0.000 A 
ATOM     36  C   UNL     1       2.558  -6.184   2.585  0.00  0.00    +0.002 A 
ATOM     37  C   UNL     1       2.485  -4.807   2.660  0.00  0.00    +0.023 A 
ATOM     38  C   UNL     1       3.515  -4.091   3.256  0.00  0.00    +0.036 A 
BRANCH  33  40
ATOM     39  C   UNL     1       5.371  -3.720   5.901  0.00  0.00    +0.009 C 
ATOM     40  C   UNL     1       5.726  -3.990   4.437  0.00  0.00    +0.033 C 
ENDBRANCH  33  40
ENDBRANCH  29  38
ENDBRANCH  28  30
ENDBRANCH   1  28
TORSDOF 7
