REMARK  Name = ZINC49243084
REMARK  6 active torsions:
REMARK  status: ('A' for Active; 'I' for Inactive)
REMARK    1  A    between atoms: C_6  and  C_7
REMARK    2  A    between atoms: C_7  and  C_9
REMARK    3  A    between atoms: C_7  and  O_26
REMARK    4  A    between atoms: C_9  and  N_10
REMARK    5  A    between atoms: N_13  and  C_14
REMARK    6  A    between atoms: C_14  and  C_15
REMARK                            x       y       z     vdW  Elec       q    Type
REMARK                         _______ _______ _______ _____ _____    ______ ____
ROOT
ATOM      1  N   UNL     1      -2.913  -1.900   1.457  0.00  0.00    -0.297 N 
ATOM      2  C   UNL     1      -3.429  -2.338   2.622  0.00  0.00    +0.300 C 
ATOM      3  O   UNL     1      -2.849  -2.112   3.667  0.00  0.00    -0.253 OA
ATOM      4  N   UNL     1      -4.587  -3.027   2.630  0.00  0.00    -0.295 N 
ATOM      5  H   UNL     1      -3.375  -2.080   0.623  0.00  0.00    +0.150 HD
ATOM      6  H   UNL     1      -5.049  -3.208   1.796  0.00  0.00    +0.151 HD
ENDROOT
BRANCH   1   7
ATOM      7  C   UNL     1      -1.653  -1.151   1.449  0.00  0.00    +0.141 C 
BRANCH   7   8
ATOM      8  C   UNL     1      -1.293  -0.774   0.010  0.00  0.00    +0.162 C 
BRANCH   8  14
ATOM      9  C   UNL     1      -0.017   1.378   0.010  0.00  0.00    +0.009 A 
ATOM     10  C   UNL     1       1.170   2.087   0.002  0.00  0.00    +0.041 A 
ATOM     11  C   UNL     1       2.379   1.413  -0.013  0.00  0.00    +0.158 A 
ATOM     12  C   UNL     1       2.397   0.026  -0.021  0.00  0.00    +0.159 A 
ATOM     13  C   UNL     1       1.208  -0.680  -0.013  0.00  0.00    +0.047 A 
ATOM     14  C   UNL     1       0.002  -0.004   0.002  0.00  0.00    -0.015 A 
ATOM     15  F   UNL     1       3.576  -0.634  -0.036  0.00  0.00    -0.202 F 
ATOM     16  F   UNL     1       3.539   2.105  -0.021  0.00  0.00    -0.202 F 
ENDBRANCH   8  14
BRANCH   8  17
ATOM     17  O   UNL     1      -1.146  -1.962  -0.770  0.00  0.00    -0.386 OA
ATOM     18  H   UNL     1      -0.456  -2.560  -0.451  0.00  0.00    +0.210 HD
ENDBRANCH   8  17
ENDBRANCH   7   8
ENDBRANCH   1   7
BRANCH   4  19
ATOM     19  C   UNL     1      -5.148  -3.503   3.896  0.00  0.00    +0.142 C 
BRANCH  19  20
ATOM     20  C   UNL     1      -6.436  -4.239   3.630  0.00  0.00    -0.014 A 
ATOM     21  C   UNL     1      -7.644  -3.554   3.617  0.00  0.00    +0.010 A 
ATOM     22  C   UNL     1      -8.804  -4.266   3.369  0.00  0.00    +0.042 A 
ATOM     23  C   UNL     1      -8.720  -5.637   3.143  0.00  0.00    +0.099 A 
ATOM     24  N   UNL     1      -7.549  -6.253   3.164  0.00  0.00    -0.349 N 
ATOM     25  C   UNL     1      -6.426  -5.598   3.392  0.00  0.00    +0.089 A 
ATOM     26  N   UNL     1      -9.878  -6.365   2.893  0.00  0.00    -0.317 N 
ATOM     27  C   UNL     1     -11.240  -5.816   2.833  0.00  0.00    +0.106 C 
ATOM     28  C   UNL     1     -12.198  -6.994   2.557  0.00  0.00    +0.020 C 
ATOM     29  C   UNL     1     -11.383  -8.224   3.038  0.00  0.00    +0.020 C 
ATOM     30  C   UNL     1      -9.942  -7.816   2.637  0.00  0.00    +0.106 C 
ATOM     31  H   UNL     1      -7.515  -7.209   3.004  0.00  0.00    +0.167 HD
ENDBRANCH  19  20
ENDBRANCH   4  19
TORSDOF 6
