REMARK  Name = ZINC11471098
REMARK  10 active torsions:
REMARK  status: ('A' for Active; 'I' for Inactive)
REMARK    1  A    between atoms: C_1  and  C_2
REMARK    2  A    between atoms: C_5  and  N_9
REMARK    3  A    between atoms: C_6  and  C_8
REMARK    4  A    between atoms: C_13  and  C_15
REMARK    5  A    between atoms: C_15  and  O_16
REMARK    6  A    between atoms: O_16  and  C_17
REMARK    7  A    between atoms: C_17  and  C_19
REMARK    8  A    between atoms: C_20  and  C_21
REMARK    9  A    between atoms: C_26  and  O_27
REMARK   10  A    between atoms: O_27  and  C_28
REMARK                            x       y       z     vdW  Elec       q    Type
REMARK                         _______ _______ _______ _____ _____    ______ ____
ROOT
ATOM      1  N   UNL     1      -1.191   1.869   0.018  0.00  0.00    -0.269 N 
ATOM      2  C   UNL     1      -0.014   1.212   0.005  0.00  0.00    +0.310 C 
ATOM      3  O   UNL     1       0.003  -0.004   0.006  0.00  0.00    -0.252 OA
ATOM      4  N   UNL     1       1.143   1.901  -0.015  0.00  0.00    -0.237 N 
ATOM      5  C   UNL     1       2.320   1.244  -0.034  0.00  0.00    +0.258 C 
ATOM      6  O   UNL     1       2.336   0.032  -0.032  0.00  0.00    -0.272 OA
ATOM      7  H   UNL     1      -1.205   2.836   0.099  0.00  0.00    +0.156 HD
ATOM      8  H   UNL     1       1.130   2.871  -0.016  0.00  0.00    +0.159 HD
ENDROOT
BRANCH   1  13
ATOM      9  C   UNL     1      -6.057  -1.016  -0.401  0.00  0.00    +0.044 C 
ATOM     10  C   UNL     1      -4.765  -0.250  -0.290  0.00  0.00    -0.050 A 
ATOM     11  C   UNL     1      -3.597  -0.788  -0.799  0.00  0.00    +0.005 A 
ATOM     12  C   UNL     1      -2.411  -0.089  -0.699  0.00  0.00    +0.024 A 
ATOM     13  C   UNL     1      -2.391   1.158  -0.086  0.00  0.00    +0.038 A 
ATOM     14  C   UNL     1      -3.564   1.694   0.428  0.00  0.00    -0.029 A 
ATOM     15  C   UNL     1      -4.748   0.991   0.321  0.00  0.00    +0.008 A 
ATOM     16  C   UNL     1      -3.546   3.043   1.099  0.00  0.00    +0.045 C 
ENDBRANCH   1  13
BRANCH   5  17
ATOM     17  C   UNL     1       3.614   2.015  -0.056  0.00  0.00    +0.328 C 
BRANCH  17  18
ATOM     18  O   UNL     1       4.713   1.102  -0.073  0.00  0.00    -0.452 OA
BRANCH  18  19
ATOM     19  C   UNL     1       5.952   1.635  -0.094  0.00  0.00    +0.332 C 
ATOM     20  O   UNL     1       6.095   2.843  -0.098  0.00  0.00    -0.246 OA
BRANCH  19  21
ATOM     21  C   UNL     1       7.088   0.787  -0.112  0.00  0.00    +0.092 C 
ATOM     22  C   UNL     1       8.329   1.321  -0.133  0.00  0.00    +0.018 C 
BRANCH  22  23
ATOM     23  C   UNL     1       9.506   0.442  -0.151  0.00  0.00    +0.018 A 
ATOM     24  C   UNL     1       9.347  -0.948  -0.147  0.00  0.00    +0.026 A 
ATOM     25  C   UNL     1      10.457  -1.766  -0.164  0.00  0.00    +0.019 A 
ATOM     26  C   UNL     1      11.730  -1.218  -0.186  0.00  0.00    +0.019 A 
ATOM     27  C   UNL     1      11.901   0.153  -0.191  0.00  0.00    +0.047 A 
ATOM     28  C   UNL     1      10.798   0.992  -0.179  0.00  0.00    +0.127 A 
ATOM     29 BR   UNL     1      10.241  -3.645  -0.158  0.00  0.00    -0.050 Br
BRANCH  28  30
ATOM     30  O   UNL     1      10.965   2.338  -0.189  0.00  0.00    -0.495 OA
ATOM     31  C   UNL     1      12.309   2.825  -0.217  0.00  0.00    +0.277 C 
ENDBRANCH  28  30
ENDBRANCH  22  23
ENDBRANCH  19  21
ENDBRANCH  18  19
ENDBRANCH  17  18
ENDBRANCH   5  17
TORSDOF 7
