REMARK  Name = ZINC38847375
REMARK  9 active torsions:
REMARK  status: ('A' for Active; 'I' for Inactive)
REMARK    1  A    between atoms: C_1  and  N_2
REMARK    2  A    between atoms: N_2  and  C_3
REMARK    3  A    between atoms: N_2  and  C_4
REMARK    4  A    between atoms: C_4  and  C_5
REMARK    5  A    between atoms: C_5  and  C_6
REMARK    6  A    between atoms: C_6  and  N_7
REMARK    7  A    between atoms: C_18  and  C_20
REMARK    8  A    between atoms: N_23  and  S_26
REMARK    9  A    between atoms: S_26  and  C_29
REMARK                            x       y       z     vdW  Elec       q    Type
REMARK                         _______ _______ _______ _____ _____    ______ ____
ROOT
ATOM      1  N   UNL     1      -4.676  -0.381  -2.243  0.00  0.00    -0.250 N 
ATOM      2  C   UNL     1      -5.131  -1.341  -3.133  0.00  0.00    +0.168 A 
ATOM      3  N   UNL     1      -5.007  -2.646  -3.069  0.00  0.00    -0.221 NA
ATOM      4  C   UNL     1      -5.505  -3.470  -4.018  0.00  0.00    +0.115 A 
ATOM      5  C   UNL     1      -5.440  -4.883  -4.069  0.00  0.00    +0.150 A 
ATOM      6  C   UNL     1      -6.003  -5.572  -5.114  0.00  0.00    +0.040 A 
ATOM      7  C   UNL     1      -6.651  -4.915  -6.150  0.00  0.00    +0.004 A 
ATOM      8  C   UNL     1      -6.732  -3.535  -6.131  0.00  0.00    +0.017 A 
ATOM      9  C   UNL     1      -6.172  -2.836  -5.090  0.00  0.00    +0.044 A 
ATOM     10  S   UNL     1      -6.042  -1.119  -4.654  0.00  0.00    -0.052 S 
ATOM     11  F   UNL     1      -4.818  -5.561  -3.080  0.00  0.00    -0.203 F 
ATOM     12  C   UNL     1      -5.034   0.909  -2.403  0.00  0.00    +0.224 C 
ATOM     13  O   UNL     1      -4.555   1.764  -1.689  0.00  0.00    -0.275 OA
ENDROOT
BRANCH  12  14
ATOM     14  C   UNL     1      -6.029   1.288  -3.470  0.00  0.00    +0.078 C 
ATOM     15  C   UNL     1      -5.303   1.456  -4.807  0.00  0.00    +0.030 C 
ATOM     16  C   UNL     1      -6.322   1.808  -5.896  0.00  0.00    +0.110 C 
ATOM     17  N   UNL     1      -7.081   2.991  -5.468  0.00  0.00    -0.177 NA
ATOM     18  C   UNL     1      -7.744   2.969  -4.157  0.00  0.00    +0.110 C 
ATOM     19  C   UNL     1      -6.709   2.605  -3.088  0.00  0.00    +0.030 C 
BRANCH  17  20
ATOM     20  S   UNL     1      -7.188   4.323  -6.446  0.00  0.00    +0.061 S 
ATOM     21  O   UNL     1      -7.461   5.429  -5.596  0.00  0.00    -0.153 OA
ATOM     22  O   UNL     1      -6.060   4.285  -7.309  0.00  0.00    -0.153 OA
BRANCH  20  23
ATOM     23  C   UNL     1      -8.610   4.109  -7.465  0.00  0.00    +0.106 A 
ATOM     24  C   UNL     1      -8.494   3.470  -8.685  0.00  0.00    +0.031 A 
ATOM     25  C   UNL     1      -9.608   3.300  -9.485  0.00  0.00    +0.040 A 
ATOM     26  C   UNL     1     -10.841   3.772  -9.064  0.00  0.00    +0.124 A 
ATOM     27  C   UNL     1     -10.955   4.412  -7.842  0.00  0.00    +0.040 A 
ATOM     28  C   UNL     1      -9.840   4.575  -7.041  0.00  0.00    +0.031 A 
ATOM     29  F   UNL     1     -11.930   3.607  -9.846  0.00  0.00    -0.205 F 
ENDBRANCH  20  23
ENDBRANCH  17  20
ENDBRANCH  12  14
BRANCH   1  30
ATOM     30  C   UNL     1      -3.808  -0.767  -1.129  0.00  0.00    +0.114 C 
BRANCH  30  31
ATOM     31  C   UNL     1      -2.345  -0.683  -1.569  0.00  0.00    +0.001 C 
BRANCH  31  32
ATOM     32  C   UNL     1      -1.438  -1.087  -0.405  0.00  0.00    -0.078 C 
BRANCH  32  34
ATOM     33  C   UNL     1       0.310   0.392  -1.122  0.00  0.00    -0.097 C 
ATOM     34  N   UNL     1      -0.033  -1.006  -0.828  0.00  0.00    +0.376 N 
ATOM     35  C   UNL     1       0.832  -1.507   0.248  0.00  0.00    -0.097 C 
ATOM     36  H   UNL     1       0.101  -1.566  -1.656  0.00  0.00    -0.083 HD
ENDBRANCH  32  34
ENDBRANCH  31  32
ENDBRANCH  30  31
ENDBRANCH   1  30
TORSDOF 7
