REMARK  Name = ZINC63985101
REMARK  6 active torsions:
REMARK  status: ('A' for Active; 'I' for Inactive)
REMARK    1  A    between atoms: C_1  and  O_2
REMARK    2  A    between atoms: O_2  and  C_3
REMARK    3  A    between atoms: C_8  and  N_9
REMARK    4  A    between atoms: C_10  and  O_34
REMARK    5  A    between atoms: C_13  and  O_33
REMARK    6  A    between atoms: C_14  and  C_18
REMARK                            x       y       z     vdW  Elec       q    Type
REMARK                         _______ _______ _______ _____ _____    ______ ____
ROOT
ATOM      1  N   UNL     1       0.095  -2.777  -0.112  0.00  0.00    -0.222 N 
ATOM      2  C   UNL     1      -1.297  -3.183  -0.236  0.00  0.00    +0.339 C 
ATOM      3  N   UNL     1      -1.609  -4.333   0.596  0.00  0.00    -0.204 NA
ATOM      4  C   UNL     1      -0.916  -4.697   1.605  0.00  0.00    +0.200 C 
ATOM      5  C   UNL     1       0.319  -3.972   2.050  0.00  0.00    +0.179 C 
ATOM      6  C   UNL     1       0.858  -3.125   0.932  0.00  0.00    +0.237 C 
ATOM      7  O   UNL     1       2.008  -2.743   0.979  0.00  0.00    -0.274 OA
ENDROOT
BRANCH   5   8
ATOM      8  C   UNL     1      -0.021  -3.079   3.245  0.00  0.00    +0.101 C 
ATOM      9  C   UNL     1      -0.445  -3.946   4.433  0.00  0.00    +0.124 C 
ATOM     10  C   UNL     1      -0.927  -2.984   5.512  0.00  0.00    -0.036 C 
ATOM     11  C   UNL     1      -0.237  -3.272   6.607  0.00  0.00    -0.001 A 
ATOM     12  C   UNL     1      -0.313  -2.752   7.981  0.00  0.00    +0.010 A 
ATOM     13  C   UNL     1       0.574  -3.272   8.870  0.00  0.00    +0.001 A 
ATOM     14  C   UNL     1       1.518  -4.247   8.533  0.00  0.00    +0.002 A 
ATOM     15  C   UNL     1       1.655  -4.787   7.296  0.00  0.00    +0.026 A 
ATOM     16  C   UNL     1       0.774  -4.323   6.277  0.00  0.00    +0.043 A 
ATOM     17  N   UNL     1       0.672  -4.690   5.013  0.00  0.00    -0.376 N 
ATOM     18  C   UNL     1      -1.929  -1.896   5.213  0.00  0.00    +0.048 C 
ATOM     19  C   UNL     1      -1.436  -1.197   3.933  0.00  0.00    +0.085 C 
ATOM     20  N   UNL     1      -1.141  -2.190   2.897  0.00  0.00    -0.310 NA
ATOM     21  H   UNL     1      -0.987  -1.747   2.003  0.00  0.00    +0.122 HD
ATOM     22  H   UNL     1       1.232  -5.330   4.546  0.00  0.00    +0.160 HD
ENDBRANCH   5   8
BRANCH   1  28
ATOM     23  C   UNL     1       0.606  -0.607  -1.056  0.00  0.00    +0.142 A 
ATOM     24  C   UNL     1       1.173   0.159  -2.062  0.00  0.00    +0.047 A 
ATOM     25  C   UNL     1       1.787  -0.456  -3.137  0.00  0.00    +0.004 A 
ATOM     26  C   UNL     1       1.838  -1.836  -3.213  0.00  0.00    +0.002 A 
ATOM     27  C   UNL     1       1.275  -2.607  -2.214  0.00  0.00    +0.027 A 
ATOM     28  C   UNL     1       0.662  -1.997  -1.129  0.00  0.00    +0.082 A 
BRANCH  23  30
ATOM     29  C   UNL     1      -0.017   1.425   0.010  0.00  0.00    +0.277 C 
ATOM     30  O   UNL     1       0.002  -0.004   0.002  0.00  0.00    -0.493 OA
ENDBRANCH  23  30
ENDBRANCH   1  28
BRANCH   4  31
ATOM     31  O   UNL     1      -1.313  -5.783   2.301  0.00  0.00    -0.495 OA
ATOM     32  H   UNL     1      -2.116  -6.199   1.957  0.00  0.00    +0.293 HD
ENDBRANCH   4  31
BRANCH   2  33
ATOM     33  O   UNL     1      -1.565  -3.514  -1.601  0.00  0.00    -0.356 OA
ATOM     34  H   UNL     1      -2.475  -3.795  -1.766  0.00  0.00    +0.214 HD
ENDBRANCH   2  33
TORSDOF 5
