REMARK  Name = ZINC63308935
REMARK  5 active torsions:
REMARK  status: ('A' for Active; 'I' for Inactive)
REMARK    1  A    between atoms: C_10  and  N_11
REMARK    2  A    between atoms: N_11  and  C_12
REMARK    3  A    between atoms: C_12  and  N_14
REMARK    4  A    between atoms: N_14  and  C_15
REMARK    5  A    between atoms: C_15  and  C_16
REMARK                            x       y       z     vdW  Elec       q    Type
REMARK                         _______ _______ _______ _____ _____    ______ ____
ROOT
ATOM      1  N   UNL     1       7.198   0.138   0.138  0.00  0.00    -0.322 N 
ATOM      2  H   UNL     1       7.181   1.108   0.142  0.00  0.00    +0.148 HD
ENDROOT
BRANCH   1   3
ATOM      3  C   UNL     1       6.046  -0.556   0.044  0.00  0.00    +0.135 C 
ATOM      4  S   UNL     1       6.077  -2.268   0.036  0.00  0.00    -0.019 S 
BRANCH   3   5
ATOM      5  N   UNL     1       4.871   0.098  -0.044  0.00  0.00    -0.296 N 
ATOM      6  H   UNL     1       4.858   1.065  -0.119  0.00  0.00    +0.154 HD
BRANCH   5  16
ATOM      7  C   UNL     1       0.592   0.273  -2.714  0.00  0.00    +0.001 A 
ATOM      8  C   UNL     1       1.780   0.999  -2.749  0.00  0.00    +0.001 A 
ATOM      9  C   UNL     1       2.794   0.724  -1.883  0.00  0.00    +0.010 A 
ATOM     10  C   UNL     1       2.643  -0.304  -0.940  0.00  0.00    +0.003 A 
ATOM     11  C   UNL     1       1.435  -1.043  -0.903  0.00  0.00    -0.016 A 
ATOM     12  C   UNL     1       0.410  -0.732  -1.813  0.00  0.00    +0.008 A 
ATOM     13  C   UNL     1       1.282  -2.073   0.040  0.00  0.00    +0.008 A 
ATOM     14  C   UNL     1       2.292  -2.354   0.910  0.00  0.00    +0.002 A 
ATOM     15  C   UNL     1       3.483  -1.635   0.884  0.00  0.00    +0.024 A 
ATOM     16  C   UNL     1       3.672  -0.617  -0.026  0.00  0.00    +0.040 A 
ENDBRANCH   5  16
ENDBRANCH   3   5
ENDBRANCH   1   3
BRANCH   1  17
ATOM     17  C   UNL     1       8.476  -0.572   0.233  0.00  0.00    +0.138 C 
BRANCH  17  18
ATOM     18  C   UNL     1       9.600   0.427   0.326  0.00  0.00    -0.030 A 
ATOM     19  C   UNL     1      10.200   0.891  -0.852  0.00  0.00    +0.007 A 
ATOM     20  C   UNL     1      11.214   1.782  -0.850  0.00  0.00    +0.026 A 
ATOM     21  C   UNL     1      11.721   2.295   0.374  0.00  0.00    +0.043 A 
ATOM     22  N   UNL     1      12.667   3.170   0.630  0.00  0.00    -0.378 N 
ATOM     23  C   UNL     1      12.831   3.266   2.078  0.00  0.00    +0.106 C 
ATOM     24  C   UNL     1      12.659   4.699   2.587  0.00  0.00    +0.029 C 
ATOM     25  C   UNL     1      12.559   4.663   4.116  0.00  0.00    +0.003 C 
ATOM     26  C   UNL     1      11.296   3.933   4.569  0.00  0.00    +0.004 C 
ATOM     27  C   UNL     1      11.359   2.458   4.137  0.00  0.00    +0.033 C 
ATOM     28  C   UNL     1      11.705   2.432   2.667  0.00  0.00    -0.038 C 
ATOM     29  C   UNL     1      11.098   1.826   1.637  0.00  0.00    -0.001 A 
ATOM     30  C   UNL     1       9.999   0.856   1.544  0.00  0.00    +0.015 A 
ATOM     31  H   UNL     1      13.172   3.668  -0.032  0.00  0.00    +0.160 HD
ENDBRANCH  17  18
ENDBRANCH   1  17
TORSDOF 5
