REMARK  Name = ZINC38551038
REMARK  8 active torsions:
REMARK  status: ('A' for Active; 'I' for Inactive)
REMARK    1  A    between atoms: C_1  and  C_2
REMARK    2  A    between atoms: C_6  and  N_8
REMARK    3  A    between atoms: N_8  and  C_9
REMARK    4  A    between atoms: C_9  and  C_11
REMARK    5  A    between atoms: C_9  and  C_16
REMARK    6  A    between atoms: C_18  and  C_30
REMARK    7  A    between atoms: C_20  and  N_21
REMARK    8  A    between atoms: C_22  and  C_24
REMARK                            x       y       z     vdW  Elec       q    Type
REMARK                         _______ _______ _______ _____ _____    ______ ____
ROOT
ATOM      1  C   UNL     1       0.069  -4.101   2.466  0.00  0.00    +0.141 C 
ENDROOT
BRANCH   1   2
ATOM      2  C   UNL     1       0.681  -4.549   3.768  0.00  0.00    +0.006 A 
ATOM      3  C   UNL     1       0.647  -3.729   4.881  0.00  0.00    +0.018 A 
ATOM      4  C   UNL     1       1.207  -4.163   6.035  0.00  0.00    -0.011 A 
ATOM      5  S   UNL     1       1.812  -5.778   5.573  0.00  0.00    -0.078 S 
ATOM      6  C   UNL     1       1.274  -5.772   3.871  0.00  0.00    +0.077 A 
ATOM      7  C   UNL     1       1.296  -3.463   7.367  0.00  0.00    +0.051 C 
BRANCH   6   8
ATOM      8  N   UNL     1       1.423  -6.762   2.897  0.00  0.00    -0.276 N 
ATOM      9  C   UNL     1       2.047  -7.917   3.201  0.00  0.00    +0.249 C 
ATOM     10  O   UNL     1       2.481  -8.097   4.323  0.00  0.00    -0.270 OA
ATOM     11  H   UNL     1       1.077  -6.618   2.002  0.00  0.00    +0.156 HD
BRANCH   9  12
ATOM     12  C   UNL     1       2.205  -8.965   2.171  0.00  0.00    +0.037 A 
ATOM     13  C   UNL     1       1.714  -8.759   0.881  0.00  0.00    +0.013 A 
ATOM     14  C   UNL     1       1.866  -9.741  -0.076  0.00  0.00    +0.001 A 
ATOM     15  C   UNL     1       2.503 -10.928   0.240  0.00  0.00    +0.000 A 
ATOM     16  C   UNL     1       2.991 -11.138   1.518  0.00  0.00    +0.001 A 
ATOM     17  C   UNL     1       2.852 -10.162   2.483  0.00  0.00    +0.013 A 
ENDBRANCH   9  12
ENDBRANCH   6   8
ENDBRANCH   1   2
BRANCH   1  18
ATOM     18  C   UNL     1      -1.341  -4.626   2.366  0.00  0.00    +0.014 A 
ATOM     19  C   UNL     1      -1.803  -5.705   1.689  0.00  0.00    +0.013 A 
ATOM     20  C   UNL     1      -3.153  -6.001   1.742  0.00  0.00    +0.008 A 
ATOM     21  C   UNL     1      -3.973  -5.204   2.469  0.00  0.00    +0.045 A 
ATOM     22  S   UNL     1      -2.832  -3.992   3.115  0.00  0.00    -0.099 S 
ENDBRANCH   1  18
BRANCH   1  23
ATOM     23  N   UNL     1       0.049  -2.637   2.414  0.00  0.00    -0.319 N 
ATOM     24  H   UNL     1       0.046  -2.122   3.236  0.00  0.00    +0.148 HD
BRANCH  23  30
ATOM     25  C   UNL     1      -0.018   1.503   0.010  0.00  0.00    +0.063 C 
ATOM     26  C   UNL     1       0.002  -0.004   0.002  0.00  0.00    +0.014 A 
ATOM     27  C   UNL     1       0.005  -0.679  -1.202  0.00  0.00    +0.021 A 
ATOM     28  C   UNL     1       0.024  -2.067  -1.204  0.00  0.00    +0.005 A 
ATOM     29  C   UNL     1       0.039  -2.729   0.011  0.00  0.00    +0.041 A 
ATOM     30  C   UNL     1       0.035  -1.985   1.186  0.00  0.00    +0.097 A 
ATOM     31  N   UNL     1       0.022  -0.661   1.146  0.00  0.00    -0.347 N 
ATOM     32  H   UNL     1       0.023  -0.163   1.978  0.00  0.00    +0.167 HD
ENDBRANCH  23  30
ENDBRANCH   1  23
TORSDOF 6
