REMARK  Name = ZINC05493841
REMARK  11 active torsions:
REMARK  status: ('A' for Active; 'I' for Inactive)
REMARK    1  A    between atoms: C_1  and  C_2
REMARK    2  A    between atoms: C_5  and  N_8
REMARK    3  A    between atoms: N_8  and  S_9
REMARK    4  A    between atoms: S_9  and  C_12
REMARK    5  A    between atoms: C_14  and  C_20
REMARK    6  A    between atoms: C_17  and  O_18
REMARK    7  A    between atoms: O_18  and  C_19
REMARK    8  A    between atoms: C_20  and  O_22
REMARK    9  A    between atoms: O_22  and  C_23
REMARK   10  A    between atoms: C_23  and  C_25
REMARK   11  A    between atoms: C_23  and  C_26
REMARK                            x       y       z     vdW  Elec       q    Type
REMARK                         _______ _______ _______ _____ _____    ______ ____
ROOT
ATOM      1  C   UNL     1      -1.038  -0.739   0.270  0.00  0.00    +0.151 A 
ATOM      2  C   UNL     1      -1.041  -2.113   0.350  0.00  0.00    +0.047 A 
ATOM      3  C   UNL     1       0.169  -2.814   0.347  0.00  0.00    +0.061 A 
ATOM      4  C   UNL     1       1.376  -2.115   0.257  0.00  0.00    +0.018 A 
ATOM      5  C   UNL     1       1.370  -0.741   0.172  0.00  0.00    +0.048 A 
ATOM      6  C   UNL     1       0.164  -0.048   0.175  0.00  0.00    +0.147 A 
ENDROOT
BRANCH   1   7
ATOM      7  S   UNL     1      -2.562   0.146   0.282  0.00  0.00    +0.076 S 
ATOM      8  O   UNL     1      -2.521   1.040  -0.822  0.00  0.00    -0.150 OA
ATOM      9  O   UNL     1      -3.592  -0.820   0.441  0.00  0.00    -0.150 OA
BRANCH   7  10
ATOM     10  N   UNL     1      -2.575   1.082   1.648  0.00  0.00    -0.216 N 
ATOM     11  H   UNL     1      -2.593   2.049   1.574  0.00  0.00    +0.174 HD
BRANCH  10  16
ATOM     12  C   UNL     1      -2.515  -1.368   6.762  0.00  0.00    +0.044 C 
ATOM     13  C   UNL     1      -2.531  -0.717   5.403  0.00  0.00    -0.050 A 
ATOM     14  C   UNL     1      -1.692   0.350   5.139  0.00  0.00    +0.005 A 
ATOM     15  C   UNL     1      -1.704   0.949   3.895  0.00  0.00    +0.025 A 
ATOM     16  C   UNL     1      -2.560   0.478   2.908  0.00  0.00    +0.048 A 
ATOM     17  C   UNL     1      -3.406  -0.590   3.178  0.00  0.00    +0.025 A 
ATOM     18  C   UNL     1      -3.385  -1.188   4.423  0.00  0.00    +0.005 A 
ENDBRANCH  10  16
ENDBRANCH   7  10
ENDBRANCH   1   7
BRANCH   6  19
ATOM     19  O   UNL     1       0.162   1.306   0.091  0.00  0.00    -0.493 OA
ATOM     20  C   UNL     1       1.432   1.960   0.120  0.00  0.00    +0.277 C 
ENDBRANCH   6  19
BRANCH   3  21
ATOM     21  C   UNL     1       0.171  -4.285   0.438  0.00  0.00    +0.340 C 
ATOM     22  O   UNL     1      -0.879  -4.891   0.517  0.00  0.00    -0.245 OA
BRANCH  21  23
ATOM     23  O   UNL     1       1.338  -4.959   0.435  0.00  0.00    -0.449 OA
BRANCH  23  24
ATOM     24  C   UNL     1       1.265  -6.406   0.527  0.00  0.00    +0.259 C 
ATOM     25  C   UNL     1       1.294  -6.825   1.999  0.00  0.00    +0.062 C 
BRANCH  24  26
ATOM     26  C   UNL     1       2.440  -7.016  -0.193  0.00  0.00    +0.261 C 
ATOM     27  O   UNL     1       3.306  -6.303  -0.652  0.00  0.00    -0.271 OA
ATOM     28  N   UNL     1       2.528  -8.354  -0.326  0.00  0.00    -0.237 N 
ATOM     29  C   UNL     1       3.579  -8.899  -0.970  0.00  0.00    +0.303 C 
ATOM     30  O   UNL     1       4.447  -8.184  -1.430  0.00  0.00    -0.253 OA
ATOM     31  N   UNL     1       3.667 -10.238  -1.103  0.00  0.00    -0.313 N 
ATOM     32  H   UNL     1       1.835  -8.925   0.042  0.00  0.00    +0.159 HD
ATOM     33  H   UNL     1       2.974 -10.808  -0.735  0.00  0.00    +0.146 HD
ATOM     34  H   UNL     1       4.423 -10.630  -1.566  0.00  0.00    +0.146 HD
ENDBRANCH  24  26
ENDBRANCH  23  24
ENDBRANCH  21  23
ENDBRANCH   3  21
TORSDOF 8
