REMARK  Name = ZINC09245609
REMARK  8 active torsions:
REMARK  status: ('A' for Active; 'I' for Inactive)
REMARK    1  A    between atoms: C_3  and  S_28
REMARK    2  A    between atoms: C_6  and  C_7
REMARK    3  A    between atoms: C_7  and  C_8
REMARK    4  A    between atoms: C_8  and  N_9
REMARK    5  A    between atoms: C_10  and  C_12
REMARK    6  A    between atoms: C_12  and  N_58
REMARK    7  A    between atoms: C_16  and  C_18
REMARK    8  A    between atoms: S_28  and  N_31
REMARK                            x       y       z     vdW  Elec       q    Type
REMARK                         _______ _______ _______ _____ _____    ______ ____
ROOT
ATOM      1  N   UNL     1       4.792   3.714  -4.287  0.00  0.00    -0.317 N 
ATOM      2  C   UNL     1       4.601   3.316  -3.013  0.00  0.00    +0.196 C 
ATOM      3  O   UNL     1       5.373   2.533  -2.500  0.00  0.00    -0.278 OA
ATOM      4  H   UNL     1       4.175   4.340  -4.697  0.00  0.00    +0.149 HD
ENDROOT
BRANCH   1   5
ATOM      5  C   UNL     1       5.931   3.201  -5.051  0.00  0.00    +0.109 C 
BRANCH   5   6
ATOM      6  C   UNL     1       5.916   3.805  -6.457  0.00  0.00    +0.054 C 
BRANCH   6  12
ATOM      7  C   UNL     1       8.294   3.952  -7.223  0.00  0.00    +0.005 A 
ATOM      8  C   UNL     1       9.371   3.466  -7.941  0.00  0.00    +0.029 A 
ATOM      9  C   UNL     1       9.238   2.310  -8.687  0.00  0.00    +0.105 A 
ATOM     10  C   UNL     1       8.030   1.638  -8.712  0.00  0.00    +0.029 A 
ATOM     11  C   UNL     1       6.955   2.122  -7.990  0.00  0.00    +0.005 A 
ATOM     12  C   UNL     1       7.088   3.278  -7.243  0.00  0.00    -0.046 A 
BRANCH   9  13
ATOM     13  S   UNL     1      10.609   1.692  -9.606  0.00  0.00    +0.056 S 
ATOM     14  O   UNL     1      11.779   2.202  -8.982  0.00  0.00    -0.153 OA
ATOM     15  O   UNL     1      10.385   0.300  -9.783  0.00  0.00    -0.153 OA
BRANCH  13  16
ATOM     16  N   UNL     1      10.538   2.378 -11.111  0.00  0.00    -0.204 NA
ATOM     17  H   UNL     1       9.822   2.995 -11.330  0.00  0.00    +0.144 HD
ATOM     18  H   UNL     1      11.212   2.163 -11.774  0.00  0.00    +0.144 HD
ENDBRANCH  13  16
ENDBRANCH   9  13
ENDBRANCH   6  12
ENDBRANCH   5   6
ENDBRANCH   1   5
BRANCH   2  19
ATOM     19  C   UNL     1       3.429   3.844  -2.226  0.00  0.00    +0.019 C 
BRANCH  19  24
ATOM     20  C   UNL     1       4.778   3.389  -0.262  0.00  0.00    -0.077 C 
ATOM     21  C   UNL     1       4.599   4.151   1.068  0.00  0.00    -0.020 C 
ATOM     22  C   UNL     1       3.101   3.918   1.407  0.00  0.00    -0.013 C 
ATOM     23  C   UNL     1       2.457   3.931  -0.002  0.00  0.00    -0.037 C 
ATOM     24  N   UNL     1       3.442   3.249  -0.864  0.00  0.00    +0.390 N 
ATOM     25  H   UNL     1       3.203   2.253  -0.931  0.00  0.00    -0.080 HD
BRANCH  23  26
ATOM     26  C   UNL     1       1.160   3.165   0.007  0.00  0.00    -0.057 A 
ATOM     27  C   UNL     1       1.175   1.782   0.000  0.00  0.00    +0.006 A 
ATOM     28  C   UNL     1      -0.013   1.076   0.008  0.00  0.00    +0.049 A 
ATOM     29  C   UNL     1      -1.223   1.752   0.017  0.00  0.00    +0.162 A 
ATOM     30  C   UNL     1      -1.239   3.142   0.033  0.00  0.00    +0.162 A 
ATOM     31  C   UNL     1      -0.043   3.845   0.024  0.00  0.00    +0.051 A 
ATOM     32  O   UNL     1      -2.416   3.825   0.057  0.00  0.00    -0.485 OA
ATOM     33  C   UNL     1      -3.590   3.095  -0.328  0.00  0.00    +0.270 C 
ATOM     34  C   UNL     1      -3.570   1.746   0.404  0.00  0.00    +0.270 C 
ATOM     35  O   UNL     1      -2.385   1.043   0.014  0.00  0.00    -0.485 OA
ENDBRANCH  23  26
ENDBRANCH  19  24
ENDBRANCH   2  19
TORSDOF 8
