REMARK  Name = ZINC12849255
REMARK  3 active torsions:
REMARK  status: ('A' for Active; 'I' for Inactive)
REMARK    1  A    between atoms: C_4  and  S_8
REMARK    2  A    between atoms: S_8  and  N_11
REMARK    3  A    between atoms: C_15  and  C_17
REMARK                            x       y       z     vdW  Elec       q    Type
REMARK                         _______ _______ _______ _____ _____    ______ ____
ROOT
ATOM      1  N   UNL     1      -1.168  -1.954   0.878  0.00  0.00    -0.169 NA
ATOM      2  C   UNL     1      -1.366  -3.165   0.061  0.00  0.00    +0.110 C 
ATOM      3  C   UNL     1      -2.206  -2.692  -1.152  0.00  0.00    +0.019 C 
ATOM      4  C   UNL     1      -1.611  -1.282  -1.411  0.00  0.00    +0.027 C 
ATOM      5  C   UNL     1      -1.293  -0.774   0.011  0.00  0.00    +0.110 C 
ENDROOT
BRANCH   5   6
ATOM      6  C   UNL     1       0.002  -0.004   0.002  0.00  0.00    -0.025 A 
ATOM      7  C   UNL     1       1.207  -0.681  -0.013  0.00  0.00    +0.009 A 
ATOM      8  C   UNL     1       2.397   0.021  -0.019  0.00  0.00    +0.050 A 
ATOM      9  C   UNL     1       2.386   1.408  -0.011  0.00  0.00    +0.162 A 
ATOM     10  C   UNL     1       1.174   2.089   0.002  0.00  0.00    +0.162 A 
ATOM     11  C   UNL     1      -0.017   1.378   0.010  0.00  0.00    +0.054 A 
ATOM     12  O   UNL     1       1.140   3.450   0.002  0.00  0.00    -0.485 OA
ATOM     13  C   UNL     1       2.348   4.123   0.372  0.00  0.00    +0.270 C 
ATOM     14  C   UNL     1       3.513   3.469  -0.382  0.00  0.00    +0.270 C 
ATOM     15  O   UNL     1       3.566   2.086  -0.013  0.00  0.00    -0.485 OA
ENDBRANCH   5   6
BRANCH   1  16
ATOM     16  S   UNL     1      -0.855  -1.928   2.504  0.00  0.00    +0.064 S 
ATOM     17  O   UNL     1      -0.275  -3.185   2.826  0.00  0.00    -0.153 OA
ATOM     18  O   UNL     1      -0.199  -0.696   2.772  0.00  0.00    -0.153 OA
BRANCH  16  22
ATOM     19  C   UNL     1      -4.846  -1.760   4.635  0.00  0.00    +0.003 A 
ATOM     20  C   UNL     1      -4.274  -2.982   4.336  0.00  0.00    +0.022 A 
ATOM     21  C   UNL     1      -3.054  -3.034   3.685  0.00  0.00    +0.069 A 
ATOM     22  C   UNL     1      -2.408  -1.863   3.333  0.00  0.00    +0.142 A 
ATOM     23  C   UNL     1      -2.979  -0.640   3.637  0.00  0.00    +0.069 A 
ATOM     24  C   UNL     1      -4.201  -0.589   4.283  0.00  0.00    +0.022 A 
ATOM     25 CL   UNL     1      -2.165   0.831   3.203  0.00  0.00    -0.081 Cl
ATOM     26 CL   UNL     1      -2.336  -4.569   3.309  0.00  0.00    -0.081 Cl
ENDBRANCH  16  22
ENDBRANCH   1  16
TORSDOF 3
