REMARK  Name = ZINC54108890
REMARK  10 active torsions:
REMARK  status: ('A' for Active; 'I' for Inactive)
REMARK    1  A    between atoms: C_1  and  C_2
REMARK    2  A    between atoms: C_2  and  N_3
REMARK    3  A    between atoms: N_3  and  C_4
REMARK    4  A    between atoms: N_3  and  C_5
REMARK    5  A    between atoms: C_5  and  C_6
REMARK    6  A    between atoms: C_6  and  N_7
REMARK    7  A    between atoms: N_7  and  S_8
REMARK    8  A    between atoms: S_8  and  C_11
REMARK    9  A    between atoms: C_12  and  N_19
REMARK   10  A    between atoms: N_19  and  N_20
REMARK                            x       y       z     vdW  Elec       q    Type
REMARK                         _______ _______ _______ _____ _____    ______ ____
ROOT
ATOM      1  C   UNL     1      -5.377  -4.518  -0.306  0.00  0.00    +0.222 A 
ATOM      2  C   UNL     1      -6.273  -3.510  -0.328  0.00  0.00    +0.179 A 
ATOM      3  N   UNL     1      -7.063  -3.671  -1.403  0.00  0.00    -0.203 NA
ATOM      4  C   UNL     1      -6.691  -4.740  -2.047  0.00  0.00    +0.181 A 
ATOM      5  N   UNL     1      -5.626  -5.327  -1.418  0.00  0.00    -0.276 N 
ATOM      6  C   UNL     1      -5.115  -6.471  -1.991  0.00  0.00    +0.102 A 
ATOM      7  C   UNL     1      -5.644  -6.969  -3.109  0.00  0.00    +0.067 A 
ATOM      8  S   UNL     1      -6.964  -5.812  -3.439  0.00  0.00    -0.058 S 
ENDROOT
BRANCH   1   9
ATOM      9  S   UNL     1      -4.117  -4.765   0.900  0.00  0.00    +0.078 S 
ATOM     10  O   UNL     1      -3.796  -6.149   0.874  0.00  0.00    -0.151 OA
ATOM     11  O   UNL     1      -4.550  -4.106   2.081  0.00  0.00    -0.151 OA
BRANCH   9  12
ATOM     12  N   UNL     1      -2.770  -3.958   0.374  0.00  0.00    -0.190 NA
ATOM     13  H   UNL     1      -1.969  -4.452   0.140  0.00  0.00    +0.148 HD
BRANCH  12  14
ATOM     14  C   UNL     1      -2.789  -2.497   0.261  0.00  0.00    +0.087 C 
BRANCH  14  15
ATOM     15  C   UNL     1      -1.357  -1.977   0.125  0.00  0.00    -0.062 C 
BRANCH  15  16
ATOM     16  N   UNL     1      -1.376  -0.512   0.012  0.00  0.00    +0.379 N 
ATOM     17  C   UNL     1      -2.050  -0.126  -1.234  0.00  0.00    -0.096 C 
ATOM     18  H   UNL     1      -1.873  -0.121   0.799  0.00  0.00    -0.082 HD
BRANCH  16  20
ATOM     19  C   UNL     1      -0.019   1.526   0.010  0.00  0.00    -0.017 C 
ATOM     20  C   UNL     1       0.002  -0.004   0.002  0.00  0.00    -0.083 C 
ENDBRANCH  16  20
ENDBRANCH  15  16
ENDBRANCH  14  15
ENDBRANCH  12  14
ENDBRANCH   9  12
ENDBRANCH   1   9
BRANCH   2  21
ATOM     21  N   UNL     1      -6.364  -2.471   0.612  0.00  0.00    -0.265 N 
ATOM     22  H   UNL     1      -5.746  -2.437   1.359  0.00  0.00    +0.168 HD
BRANCH  21  23
ATOM     23  N   UNL     1      -7.322  -1.507   0.473  0.00  0.00    -0.255 NA
ATOM     24  H   UNL     1      -8.243  -1.917   0.427  0.00  0.00    +0.140 HD
ATOM     25  H   UNL     1      -7.265  -0.831   1.220  0.00  0.00    +0.140 HD
ENDBRANCH  21  23
ENDBRANCH   2  21
TORSDOF 8
