REMARK  Name = ZINC38511483
REMARK  5 active torsions:
REMARK  status: ('A' for Active; 'I' for Inactive)
REMARK    1  A    between atoms: C_1  and  N_2
REMARK    2  A    between atoms: C_13  and  N_17
REMARK    3  A    between atoms: C_18  and  C_20
REMARK    4  A    between atoms: N_25  and  S_27
REMARK    5  A    between atoms: S_27  and  C_30
REMARK                            x       y       z     vdW  Elec       q    Type
REMARK                         _______ _______ _______ _____ _____    ______ ____
ROOT
ATOM      1  N   UNL     1       6.476  -8.057  -0.070  0.00  0.00    -0.285 N 
ATOM      2  C   UNL     1       7.283  -7.927   1.002  0.00  0.00    +0.222 C 
ATOM      3  O   UNL     1       7.123  -7.005   1.773  0.00  0.00    -0.275 OA
ATOM      4  H   UNL     1       6.559  -8.831  -0.649  0.00  0.00    +0.155 HD
ENDROOT
BRANCH   1  17
ATOM      5  C   UNL     1      -0.063   1.434   0.048  0.00  0.00    -0.096 C 
ATOM      6  N   UNL     1      -0.036  -0.035   0.035  0.00  0.00    +0.380 N 
ATOM      7  C   UNL     1       0.644  -0.499  -1.181  0.00  0.00    -0.060 C 
ATOM      8  C   UNL     1       0.572  -2.028  -1.254  0.00  0.00    +0.088 C 
ATOM      9  N   UNL     1       1.118  -2.580  -0.004  0.00  0.00    -0.313 N 
ATOM     10  C   UNL     1       0.607  -2.050   1.270  0.00  0.00    +0.088 C 
ATOM     11  C   UNL     1       0.678  -0.521   1.222  0.00  0.00    -0.060 C 
ATOM     12  C   UNL     1       2.083  -3.567  -0.026  0.00  0.00    +0.162 A 
ATOM     13  N   UNL     1       2.649  -4.143  -1.062  0.00  0.00    -0.225 NA
ATOM     14  C   UNL     1       3.591  -5.105  -0.934  0.00  0.00    +0.080 A 
ATOM     15  C   UNL     1       4.272  -5.800  -1.960  0.00  0.00    +0.031 A 
ATOM     16  C   UNL     1       5.200  -6.749  -1.664  0.00  0.00    +0.025 A 
ATOM     17  C   UNL     1       5.516  -7.074  -0.347  0.00  0.00    +0.035 A 
ATOM     18  C   UNL     1       4.867  -6.413   0.688  0.00  0.00    +0.040 A 
ATOM     19  C   UNL     1       3.931  -5.455   0.392  0.00  0.00    +0.043 A 
ATOM     20  S   UNL     1       2.886  -4.381   1.347  0.00  0.00    -0.052 S 
ATOM     21  H   UNL     1      -0.981  -0.388   0.044  0.00  0.00    -0.082 HD
ENDBRANCH   1  17
BRANCH   2  22
ATOM     22  C   UNL     1       8.383  -8.928   1.241  0.00  0.00    +0.091 C 
ATOM     23  C   UNL     1       7.778 -10.324   1.404  0.00  0.00    +0.015 C 
ATOM     24  C   UNL     1       8.897 -11.346   1.615  0.00  0.00    +0.018 C 
ATOM     25  C   UNL     1       9.665 -11.000   2.895  0.00  0.00    +0.109 C 
ATOM     26  N   UNL     1      10.127  -9.609   2.807  0.00  0.00    -0.175 NA
ATOM     27  C   UNL     1       9.146  -8.554   2.517  0.00  0.00    +0.122 C 
BRANCH  26  28
ATOM     28  S   UNL     1      11.725  -9.235   3.031  0.00  0.00    +0.067 S 
ATOM     29  O   UNL     1      11.770  -7.874   3.440  0.00  0.00    -0.152 OA
ATOM     30  O   UNL     1      12.281 -10.283   3.812  0.00  0.00    -0.152 OA
BRANCH  28  31
ATOM     31  C   UNL     1      12.505  -9.313   1.453  0.00  0.00    +0.143 A 
ATOM     32  C   UNL     1      12.671  -8.331   0.534  0.00  0.00    +0.036 A 
ATOM     33  C   UNL     1      13.323  -8.624  -0.649  0.00  0.00    +0.010 A 
ATOM     34  C   UNL     1      13.776  -9.885  -0.855  0.00  0.00    +0.047 A 
ATOM     35  S   UNL     1      13.288 -10.704   0.654  0.00  0.00    -0.077 S 
ENDBRANCH  28  31
ENDBRANCH  26  28
ENDBRANCH   2  22
TORSDOF 4
