REMARK  Name = ZINC56947519
REMARK  10 active torsions:
REMARK  status: ('A' for Active; 'I' for Inactive)
REMARK    1  A    between atoms: C_1  and  C_2
REMARK    2  A    between atoms: C_5  and  C_29
REMARK    3  A    between atoms: N_8  and  C_10
REMARK    4  A    between atoms: C_10  and  C_11
REMARK    5  A    between atoms: C_11  and  C_13
REMARK    6  A    between atoms: C_11  and  N_14
REMARK    7  A    between atoms: N_17  and  C_18
REMARK    8  A    between atoms: N_17  and  C_19
REMARK    9  A    between atoms: C_19  and  C_20
REMARK   10  A    between atoms: C_24  and  C_26
REMARK                            x       y       z     vdW  Elec       q    Type
REMARK                         _______ _______ _______ _____ _____    ______ ____
ROOT
ATOM      1  N   UNL     1       3.510  -2.495   0.951  0.00  0.00    -0.298 N 
ATOM      2  C   UNL     1       4.540  -1.852   0.365  0.00  0.00    +0.302 C 
ATOM      3  O   UNL     1       5.040  -0.884   0.906  0.00  0.00    -0.253 OA
ATOM      4  N   UNL     1       5.016  -2.281  -0.821  0.00  0.00    -0.284 N 
ATOM      5  C   UNL     1       4.414  -3.447  -1.473  0.00  0.00    +0.134 C 
ATOM      6  H   UNL     1       3.112  -3.266   0.519  0.00  0.00    +0.150 HD
ENDROOT
BRANCH   1   7
ATOM      7  C   UNL     1       2.993  -2.028   2.239  0.00  0.00    +0.055 C 
ATOM      8  C   UNL     1       3.825  -2.634   3.372  0.00  0.00    +0.026 C 
BRANCH   7   9
ATOM      9  C   UNL     1       1.534  -2.461   2.390  0.00  0.00    -0.057 C 
BRANCH   9  15
ATOM     10  C   UNL     1      -0.019   1.526   0.010  0.00  0.00    +0.005 C 
ATOM     11  C   UNL     1       0.002  -0.004   0.002  0.00  0.00    -0.031 C 
ATOM     12  C   UNL     1      -1.434  -0.535   0.015  0.00  0.00    +0.003 C 
ATOM     13  C   UNL     1      -1.402  -2.064   0.086  0.00  0.00    -0.031 C 
ATOM     14  C   UNL     1      -0.613  -2.496   1.324  0.00  0.00    -0.076 C 
ATOM     15  N   UNL     1       0.758  -1.980   1.239  0.00  0.00    +0.381 N 
ATOM     16  C   UNL     1       0.740  -0.512   1.242  0.00  0.00    -0.076 C 
ATOM     17  C   UNL     1      -2.832  -2.602   0.177  0.00  0.00    +0.005 C 
ATOM     18  H   UNL     1       1.188  -2.307   0.386  0.00  0.00    -0.082 HD
ENDBRANCH   9  15
ENDBRANCH   7   9
ENDBRANCH   1   7
BRANCH   4  19
ATOM     19  C   UNL     1       6.135  -1.582  -1.457  0.00  0.00    +0.144 C 
BRANCH  19  20
ATOM     20  C   UNL     1       7.434  -2.193  -1.000  0.00  0.00    -0.029 A 
ATOM     21  C   UNL     1       8.067  -1.705   0.130  0.00  0.00    +0.005 A 
ATOM     22  C   UNL     1       9.259  -2.261   0.557  0.00  0.00    +0.001 A 
ATOM     23  C   UNL     1       9.827  -3.306  -0.143  0.00  0.00    +0.013 A 
ATOM     24  C   UNL     1       9.194  -3.803  -1.284  0.00  0.00    +0.037 A 
ATOM     25  C   UNL     1       7.988  -3.241  -1.706  0.00  0.00    +0.018 A 
BRANCH  24  26
ATOM     26  C   UNL     1       9.796  -4.922  -2.039  0.00  0.00    +0.242 C 
ATOM     27  O   UNL     1       9.243  -5.353  -3.032  0.00  0.00    -0.270 OA
ATOM     28  N   UNL     1      10.959  -5.465  -1.626  0.00  0.00    -0.325 N 
ATOM     29  H   UNL     1      11.400  -5.122  -0.834  0.00  0.00    +0.145 HD
ATOM     30  H   UNL     1      11.354  -6.199  -2.122  0.00  0.00    +0.145 HD
ENDBRANCH  24  26
ENDBRANCH  19  20
ENDBRANCH   4  19
TORSDOF 6
