REMARK  Name = ZINC05050843
REMARK  8 active torsions:
REMARK  status: ('A' for Active; 'I' for Inactive)
REMARK    1  A    between atoms: C_1  and  C_2
REMARK    2  A    between atoms: C_2  and  C_27
REMARK    3  A    between atoms: C_4  and  N_9
REMARK    4  A    between atoms: C_6  and  C_7
REMARK    5  A    between atoms: C_6  and  C_8
REMARK    6  A    between atoms: C_10  and  C_12
REMARK    7  A    between atoms: N_14  and  C_15
REMARK    8  A    between atoms: C_15  and  C_16
REMARK                            x       y       z     vdW  Elec       q    Type
REMARK                         _______ _______ _______ _____ _____    ______ ____
ROOT
ATOM      1  N   UNL     1       0.319   1.218   4.907  0.00  0.00    -0.305 N 
ATOM      2  C   UNL     1      -0.210   1.248   6.146  0.00  0.00    +0.299 C 
ATOM      3  O   UNL     1      -1.324   1.698   6.319  0.00  0.00    -0.265 OA
ATOM      4  H   UNL     1       1.209   0.858   4.768  0.00  0.00    +0.149 HD
ENDROOT
BRANCH   1   8
ATOM      5  C   UNL     1      -0.013   1.086   0.008  0.00  0.00    -0.010 C 
ATOM      6  C   UNL     1      -0.736   1.584   1.279  0.00  0.00    -0.072 C 
ATOM      7  C   UNL     1       0.037   1.055   2.485  0.00  0.00    +0.009 C 
ATOM      8  C   UNL     1      -0.451   1.731   3.766  0.00  0.00    +0.071 C 
ATOM      9  C   UNL     1      -0.219   3.236   3.638  0.00  0.00    +0.009 C 
ATOM     10  C   UNL     1      -0.993   3.793   2.446  0.00  0.00    -0.072 C 
ATOM     11  C   UNL     1      -2.483   3.882   2.799  0.00  0.00    -0.010 C 
ATOM     12  C   UNL     1      -0.494   5.234   2.200  0.00  0.00    -0.010 C 
ATOM     13  C   UNL     1      -2.144   0.978   1.267  0.00  0.00    -0.010 C 
ATOM     14  N   UNL     1      -0.780   3.067   1.165  0.00  0.00    +0.386 N 
ATOM     15  H   UNL     1      -1.546   3.314   0.528  0.00  0.00    -0.084 HD
ATOM     16  H   UNL     1       0.112   3.381   0.766  0.00  0.00    -0.084 HD
ENDBRANCH   1   8
BRANCH   2  17
ATOM     17  C   UNL     1       0.574   0.726   7.306  0.00  0.00    +0.299 C 
ATOM     18  O   UNL     1       1.687   0.276   7.133  0.00  0.00    -0.265 OA
ATOM     19  N   UNL     1       0.044   0.756   8.545  0.00  0.00    -0.304 N 
ATOM     20  H   UNL     1      -0.846   1.116   8.684  0.00  0.00    +0.149 HD
BRANCH  19  21
ATOM     21  C   UNL     1       0.812   0.245   9.683  0.00  0.00    +0.152 C 
BRANCH  21  22
ATOM     22  C   UNL     1      -0.011   0.395  10.963  0.00  0.00    +0.228 C 
ATOM     23  C   UNL     1       0.829  -0.037  12.173  0.00  0.00    +0.275 C 
ATOM     24  O   UNL     1       0.026   0.103  13.350  0.00  0.00    -0.485 OA
ATOM     25  C   UNL     1      -1.244  -0.385  13.286  0.00  0.00    +0.162 A 
ATOM     26  C   UNL     1      -1.947  -0.609  14.460  0.00  0.00    +0.049 A 
ATOM     27  C   UNL     1      -3.238  -1.099  14.411  0.00  0.00    +0.004 A 
ATOM     28  C   UNL     1      -3.832  -1.369  13.191  0.00  0.00    +0.004 A 
ATOM     29  C   UNL     1      -3.136  -1.150  12.018  0.00  0.00    +0.049 A 
ATOM     30  C   UNL     1      -1.840  -0.658  12.060  0.00  0.00    +0.163 A 
ATOM     31  O   UNL     1      -1.167  -0.449  10.896  0.00  0.00    -0.480 OA
ENDBRANCH  21  22
ENDBRANCH  19  21
ENDBRANCH   2  17
TORSDOF 4
