REMARK  Name = ZINC39927309
REMARK  5 active torsions:
REMARK  status: ('A' for Active; 'I' for Inactive)
REMARK    1  A    between atoms: C_9  and  C_11
REMARK    2  A    between atoms: C_11  and  S_12
REMARK    3  A    between atoms: S_12  and  C_13
REMARK    4  A    between atoms: C_17  and  C_21
REMARK    5  A    between atoms: N_19  and  N_20
REMARK                            x       y       z     vdW  Elec       q    Type
REMARK                         _______ _______ _______ _____ _____    ______ ____
ROOT
ATOM      1  C   UNL     1       5.005  -5.343  -1.480  0.00  0.00    +0.270 C 
ATOM      2  N   UNL     1       4.151  -6.309  -0.776  0.00  0.00    -0.183 NA
ATOM      3  N   UNL     1       4.774  -6.888   0.118  0.00  0.00    -0.288 N 
ATOM      4  C   UNL     1       6.165  -6.422   0.185  0.00  0.00    +0.217 C 
ATOM      5  N   UNL     1       6.178  -5.152  -0.589  0.00  0.00    -0.184 NA
ATOM      6  H   UNL     1       4.395  -7.564   0.702  0.00  0.00    +0.184 HD
ENDROOT
BRANCH   4   7
ATOM      7  C   UNL     1       7.088  -7.431  -0.448  0.00  0.00    +0.010 A 
ATOM      8  C   UNL     1       6.696  -8.752  -0.558  0.00  0.00    +0.010 A 
ATOM      9  C   UNL     1       7.542  -9.678  -1.139  0.00  0.00    +0.020 A 
ATOM     10  C   UNL     1       8.782  -9.284  -1.610  0.00  0.00    +0.042 A 
ATOM     11  C   UNL     1       9.175  -7.962  -1.500  0.00  0.00    +0.040 A 
ATOM     12  C   UNL     1       8.325  -7.034  -0.923  0.00  0.00    +0.049 A 
ATOM     13 CL   UNL     1       8.815  -5.374  -0.791  0.00  0.00    -0.083 Cl
ATOM     14 CL   UNL     1       9.845 -10.447  -2.338  0.00  0.00    -0.083 Cl
ENDBRANCH   4   7
BRANCH   5  15
ATOM     15  N   UNL     1       5.986  -4.007   0.286  0.00  0.00    -0.263 NA
ATOM     16  H   UNL     1       5.964  -3.148  -0.242  0.00  0.00    +0.137 HD
ATOM     17  H   UNL     1       5.149  -4.112   0.841  0.00  0.00    +0.137 HD
ENDBRANCH   5  15
BRANCH   1  18
ATOM     18  S   UNL     1       4.126  -3.774  -1.713  0.00  0.00    -0.108 S 
BRANCH  18  19
ATOM     19  C   UNL     1       3.053  -4.080  -3.143  0.00  0.00    +0.146 C 
BRANCH  19  28
ATOM     20  C   UNL     1      -0.038   0.929  -4.430  0.00  0.00    +0.002 A 
ATOM     21  C   UNL     1      -0.974   0.349  -3.586  0.00  0.00    +0.002 A 
ATOM     22  C   UNL     1      -0.731  -0.863  -3.004  0.00  0.00    +0.030 A 
ATOM     23  C   UNL     1       0.471  -1.528  -3.257  0.00  0.00    +0.089 A 
ATOM     24  C   UNL     1       1.419  -0.941  -4.112  0.00  0.00    +0.066 A 
ATOM     25  C   UNL     1       1.155   0.291  -4.694  0.00  0.00    +0.028 A 
ATOM     26  N   UNL     1       2.482  -1.821  -4.164  0.00  0.00    -0.341 N 
ATOM     27  H   UNL     1       3.300  -1.705  -4.671  0.00  0.00    +0.167 HD
ATOM     28  C   UNL     1       2.168  -2.882  -3.372  0.00  0.00    +0.118 A 
ATOM     29  N   UNL     1       0.992  -2.711  -2.841  0.00  0.00    -0.232 NA
ENDBRANCH  19  28
ENDBRANCH  18  19
ENDBRANCH   1  18
TORSDOF 5
