REMARK  Name = ZINC43020738
REMARK  9 active torsions:
REMARK  status: ('A' for Active; 'I' for Inactive)
REMARK    1  A    between atoms: C_1  and  C_2
REMARK    2  A    between atoms: C_2  and  C_3
REMARK    3  A    between atoms: C_3  and  C_5
REMARK    4  A    between atoms: C_3  and  N_23
REMARK    5  A    between atoms: C_5  and  C_7
REMARK    6  A    between atoms: C_5  and  N_14
REMARK    7  A    between atoms: N_17  and  C_20
REMARK    8  A    between atoms: C_20  and  C_21
REMARK    9  A    between atoms: C_21  and  O_22
REMARK                            x       y       z     vdW  Elec       q    Type
REMARK                         _______ _______ _______ _____ _____    ______ ____
ROOT
ATOM      1  C   UNL     1       0.980  -2.022   1.235  0.00  0.00    +0.072 C 
ENDROOT
BRANCH   1   2
ATOM      2  C   UNL     1       1.634  -2.478   2.513  0.00  0.00    -0.031 A 
ATOM      3  C   UNL     1       3.000  -2.339   2.679  0.00  0.00    +0.005 A 
ATOM      4  C   UNL     1       3.601  -2.757   3.851  0.00  0.00    +0.001 A 
ATOM      5  C   UNL     1       2.837  -3.315   4.859  0.00  0.00    +0.015 A 
ATOM      6  C   UNL     1       1.471  -3.455   4.694  0.00  0.00    +0.018 A 
ATOM      7  C   UNL     1       0.869  -3.031   3.522  0.00  0.00    +0.020 A 
ATOM      8 BR   UNL     1       0.425  -4.219   6.072  0.00  0.00    -0.050 Br
ENDBRANCH   1   2
BRANCH   1   9
ATOM      9  N   UNL     1       1.833  -2.378   0.093  0.00  0.00    -0.295 NA
ATOM     10  C   UNL     1       1.305  -1.813  -1.156  0.00  0.00    +0.100 C 
ATOM     11  C   UNL     1       2.262  -2.139  -2.305  0.00  0.00    +0.100 C 
ATOM     12  N   UNL     1       2.416  -3.596  -2.413  0.00  0.00    -0.298 NA
ATOM     13  C   UNL     1       2.944  -4.162  -1.164  0.00  0.00    +0.100 C 
ATOM     14  C   UNL     1       1.987  -3.836  -0.015  0.00  0.00    +0.100 C 
BRANCH  12  15
ATOM     15  C   UNL     1       3.269  -3.953  -3.555  0.00  0.00    +0.112 C 
BRANCH  15  16
ATOM     16  C   UNL     1       3.205  -5.463  -3.787  0.00  0.00    +0.171 C 
BRANCH  16  17
ATOM     17  O   UNL     1       1.880  -5.830  -4.177  0.00  0.00    -0.394 OA
ATOM     18  H   UNL     1       1.766  -6.776  -4.342  0.00  0.00    +0.209 HD
ENDBRANCH  16  17
ENDBRANCH  15  16
ENDBRANCH  12  15
ENDBRANCH   1   9
BRANCH   1  19
ATOM     19  C   UNL     1       0.787  -0.505   1.273  0.00  0.00    -0.053 C 
BRANCH  19  20
ATOM     20  N   UNL     1       2.094   0.151   1.414  0.00  0.00    +0.381 N 
ATOM     21  H   UNL     1       2.534  -0.154   2.269  0.00  0.00    -0.090 HD
ATOM     22  H   UNL     1       2.679  -0.094   0.629  0.00  0.00    -0.090 HD
ATOM     23  H   UNL     1       1.967   1.152   1.439  0.00  0.00    -0.090 HD
ENDBRANCH  19  20
BRANCH  19  25
ATOM     24  C   UNL     1      -0.417   1.362   2.416  0.00  0.00    +0.002 C 
ATOM     25  C   UNL     1      -0.100  -0.134   2.463  0.00  0.00    -0.018 C 
ENDBRANCH  19  25
ENDBRANCH   1  19
TORSDOF 8
