REMARK  Name = ZINC39165218
REMARK  2 active torsions:
REMARK  status: ('A' for Active; 'I' for Inactive)
REMARK    1  A    between atoms: C_1  and  C_2
REMARK    2  A    between atoms: C_2  and  C_17
REMARK                            x       y       z     vdW  Elec       q    Type
REMARK                         _______ _______ _______ _____ _____    ______ ____
ROOT
ATOM      1  C   UNL     1      -0.019   1.526   0.010  0.00  0.00    +0.041 C 
ATOM      2  C   UNL     1       0.002  -0.004   0.002  0.00  0.00    +0.069 C 
ATOM      3  C   UNL     1       0.739  -0.503  -1.250  0.00  0.00    +0.077 C 
ATOM      4  C   UNL     1       1.045  -1.962  -1.057  0.00  0.00    -0.004 C 
ATOM      5  C   UNL     1       0.979  -2.637   0.138  0.00  0.00    +0.010 C 
ATOM      6  C   UNL     1       0.556  -1.881   1.401  0.00  0.00    +0.198 C 
ATOM      7  O   UNL     1       0.693  -0.481   1.160  0.00  0.00    -0.369 OA
ATOM      8  C   UNL     1       1.302  -3.974   0.166  0.00  0.00    +0.071 C 
ATOM      9  N   UNL     1       1.552  -4.769   1.206  0.00  0.00    -0.241 NA
ATOM     10  C   UNL     1       2.378  -5.791   1.023  0.00  0.00    +0.211 C 
ATOM     11  N   UNL     1       3.020  -6.005  -0.109  0.00  0.00    -0.168 NA
ATOM     12  C   UNL     1       2.701  -5.378  -1.251  0.00  0.00    +0.257 C 
ATOM     13  O   UNL     1       3.399  -5.458  -2.243  0.00  0.00    -0.272 OA
ATOM     14  C   UNL     1       1.440  -4.572  -1.236  0.00  0.00    +0.187 C 
ATOM     15  S   UNL     1       1.516  -3.052  -2.237  0.00  0.00    -0.110 S 
ATOM     16  C   UNL     1      -1.432  -0.537   0.004  0.00  0.00    +0.041 C 
ENDROOT
TORSDOF 0
