REMARK  Name = ZINC13017286
REMARK  12 active torsions:
REMARK  status: ('A' for Active; 'I' for Inactive)
REMARK    1  A    between atoms: C_1  and  C_2
REMARK    2  A    between atoms: C_2  and  C_4
REMARK    3  A    between atoms: C_2  and  S_16
REMARK    4  A    between atoms: N_6  and  C_7
REMARK    5  A    between atoms: N_6  and  C_8
REMARK    6  A    between atoms: C_8  and  C_14
REMARK    7  A    between atoms: S_16  and  C_17
REMARK    8  A    between atoms: C_20  and  C_25
REMARK    9  A    between atoms: N_21  and  C_22
REMARK   10  A    between atoms: C_22  and  C_23
REMARK   11  A    between atoms: C_28  and  O_31
REMARK   12  A    between atoms: O_31  and  C_32
REMARK                            x       y       z     vdW  Elec       q    Type
REMARK                         _______ _______ _______ _____ _____    ______ ____
ROOT
ATOM      1  C   UNL     1       5.833   2.932   2.415  0.00  0.00    +0.193 A 
ATOM      2  N   UNL     1       6.282   3.381   1.264  0.00  0.00    -0.122 NA
ATOM      3  N   UNL     1       7.475   3.839   1.404  0.00  0.00    -0.128 NA
ATOM      4  C   UNL     1       7.864   3.704   2.651  0.00  0.00    +0.165 A 
ATOM      5  N   UNL     1       6.824   3.119   3.337  0.00  0.00    -0.291 N 
ENDROOT
BRANCH   4   6
ATOM      6  C   UNL     1       9.172   4.104   3.211  0.00  0.00    +0.020 A 
ATOM      7  C   UNL     1       9.964   5.037   2.541  0.00  0.00    +0.015 A 
ATOM      8  C   UNL     1      11.181   5.412   3.070  0.00  0.00    +0.046 A 
ATOM      9  C   UNL     1      11.624   4.854   4.262  0.00  0.00    +0.120 A 
ATOM     10  C   UNL     1      10.841   3.921   4.929  0.00  0.00    +0.046 A 
ATOM     11  C   UNL     1       9.620   3.545   4.410  0.00  0.00    +0.015 A 
BRANCH   9  12
ATOM     12  O   UNL     1      12.826   5.221   4.776  0.00  0.00    -0.495 OA
ATOM     13  C   UNL     1      13.581   6.185   4.039  0.00  0.00    +0.277 C 
ENDBRANCH   9  12
ENDBRANCH   4   6
BRANCH   1  14
ATOM     14  S   UNL     1       4.251   2.217   2.712  0.00  0.00    -0.073 S 
BRANCH  14  16
ATOM     15  C   UNL     1       4.338   1.424   0.100  0.00  0.00    +0.029 C 
ATOM     16  C   UNL     1       3.542   2.320   1.050  0.00  0.00    +0.137 C 
BRANCH  16  17
ATOM     17  C   UNL     1       2.107   1.863   1.087  0.00  0.00    +0.230 C 
ATOM     18  O   UNL     1       1.712   1.177   2.006  0.00  0.00    -0.274 OA
ATOM     19  N   UNL     1       1.261   2.217   0.099  0.00  0.00    -0.285 N 
ATOM     20  C   UNL     1       1.738   3.046  -1.011  0.00  0.00    +0.133 C 
BRANCH  19  21
ATOM     21  C   UNL     1      -0.134   1.772   0.135  0.00  0.00    +0.124 C 
ATOM     22  C   UNL     1      -0.806   2.302   1.403  0.00  0.00    +0.041 C 
ATOM     23  C   UNL     1      -2.264   1.838   1.440  0.00  0.00    +0.003 C 
ATOM     24  C   UNL     1      -3.001   2.373   0.211  0.00  0.00    +0.000 C 
ATOM     25  C   UNL     1      -2.329   1.844  -1.057  0.00  0.00    +0.003 C 
ATOM     26  C   UNL     1      -0.872   2.308  -1.095  0.00  0.00    +0.041 C 
BRANCH  21  27
ATOM     27  C   UNL     1      -0.181   0.301   0.133  0.00  0.00    +0.089 C 
ATOM     28  N   UNL     1      -0.217  -0.834   0.131  0.00  0.00    -0.194 NA
ENDBRANCH  21  27
ENDBRANCH  19  21
ENDBRANCH  16  17
ENDBRANCH  14  16
ENDBRANCH   1  14
BRANCH   5  29
ATOM     29  C   UNL     1       6.788   2.770   4.759  0.00  0.00    +0.250 C 
BRANCH  29  30
ATOM     30  C   UNL     1       7.247   1.345   4.938  0.00  0.00    +0.375 C 
ATOM     31  O   UNL     1       7.570   0.689   3.977  0.00  0.00    -0.244 OA
ATOM     32  O   UNL     1       7.295   0.805   6.166  0.00  0.00    -0.244 OA
ENDBRANCH  29  30
ENDBRANCH   5  29
TORSDOF 9
