REMARK  Name = ZINC54649067
REMARK  9 active torsions:
REMARK  status: ('A' for Active; 'I' for Inactive)
REMARK    1  A    between atoms: C_1  and  N_2
REMARK    2  A    between atoms: N_2  and  C_3
REMARK    3  A    between atoms: N_2  and  C_4
REMARK    4  A    between atoms: C_4  and  C_5
REMARK    5  A    between atoms: C_10  and  C_11
REMARK    6  A    between atoms: C_11  and  N_12
REMARK    7  A    between atoms: N_15  and  C_16
REMARK    8  A    between atoms: C_16  and  C_17
REMARK    9  A    between atoms: N_19  and  C_20
REMARK                            x       y       z     vdW  Elec       q    Type
REMARK                         _______ _______ _______ _____ _____    ______ ____
ROOT
ATOM      1  N   UNL     1      -2.377  -1.988   2.612  0.00  0.00    -0.295 N 
ATOM      2  C   UNL     1      -2.419  -1.389   3.819  0.00  0.00    +0.300 C 
ATOM      3  O   UNL     1      -1.407  -1.294   4.486  0.00  0.00    -0.253 OA
ATOM      4  N   UNL     1      -3.583  -0.896   4.286  0.00  0.00    -0.291 N 
ATOM      5  H   UNL     1      -3.184  -2.063   2.079  0.00  0.00    +0.151 HD
ATOM      6  H   UNL     1      -4.390  -0.972   3.753  0.00  0.00    +0.151 HD
ENDROOT
BRANCH   1   7
ATOM      7  C   UNL     1      -1.111  -2.523   2.104  0.00  0.00    +0.141 C 
BRANCH   7  13
ATOM      8  C   UNL     1      -1.259  -2.123  -0.362  0.00  0.00    -0.059 A 
ATOM      9  C   UNL     1      -1.430  -2.575  -1.657  0.00  0.00    +0.002 A 
ATOM     10  C   UNL     1      -1.652  -3.918  -1.897  0.00  0.00    +0.000 A 
ATOM     11  C   UNL     1      -1.702  -4.809  -0.842  0.00  0.00    +0.000 A 
ATOM     12  C   UNL     1      -1.530  -4.358   0.453  0.00  0.00    +0.005 A 
ATOM     13  C   UNL     1      -1.304  -3.015   0.693  0.00  0.00    -0.029 A 
BRANCH   8  14
ATOM     14  C   UNL     1      -1.017  -0.659  -0.100  0.00  0.00    -0.043 C 
BRANCH  14  16
ATOM     15  C   UNL     1      -2.011   1.368   0.710  0.00  0.00    -0.096 C 
ATOM     16  N   UNL     1      -2.275  -0.021   0.312  0.00  0.00    +0.379 N 
ATOM     17  C   UNL     1      -3.223  -0.037  -0.810  0.00  0.00    -0.096 C 
ATOM     18  H   UNL     1      -2.668  -0.526   1.092  0.00  0.00    -0.082 HD
ENDBRANCH  14  16
ENDBRANCH   8  14
ENDBRANCH   7  13
ENDBRANCH   1   7
BRANCH   4  19
ATOM     19  C   UNL     1      -3.630  -0.245   5.598  0.00  0.00    +0.202 C 
BRANCH  19  20
ATOM     20  C   UNL     1      -5.037   0.214   5.881  0.00  0.00    +0.234 C 
ATOM     21  O   UNL     1      -5.914   0.017   5.068  0.00  0.00    -0.274 OA
ATOM     22  N   UNL     1      -5.319   0.843   7.039  0.00  0.00    -0.284 N 
ATOM     23  H   UNL     1      -4.605   1.069   7.655  0.00  0.00    +0.155 HD
BRANCH  22  24
ATOM     24  C   UNL     1      -6.644   1.170   7.353  0.00  0.00    +0.034 A 
ATOM     25  C   UNL     1      -6.925   2.331   8.060  0.00  0.00    +0.025 A 
ATOM     26  C   UNL     1      -8.233   2.651   8.368  0.00  0.00    +0.022 A 
ATOM     27  C   UNL     1      -9.263   1.816   7.972  0.00  0.00    +0.041 A 
ATOM     28  C   UNL     1      -8.985   0.658   7.267  0.00  0.00    +0.022 A 
ATOM     29  C   UNL     1      -7.680   0.336   6.952  0.00  0.00    +0.025 A 
ATOM     30 CL   UNL     1     -10.905   2.221   8.361  0.00  0.00    -0.084 Cl
ENDBRANCH  22  24
ENDBRANCH  19  20
ENDBRANCH   4  19
TORSDOF 7
