REMARK  Name = ZINC16434565
REMARK  22 active torsions:
REMARK  status: ('A' for Active; 'I' for Inactive)
REMARK    1  A    between atoms: C_1  and  C_2
REMARK    2  A    between atoms: C_2  and  C_3
REMARK    3  A    between atoms: C_3  and  C_4
REMARK    4  A    between atoms: C_4  and  N_5
REMARK    5  A    between atoms: N_5  and  C_6
REMARK    6  A    between atoms: C_6  and  C_7
REMARK    7  A    between atoms: N_9  and  C_10
REMARK    8  A    between atoms: C_12  and  C_19
REMARK    9  A    between atoms: N_14  and  C_15
REMARK   10  A    between atoms: C_15  and  C_16
REMARK   11  A    between atoms: C_15  and  C_17
REMARK   12  A    between atoms: C_15  and  C_18
REMARK   13  A    between atoms: C_19  and  C_20
REMARK   14  A    between atoms: C_19  and  C_21
REMARK   15  A    between atoms: C_19  and  C_22
REMARK   16  A    between atoms: N_25  and  C_26
REMARK   17  A    between atoms: C_27  and  C_35
REMARK   18  A    between atoms: C_31  and  C_32
REMARK   19  A    between atoms: C_32  and  C_33
REMARK   20  A    between atoms: C_32  and  C_34
REMARK   21  A    between atoms: C_35  and  C_36
REMARK   22  A    between atoms: C_35  and  C_37
REMARK                            x       y       z     vdW  Elec       q    Type
REMARK                         _______ _______ _______ _____ _____    ______ ____
ROOT
ATOM      1  N   UNL     1       3.035   1.388   0.118  0.00  0.00    -0.277 N 
ATOM      2  C   UNL     1       3.570   0.950  -1.039  0.00  0.00    +0.307 C 
ATOM      3  O   UNL     1       3.767   1.730  -1.950  0.00  0.00    -0.252 OA
ATOM      4  N   UNL     1       3.885  -0.352  -1.185  0.00  0.00    -0.269 N 
ATOM      5  H   UNL     1       3.772  -0.965  -0.442  0.00  0.00    +0.156 HD
ENDROOT
BRANCH   4   6
ATOM      6  C   UNL     1       4.376  -0.820  -2.409  0.00  0.00    +0.042 A 
ATOM      7  C   UNL     1       3.674  -0.571  -3.581  0.00  0.00    -0.023 A 
ATOM      8  C   UNL     1       4.164  -1.030  -4.789  0.00  0.00    +0.006 A 
ATOM      9  C   UNL     1       5.347  -1.745  -4.830  0.00  0.00    +0.001 A 
ATOM     10  C   UNL     1       6.046  -1.998  -3.663  0.00  0.00    +0.006 A 
ATOM     11  C   UNL     1       5.564  -1.538  -2.454  0.00  0.00    -0.023 A 
BRANCH  11  12
ATOM     12  C   UNL     1       6.326  -1.815  -1.183  0.00  0.00    +0.015 C 
ATOM     13  C   UNL     1       6.447  -3.327  -0.982  0.00  0.00    +0.012 C 
ATOM     14  C   UNL     1       7.723  -1.200  -1.282  0.00  0.00    +0.012 C 
ENDBRANCH  11  12
BRANCH   7  15
ATOM     15  C   UNL     1       2.382   0.203  -3.537  0.00  0.00    +0.015 C 
ATOM     16  C   UNL     1       2.442   1.354  -4.543  0.00  0.00    +0.012 C 
ATOM     17  C   UNL     1       1.219  -0.725  -3.893  0.00  0.00    +0.012 C 
ENDBRANCH   7  15
ENDBRANCH   4   6
BRANCH   1  18
ATOM     18  C   UNL     1       2.797   0.448   1.217  0.00  0.00    +0.110 C 
BRANCH  18  19
ATOM     19  C   UNL     1       1.391  -0.142   1.088  0.00  0.00    +0.019 C 
BRANCH  19  21
ATOM     20  C   UNL     1      -0.264  -1.713   2.106  0.00  0.00    +0.004 C 
ATOM     21  C   UNL     1       1.142  -1.123   2.235  0.00  0.00    -0.002 C 
ENDBRANCH  19  21
ENDBRANCH  18  19
ENDBRANCH   1  18
BRANCH   1  22
ATOM     22  C   UNL     1       2.692   2.803   0.278  0.00  0.00    +0.205 C 
BRANCH  22  23
ATOM     23  C   UNL     1       1.272   3.030  -0.172  0.00  0.00    +0.236 C 
ATOM     24  O   UNL     1       0.611   2.100  -0.585  0.00  0.00    -0.274 OA
ATOM     25  N   UNL     1       0.737   4.266  -0.120  0.00  0.00    -0.269 N 
ATOM     26  H   UNL     1       1.266   5.009   0.210  0.00  0.00    +0.156 HD
BRANCH  25  27
ATOM     27  C   UNL     1      -0.575   4.476  -0.542  0.00  0.00    +0.124 A 
ATOM     28  C   UNL     1      -1.427   3.530  -1.024  0.00  0.00    +0.069 A 
ATOM     29  C   UNL     1      -2.637   4.159  -1.329  0.00  0.00    +0.070 A 
ATOM     30  N   UNL     1      -2.523   5.431  -1.043  0.00  0.00    -0.174 NA
ATOM     31  N   UNL     1      -1.236   5.657  -0.540  0.00  0.00    -0.245 N 
BRANCH  31  32
ATOM     32  C   UNL     1      -0.699   6.944  -0.093  0.00  0.00    +0.057 C 
ATOM     33  C   UNL     1       0.526   7.306  -0.936  0.00  0.00    +0.036 C 
ATOM     34  C   UNL     1      -1.768   8.027  -0.255  0.00  0.00    +0.036 C 
ATOM     35  C   UNL     1      -0.293   6.845   1.379  0.00  0.00    +0.036 C 
ENDBRANCH  31  32
BRANCH  29  36
ATOM     36  C   UNL     1      -3.863   3.487  -1.891  0.00  0.00    +0.006 C 
ATOM     37  C   UNL     1      -4.554   2.682  -0.788  0.00  0.00    +0.017 C 
ATOM     38  C   UNL     1      -4.826   4.549  -2.426  0.00  0.00    +0.017 C 
ATOM     39  C   UNL     1      -3.455   2.549  -3.028  0.00  0.00    +0.017 C 
ENDBRANCH  29  36
ENDBRANCH  25  27
ENDBRANCH  22  23
ENDBRANCH   1  22
TORSDOF 11
