REMARK  Name = ZINC56604216
REMARK  9 active torsions:
REMARK  status: ('A' for Active; 'I' for Inactive)
REMARK    1  A    between atoms: C_1  and  N_2
REMARK    2  A    between atoms: N_2  and  C_3
REMARK    3  A    between atoms: N_2  and  C_4
REMARK    4  A    between atoms: C_4  and  C_5
REMARK    5  A    between atoms: C_5  and  C_6
REMARK    6  A    between atoms: N_14  and  C_15
REMARK    7  A    between atoms: C_20  and  S_21
REMARK    8  A    between atoms: S_21  and  C_22
REMARK    9  A    between atoms: C_22  and  C_23
REMARK                            x       y       z     vdW  Elec       q    Type
REMARK                         _______ _______ _______ _____ _____    ______ ____
ROOT
ATOM      1  C   UNL     1      -3.373  -0.498  -1.552  0.00  0.00    -0.010 C 
ATOM      2  C   UNL     1      -3.176  -2.002  -1.749  0.00  0.00    +0.022 C 
ATOM      3  C   UNL     1      -4.523  -2.715  -1.595  0.00  0.00    +0.109 C 
ATOM      4  N   UNL     1      -5.488  -2.107  -2.521  0.00  0.00    -0.285 N 
ATOM      5  C   UNL     1      -5.688  -0.652  -2.478  0.00  0.00    +0.109 C 
ATOM      6  C   UNL     1      -4.328   0.038  -2.622  0.00  0.00    +0.022 C 
ATOM      7  C   UNL     1      -6.177  -2.869  -3.393  0.00  0.00    +0.306 C 
ATOM      8  O   UNL     1      -5.936  -4.057  -3.484  0.00  0.00    -0.252 OA
ATOM      9  N   UNL     1      -7.133  -2.314  -4.165  0.00  0.00    -0.268 N 
ATOM     10  H   UNL     1      -7.281  -1.355  -4.139  0.00  0.00    +0.156 HD
ENDROOT
BRANCH   9  11
ATOM     11  C   UNL     1      -7.913  -3.122  -5.003  0.00  0.00    +0.048 A 
ATOM     12  C   UNL     1      -7.977  -4.490  -4.788  0.00  0.00    +0.024 A 
ATOM     13  C   UNL     1      -8.747  -5.285  -5.617  0.00  0.00    +0.002 A 
ATOM     14  C   UNL     1      -9.455  -4.720  -6.662  0.00  0.00    +0.001 A 
ATOM     15  C   UNL     1      -9.398  -3.357  -6.884  0.00  0.00    +0.016 A 
ATOM     16  C   UNL     1      -8.632  -2.550  -6.054  0.00  0.00    +0.030 A 
BRANCH  16  17
ATOM     17  S   UNL     1      -8.563  -0.811  -6.329  0.00  0.00    -0.114 S 
BRANCH  17  18
ATOM     18  C   UNL     1      -9.635  -0.552  -7.770  0.00  0.00    +0.169 C 
BRANCH  18  19
ATOM     19  C   UNL     1      -9.665   0.914  -8.116  0.00  0.00    +0.221 C 
ATOM     20  O   UNL     1      -9.026   1.706  -7.457  0.00  0.00    -0.275 OA
ATOM     21  N   UNL     1     -10.401   1.345  -9.159  0.00  0.00    -0.329 N 
ATOM     22  H   UNL     1     -10.912   0.711  -9.687  0.00  0.00    +0.145 HD
ATOM     23  H   UNL     1     -10.421   2.289  -9.383  0.00  0.00    +0.145 HD
ENDBRANCH  18  19
ENDBRANCH  17  18
ENDBRANCH  16  17
ENDBRANCH   9  11
BRANCH   1  24
ATOM     24  C   UNL     1      -2.024   0.213  -1.672  0.00  0.00    -0.015 C 
BRANCH  24  25
ATOM     25  C   UNL     1      -1.111  -0.230  -0.527  0.00  0.00    -0.079 C 
BRANCH  25  27
ATOM     26  C   UNL     1      -0.004   1.897  -0.451  0.00  0.00    -0.097 C 
ATOM     27  N   UNL     1       0.185   0.453  -0.642  0.00  0.00    +0.376 N 
ATOM     28  C   UNL     1       1.102  -0.061   0.385  0.00  0.00    -0.097 C 
ATOM     29  H   UNL     1       0.575   0.282  -1.556  0.00  0.00    -0.083 HD
ENDBRANCH  25  27
ENDBRANCH  24  25
ENDBRANCH   1  24
TORSDOF 7
