REMARK  Name = ZINC50362264
REMARK  8 active torsions:
REMARK  status: ('A' for Active; 'I' for Inactive)
REMARK    1  A    between atoms: C_1  and  N_2
REMARK    2  A    between atoms: N_2  and  C_3
REMARK    3  A    between atoms: N_2  and  C_4
REMARK    4  A    between atoms: C_4  and  C_5
REMARK    5  A    between atoms: N_8  and  C_11
REMARK    6  A    between atoms: C_11  and  C_13
REMARK    7  A    between atoms: C_11  and  C_15
REMARK    8  A    between atoms: C_13  and  N_14
REMARK                            x       y       z     vdW  Elec       q    Type
REMARK                         _______ _______ _______ _____ _____    ______ ____
ROOT
ATOM      1  C   UNL     1      -2.414  -5.979  -1.832  0.00  0.00    +0.105 C 
ENDROOT
BRANCH   1   2
ATOM      2  C   UNL     1      -1.481  -6.821  -1.001  0.00  0.00    +0.123 A 
ATOM      3  C   UNL     1      -1.726  -8.069  -0.565  0.00  0.00    +0.062 A 
ATOM      4  C   UNL     1      -0.590  -8.477   0.171  0.00  0.00    +0.070 A 
ATOM      5  C   UNL     1       0.283  -7.452   0.142  0.00  0.00    +0.184 A 
ATOM      6  O   UNL     1      -0.261  -6.453  -0.574  0.00  0.00    -0.450 OA
ATOM      7 BR   UNL     1       1.986  -7.425   0.962  0.00  0.00    -0.007 Br
ATOM      8 BR   UNL     1      -0.343 -10.143   1.033  0.00  0.00    -0.046 Br
ENDBRANCH   1   2
BRANCH   1  12
ATOM      9  C   UNL     1      -2.017  -2.540   0.678  0.00  0.00    -0.025 C 
ATOM     10  C   UNL     1      -1.383  -2.533  -0.715  0.00  0.00    +0.017 C 
ATOM     11  C   UNL     1      -1.212  -3.975  -1.199  0.00  0.00    +0.085 C 
ATOM     12  N   UNL     1      -2.521  -4.638  -1.241  0.00  0.00    -0.294 NA
ATOM     13  C   UNL     1      -3.129  -4.698   0.095  0.00  0.00    +0.085 C 
ATOM     14  C   UNL     1      -3.357  -3.278   0.617  0.00  0.00    +0.017 C 
BRANCH   9  15
ATOM     15  C   UNL     1      -2.248  -1.100   1.142  0.00  0.00    -0.076 C 
BRANCH  15  17
ATOM     16  C   UNL     1      -1.175   0.986   1.645  0.00  0.00    -0.097 C 
ATOM     17  N   UNL     1      -0.953  -0.429   1.315  0.00  0.00    +0.376 N 
ATOM     18  C   UNL     1      -0.208  -1.074   2.405  0.00  0.00    -0.097 C 
ATOM     19  H   UNL     1      -0.422  -0.496   0.460  0.00  0.00    -0.083 HD
ENDBRANCH  15  17
ENDBRANCH   9  15
ENDBRANCH   1  12
BRANCH   1  20
ATOM     20  C   UNL     1      -1.867  -5.866  -3.256  0.00  0.00    -0.059 C 
BRANCH  20  21
ATOM     21  N   UNL     1      -2.732  -4.976  -4.044  0.00  0.00    +0.379 N 
ATOM     22  H   UNL     1      -3.672  -5.343  -4.053  0.00  0.00    -0.090 HD
ATOM     23  H   UNL     1      -2.733  -4.056  -3.630  0.00  0.00    -0.090 HD
ATOM     24  H   UNL     1      -2.384  -4.920  -4.989  0.00  0.00    -0.090 HD
ENDBRANCH  20  21
ENDBRANCH   1  20
TORSDOF 6
