REMARK  Name = ZINC36161501
REMARK  6 active torsions:
REMARK  status: ('A' for Active; 'I' for Inactive)
REMARK    1  A    between atoms: C_1  and  C_2
REMARK    2  A    between atoms: C_2  and  C_3
REMARK    3  A    between atoms: C_2  and  C_4
REMARK    4  A    between atoms: C_2  and  C_5
REMARK    5  A    between atoms: C_9  and  C_22
REMARK    6  A    between atoms: C_11  and  N_14
REMARK                            x       y       z     vdW  Elec       q    Type
REMARK                         _______ _______ _______ _____ _____    ______ ____
ROOT
ATOM      1  C   UNL     1       0.725  -0.515  -1.247  0.00  0.00    -0.004 C 
ATOM      2  C   UNL     1       0.745  -2.044  -1.276  0.00  0.00    +0.005 C 
ATOM      3  C   UNL     1       1.455  -2.521  -2.545  0.00  0.00    +0.020 C 
ATOM      4  C   UNL     1       2.890  -1.991  -2.556  0.00  0.00    +0.109 C 
ATOM      5  C   UNL     1       2.870  -0.461  -2.526  0.00  0.00    +0.074 C 
ATOM      6  C   UNL     1       2.160   0.015  -1.258  0.00  0.00    +0.024 C 
ENDROOT
BRANCH   5   7
ATOM      7  N   UNL     1       4.248   0.047  -2.537  0.00  0.00    -0.295 NA
ATOM      8  C   UNL     1       4.959  -0.339  -1.316  0.00  0.00    +0.107 C 
ATOM      9  C   UNL     1       6.470  -0.195  -1.526  0.00  0.00    +0.181 C 
ATOM     10  S   UNL     1       6.843   1.553  -1.863  0.00  0.00    -0.029 S 
ATOM     11  O   UNL     1       8.165   1.644  -2.375  0.00  0.00    -0.174 OA
ATOM     12  O   UNL     1       6.487   2.321  -0.721  0.00  0.00    -0.174 OA
ATOM     13  C   UNL     1       5.674   1.928  -3.206  0.00  0.00    +0.181 C 
ATOM     14  C   UNL     1       4.272   1.494  -2.767  0.00  0.00    +0.107 C 
ENDBRANCH   5   7
BRANCH   1  16
ATOM     15  C   UNL     1      -0.006   1.491   0.052  0.00  0.00    +0.011 C 
ATOM     16  C   UNL     1       0.015  -0.038   0.022  0.00  0.00    -0.035 C 
ATOM     17  C   UNL     1       0.761  -0.562   1.251  0.00  0.00    +0.011 C 
ATOM     18  C   UNL     1      -1.421  -0.568   0.033  0.00  0.00    +0.011 C 
ENDBRANCH   1  16
BRANCH   4  19
ATOM     19  C   UNL     1       3.573  -2.449  -3.777  0.00  0.00    +0.067 C 
ATOM     20  N   UNL     1       4.100  -2.803  -4.719  0.00  0.00    -0.196 NA
ENDBRANCH   4  19
TORSDOF 3
