REMARK  Name = ZINC58280985
REMARK  6 active torsions:
REMARK  status: ('A' for Active; 'I' for Inactive)
REMARK    1  A    between atoms: C_1  and  C_2
REMARK    2  A    between atoms: C_7  and  C_8
REMARK    3  A    between atoms: N_10  and  C_11
REMARK    4  A    between atoms: C_11  and  C_13
REMARK    5  A    between atoms: C_11  and  C_14
REMARK    6  A    between atoms: C_18  and  C_20
REMARK                            x       y       z     vdW  Elec       q    Type
REMARK                         _______ _______ _______ _____ _____    ______ ____
ROOT
ATOM      1  C   UNL     1       0.032  -0.391   2.496  0.00  0.00    +0.261 C 
ATOM      2  O   UNL     1       0.019   0.795   2.765  0.00  0.00    -0.269 OA
ATOM      3  N   UNL     1       0.055  -1.306   3.486  0.00  0.00    -0.301 N 
ATOM      4  H   UNL     1       0.065  -2.252   3.271  0.00  0.00    +0.150 HD
ENDROOT
BRANCH   1  11
ATOM      5  C   UNL     1      -0.018   1.503   0.010  0.00  0.00    +0.047 C 
ATOM      6  C   UNL     1       0.002  -0.004   0.002  0.00  0.00    -0.010 A 
ATOM      7  C   UNL     1       0.008  -0.834  -1.125  0.00  0.00    +0.042 A 
ATOM      8  C   UNL     1       0.026  -2.155  -0.678  0.00  0.00    +0.027 A 
ATOM      9  N   UNL     1       0.034  -2.137   0.655  0.00  0.00    -0.354 N 
ATOM     10  H   UNL     1       0.048  -2.920   1.227  0.00  0.00    +0.166 HD
ATOM     11  C   UNL     1       0.024  -0.827   1.094  0.00  0.00    +0.106 A 
ATOM     12  C   UNL     1       0.031  -3.337  -1.615  0.00  0.00    +0.054 C 
ATOM     13  C   UNL     1      -0.488  -2.895  -2.987  0.00  0.00    +0.014 C 
ATOM     14  C   UNL     1       0.287  -1.674  -3.491  0.00  0.00    +0.080 C 
ATOM     15  C   UNL     1       0.002  -0.505  -2.559  0.00  0.00    +0.165 C 
ATOM     16  O   UNL     1      -0.215   0.616  -2.969  0.00  0.00    -0.292 OA
ENDBRANCH   1  11
BRANCH   3  17
ATOM     17  C   UNL     1       0.063  -0.872   4.885  0.00  0.00    +0.134 C 
ATOM     18  C   UNL     1      -1.373  -0.620   5.349  0.00  0.00    +0.036 C 
BRANCH  17  19
ATOM     19  C   UNL     1       0.686  -1.944   5.740  0.00  0.00    +0.105 A 
ATOM     20  N   UNL     1       0.655  -3.270   5.482  0.00  0.00    -0.348 N 
ATOM     21  H   UNL     1       0.232  -3.697   4.721  0.00  0.00    +0.167 HD
ATOM     22  C   UNL     1       1.330  -3.899   6.491  0.00  0.00    +0.110 A 
ATOM     23  C   UNL     1       1.756  -2.928   7.340  0.00  0.00    +0.064 A 
ATOM     24  N   UNL     1       1.348  -1.742   6.845  0.00  0.00    -0.342 N 
ATOM     25  H   UNL     1       1.518  -0.876   7.248  0.00  0.00    +0.167 HD
BRANCH  23  26
ATOM     26  C   UNL     1       2.535  -3.135   8.586  0.00  0.00    -0.000 A 
ATOM     27  C   UNL     1       2.903  -2.044   9.370  0.00  0.00    +0.010 A 
ATOM     28  C   UNL     1       3.628  -2.242  10.528  0.00  0.00    +0.001 A 
ATOM     29  C   UNL     1       3.990  -3.521  10.909  0.00  0.00    +0.000 A 
ATOM     30  C   UNL     1       3.628  -4.608  10.134  0.00  0.00    +0.001 A 
ATOM     31  C   UNL     1       2.897  -4.422   8.979  0.00  0.00    +0.010 A 
ENDBRANCH  23  26
ENDBRANCH  17  19
ENDBRANCH   3  17
TORSDOF 4
