REMARK  Name = ZINC39691513
REMARK  9 active torsions:
REMARK  status: ('A' for Active; 'I' for Inactive)
REMARK    1  A    between atoms: C_1  and  C_2
REMARK    2  A    between atoms: C_2  and  O_3
REMARK    3  A    between atoms: O_3  and  C_4
REMARK    4  A    between atoms: C_9  and  N_10
REMARK    5  A    between atoms: C_14  and  S_16
REMARK    6  A    between atoms: S_16  and  C_17
REMARK    7  A    between atoms: C_17  and  C_18
REMARK    8  A    between atoms: C_25  and  C_32
REMARK    9  A    between atoms: C_26  and  C_29
REMARK                            x       y       z     vdW  Elec       q    Type
REMARK                         _______ _______ _______ _____ _____    ______ ____
ROOT
ATOM      1  N   UNL     1       2.302  -1.488  -3.183  0.00  0.00    -0.289 N 
ATOM      2  C   UNL     1       2.976  -1.998  -4.287  0.00  0.00    +0.187 A 
ATOM      3  N   UNL     1       2.996  -3.230  -4.758  0.00  0.00    -0.125 NA
ATOM      4  N   UNL     1       3.739  -3.523  -5.878  0.00  0.00    -0.133 NA
ATOM      5  C   UNL     1       4.428  -2.569  -6.476  0.00  0.00    +0.160 A 
ATOM      6  S   UNL     1       4.040  -1.159  -5.451  0.00  0.00    -0.024 S 
ATOM      7  H   UNL     1       2.320  -0.536  -3.001  0.00  0.00    +0.154 HD
ENDROOT
BRANCH   1  13
ATOM      8  C   UNL     1       1.049  -1.866  -1.148  0.00  0.00    +0.142 A 
ATOM      9  C   UNL     1       0.347  -2.722  -0.314  0.00  0.00    +0.047 A 
ATOM     10  C   UNL     1       0.196  -4.053  -0.658  0.00  0.00    +0.004 A 
ATOM     11  C   UNL     1       0.744  -4.534  -1.833  0.00  0.00    +0.002 A 
ATOM     12  C   UNL     1       1.445  -3.687  -2.670  0.00  0.00    +0.027 A 
ATOM     13  C   UNL     1       1.597  -2.349  -2.334  0.00  0.00    +0.075 A 
BRANCH   8  14
ATOM     14  O   UNL     1       1.199  -0.557  -0.811  0.00  0.00    -0.490 OA
BRANCH  14  16
ATOM     15  C   UNL     1       0.881   1.359   0.628  0.00  0.00    +0.048 C 
ATOM     16  C   UNL     1       0.611  -0.133   0.421  0.00  0.00    +0.226 C 
ENDBRANCH  14  16
ENDBRANCH   8  14
ENDBRANCH   1  13
BRANCH   5  17
ATOM     17  S   UNL     1       5.452  -2.662  -7.907  0.00  0.00    -0.092 S 
BRANCH  17  18
ATOM     18  C   UNL     1       5.356  -4.404  -8.404  0.00  0.00    +0.112 C 
BRANCH  18  19
ATOM     19  C   UNL     1       6.199  -4.622  -9.633  0.00  0.00    -0.023 C 
ATOM     20  C   UNL     1       7.446  -5.120  -9.530  0.00  0.00    +0.074 C 
ATOM     21  C   UNL     1       8.262  -5.332 -10.723  0.00  0.00    +0.261 C 
ATOM     22  O   UNL     1       9.390  -5.785 -10.609  0.00  0.00    -0.269 OA
ATOM     23  N   UNL     1       7.788  -5.037 -11.938  0.00  0.00    -0.170 NA
ATOM     24  C   UNL     1       6.588  -4.551 -12.113  0.00  0.00    +0.098 C 
ATOM     25  C   UNL     1       5.667  -4.298 -10.985  0.00  0.00    +0.009 C 
ATOM     26  C   UNL     1       4.449  -3.800 -11.276  0.00  0.00    -0.039 C 
ATOM     27  C   UNL     1       4.120  -3.545 -12.727  0.00  0.00    +0.192 C 
ATOM     28  S   UNL     1       5.675  -4.063 -13.559  0.00  0.00    -0.088 S 
ATOM     29  C   UNL     1       3.448  -3.507 -10.188  0.00  0.00    +0.041 C 
BRANCH  27  30
ATOM     30  C   UNL     1       2.953  -4.389 -13.172  0.00  0.00    +0.373 C 
ATOM     31  O   UNL     1       2.059  -3.892 -13.835  0.00  0.00    -0.245 OA
ATOM     32  O   UNL     1       2.904  -5.569 -12.870  0.00  0.00    -0.245 OA
ENDBRANCH  27  30
ENDBRANCH  18  19
ENDBRANCH  17  18
ENDBRANCH   5  17
TORSDOF 7
