REMARK  Name = ZINC08342428
REMARK  3 active torsions:
REMARK  status: ('A' for Active; 'I' for Inactive)
REMARK    1  A    between atoms: C_9  and  S_11
REMARK    2  A    between atoms: S_11  and  N_14
REMARK    3  A    between atoms: C_18  and  C_20
REMARK                            x       y       z     vdW  Elec       q    Type
REMARK                         _______ _______ _______ _____ _____    ______ ____
ROOT
ATOM      1  N   UNL     1       0.864   5.644  -5.182  0.00  0.00    -0.170 NA
ATOM      2  C   UNL     1       1.937   6.646  -5.319  0.00  0.00    +0.110 C 
ATOM      3  C   UNL     1       3.253   5.831  -5.238  0.00  0.00    +0.019 C 
ATOM      4  C   UNL     1       2.889   4.756  -4.180  0.00  0.00    +0.027 C 
ATOM      5  C   UNL     1       1.400   4.473  -4.473  0.00  0.00    +0.110 C 
ENDROOT
BRANCH   5   6
ATOM      6  C   UNL     1       0.653   4.270  -3.180  0.00  0.00    -0.025 A 
ATOM      7  C   UNL     1       0.297   5.363  -2.412  0.00  0.00    +0.009 A 
ATOM      8  C   UNL     1      -0.389   5.184  -1.223  0.00  0.00    +0.050 A 
ATOM      9  C   UNL     1      -0.719   3.906  -0.807  0.00  0.00    +0.162 A 
ATOM     10  C   UNL     1      -0.362   2.809  -1.579  0.00  0.00    +0.162 A 
ATOM     11  C   UNL     1       0.326   2.991  -2.767  0.00  0.00    +0.054 A 
ATOM     12  O   UNL     1      -0.692   1.553  -1.159  0.00  0.00    -0.488 OA
ATOM     13  C   UNL     1      -0.013   1.086   0.008  0.00  0.00    +0.232 C 
ATOM     14  C   UNL     1      -0.712   1.570   1.269  0.00  0.00    +0.082 C 
ATOM     15  C   UNL     1      -0.662   3.083   1.413  0.00  0.00    +0.232 C 
ATOM     16  O   UNL     1      -1.395   3.716   0.363  0.00  0.00    -0.488 OA
ENDBRANCH   5   6
BRANCH   1  17
ATOM     17  S   UNL     1      -0.688   5.811  -5.735  0.00  0.00    +0.058 S 
ATOM     18  O   UNL     1      -0.643   6.759  -6.792  0.00  0.00    -0.153 OA
ATOM     19  O   UNL     1      -1.200   4.497  -5.910  0.00  0.00    -0.153 OA
BRANCH  17  28
ATOM     20  C   UNL     1      -4.745   7.620  -0.658  0.00  0.00    +0.000 A 
ATOM     21  C   UNL     1      -4.617   6.243  -0.689  0.00  0.00    +0.001 A 
ATOM     22  C   UNL     1      -3.888   5.636  -1.692  0.00  0.00    +0.008 A 
ATOM     23  C   UNL     1      -3.282   6.419  -2.673  0.00  0.00    -0.020 A 
ATOM     24  C   UNL     1      -3.426   7.806  -2.644  0.00  0.00    -0.040 A 
ATOM     25  C   UNL     1      -4.152   8.401  -1.635  0.00  0.00    +0.004 A 
ATOM     26  C   UNL     1      -2.787   8.639  -3.724  0.00  0.00    +0.042 C 
ATOM     27  C   UNL     1      -1.459   8.014  -4.147  0.00  0.00    +0.061 C 
ATOM     28  C   UNL     1      -1.626   6.548  -4.438  0.00  0.00    +0.084 C 
ATOM     29  C   UNL     1      -2.469   5.802  -3.741  0.00  0.00    +0.032 C 
ENDBRANCH  17  28
ENDBRANCH   1  17
TORSDOF 3
