REMARK  Name = ZINC13212642
REMARK  13 active torsions:
REMARK  status: ('A' for Active; 'I' for Inactive)
REMARK    1  A    between atoms: C_1  and  N_59
REMARK    2  A    between atoms: C_2  and  C_3
REMARK    3  A    between atoms: C_2  and  N_59
REMARK    4  A    between atoms: C_3  and  C_4
REMARK    5  A    between atoms: C_4  and  N_5
REMARK    6  A    between atoms: N_5  and  C_6
REMARK    7  A    between atoms: C_9  and  S_15
REMARK    8  A    between atoms: C_11  and  N_12
REMARK    9  A    between atoms: S_15  and  N_18
REMARK   10  A    between atoms: N_18  and  C_19
REMARK   11  A    between atoms: C_22  and  C_25
REMARK   12  A    between atoms: C_27  and  C_28
REMARK   13  A    between atoms: C_27  and  N_59
REMARK                            x       y       z     vdW  Elec       q    Type
REMARK                         _______ _______ _______ _____ _____    ______ ____
ROOT
ATOM      1  C   UNL     1      -0.666   3.703   0.613  0.00  0.00    +0.058 A 
ATOM      2  C   UNL     1       0.602   4.265   0.524  0.00  0.00    +0.027 A 
ATOM      3  C   UNL     1       1.702   3.454   0.330  0.00  0.00    +0.031 A 
ATOM      4  C   UNL     1       1.544   2.084   0.225  0.00  0.00    +0.111 A 
ATOM      5  C   UNL     1       0.284   1.522   0.313  0.00  0.00    +0.063 A 
ATOM      6  C   UNL     1      -0.822   2.328   0.501  0.00  0.00    +0.149 A 
ENDROOT
BRANCH   6   7
ATOM      7  N   UNL     1      -2.171   1.726   0.589  0.00  0.00    +0.058 N 
ATOM      8  O   UNL     1      -2.297   0.514   0.606  0.00  0.00    -0.126 OA
ATOM      9  O   UNL     1      -3.155   2.441   0.644  0.00  0.00    -0.126 OA
ENDBRANCH   6   7
BRANCH   4  10
ATOM     10  S   UNL     1       2.952   1.053  -0.022  0.00  0.00    +0.072 S 
ATOM     11  O   UNL     1       4.087   1.816   0.364  0.00  0.00    -0.150 OA
ATOM     12  O   UNL     1       2.643  -0.203   0.566  0.00  0.00    -0.150 OA
BRANCH  10  13
ATOM     13  N   UNL     1       3.088   0.793  -1.652  0.00  0.00    -0.216 N 
ATOM     14  H   UNL     1       2.994  -0.104  -2.009  0.00  0.00    +0.174 HD
BRANCH  13  15
ATOM     15  C   UNL     1       3.337   1.859  -2.507  0.00  0.00    +0.048 A 
ATOM     16  C   UNL     1       2.318   2.351  -3.320  0.00  0.00    +0.025 A 
ATOM     17  C   UNL     1       2.559   3.406  -4.162  0.00  0.00    +0.017 A 
ATOM     18  C   UNL     1       3.833   3.982  -4.212  0.00  0.00    +0.063 A 
ATOM     19  C   UNL     1       4.855   3.482  -3.398  0.00  0.00    +0.017 A 
ATOM     20  C   UNL     1       4.606   2.430  -2.555  0.00  0.00    +0.025 A 
BRANCH  18  21
ATOM     21  C   UNL     1       4.097   5.113  -5.119  0.00  0.00    +0.387 C 
ATOM     22  O   UNL     1       5.204   5.612  -5.161  0.00  0.00    -0.241 OA
ATOM     23  O   UNL     1       3.111   5.593  -5.902  0.00  0.00    -0.241 OA
ENDBRANCH  18  21
ENDBRANCH  13  15
ENDBRANCH  10  13
ENDBRANCH   4  10
BRANCH   1  24
ATOM     24  N   UNL     1      -1.782   4.521   0.809  0.00  0.00    -0.342 N 
ATOM     25  H   UNL     1      -2.673   4.138   0.787  0.00  0.00    +0.146 HD
BRANCH  24  26
ATOM     26  C   UNL     1      -1.606   5.955   1.048  0.00  0.00    +0.100 C 
BRANCH  26  27
ATOM     27  C   UNL     1      -2.975   6.614   1.229  0.00  0.00    +0.000 C 
BRANCH  27  28
ATOM     28  C   UNL     1      -2.791   8.112   1.478  0.00  0.00    -0.077 C 
BRANCH  28  30
ATOM     29  C   UNL     1      -4.763   8.264   2.875  0.00  0.00    -0.096 C 
ATOM     30  N   UNL     1      -4.122   8.737   1.630  0.00  0.00    +0.381 N 
ATOM     31  H   UNL     1      -4.709   8.470   0.831  0.00  0.00    -0.082 HD
BRANCH  30  32
ATOM     32  C   UNL     1      -3.989  10.209   1.657  0.00  0.00    -0.043 C 
BRANCH  32  33
ATOM     33  C   UNL     1      -5.364  10.822   1.589  0.00  0.00    -0.064 A 
ATOM     34  C   UNL     1      -5.933  11.109   0.363  0.00  0.00    +0.002 A 
ATOM     35  C   UNL     1      -7.196  11.667   0.300  0.00  0.00    +0.000 A 
ATOM     36  C   UNL     1      -7.886  11.949   1.465  0.00  0.00    +0.000 A 
ATOM     37  C   UNL     1      -7.314  11.668   2.692  0.00  0.00    +0.000 A 
ATOM     38  C   UNL     1      -6.053  11.104   2.754  0.00  0.00    +0.002 A 
ENDBRANCH  32  33
ENDBRANCH  30  32
ENDBRANCH  28  30
ENDBRANCH  27  28
ENDBRANCH  26  27
ENDBRANCH  24  26
ENDBRANCH   1  24
TORSDOF 12
