REMARK  Name = ZINC64143967
REMARK  12 active torsions:
REMARK  status: ('A' for Active; 'I' for Inactive)
REMARK    1  A    between atoms: C_1  and  O_2
REMARK    2  A    between atoms: O_2  and  C_3
REMARK    3  A    between atoms: C_6  and  C_9
REMARK    4  A    between atoms: C_9  and  C_11
REMARK    5  A    between atoms: C_9  and  C_28
REMARK    6  A    between atoms: C_11  and  N_12
REMARK    7  A    between atoms: C_13  and  C_15
REMARK    8  A    between atoms: C_18  and  O_23
REMARK    9  A    between atoms: C_19  and  O_21
REMARK   10  A    between atoms: O_21  and  C_22
REMARK   11  A    between atoms: O_23  and  C_24
REMARK   12  A    between atoms: C_24  and  C_25
REMARK                            x       y       z     vdW  Elec       q    Type
REMARK                         _______ _______ _______ _____ _____    ______ ____
ROOT
ATOM      1  C   UNL     1       3.662  -3.370  -3.882  0.00  0.00    +0.117 C 
ENDROOT
BRANCH   1   2
ATOM      2  N   UNL     1       4.387  -3.925  -5.028  0.00  0.00    -0.310 N 
ATOM      3  C   UNL     1       5.453  -4.725  -4.828  0.00  0.00    +0.244 C 
ATOM      4  O   UNL     1       5.813  -4.987  -3.696  0.00  0.00    -0.270 OA
ATOM      5  H   UNL     1       4.099  -3.716  -5.931  0.00  0.00    +0.149 HD
BRANCH   3   6
ATOM      6  C   UNL     1       6.183  -5.284  -5.983  0.00  0.00    +0.040 A 
ATOM      7  C   UNL     1       5.774  -4.980  -7.283  0.00  0.00    +0.017 A 
ATOM      8  C   UNL     1       6.456  -5.503  -8.360  0.00  0.00    +0.050 A 
ATOM      9  C   UNL     1       7.551  -6.332  -8.156  0.00  0.00    +0.163 A 
ATOM     10  C   UNL     1       7.965  -6.639  -6.861  0.00  0.00    +0.162 A 
ATOM     11  C   UNL     1       7.288  -6.114  -5.777  0.00  0.00    +0.062 A 
BRANCH  10  12
ATOM     12  O   UNL     1       9.037  -7.453  -6.664  0.00  0.00    -0.491 OA
ATOM     13  C   UNL     1       9.405  -7.726  -5.311  0.00  0.00    +0.277 C 
ENDBRANCH  10  12
BRANCH   9  14
ATOM     14  O   UNL     1       8.220  -6.844  -9.221  0.00  0.00    -0.479 OA
BRANCH  14  15
ATOM     15  C   UNL     1       7.743  -6.489 -10.520  0.00  0.00    +0.324 C 
BRANCH  15  16
ATOM     16  C   UNL     1       8.603  -7.146 -11.569  0.00  0.00    +0.248 C 
ATOM     17  O   UNL     1       9.533  -7.849 -11.236  0.00  0.00    -0.272 OA
ATOM     18  N   UNL     1       8.339  -6.952 -12.876  0.00  0.00    -0.327 N 
ATOM     19  H   UNL     1       7.595  -6.389 -13.142  0.00  0.00    +0.145 HD
ATOM     20  H   UNL     1       8.892  -7.375 -13.551  0.00  0.00    +0.145 HD
ENDBRANCH  15  16
ENDBRANCH  14  15
ENDBRANCH   9  14
ENDBRANCH   3   6
ENDBRANCH   1   2
BRANCH   1  21
ATOM     21  C   UNL     1       2.505  -2.503  -4.381  0.00  0.00    +0.064 C 
BRANCH  21  22
ATOM     22  C   UNL     1       1.505  -3.369  -5.104  0.00  0.00    -0.033 C 
ATOM     23  C   UNL     1       1.118  -3.260  -6.396  0.00  0.00    -0.000 A 
ATOM     24  C   UNL     1       1.498  -2.337  -7.473  0.00  0.00    +0.010 A 
ATOM     25  C   UNL     1       0.925  -2.479  -8.690  0.00  0.00    +0.001 A 
ATOM     26  C   UNL     1      -0.019  -3.482  -8.948  0.00  0.00    +0.002 A 
ATOM     27  C   UNL     1      -0.418  -4.367  -8.010  0.00  0.00    +0.026 A 
ATOM     28  C   UNL     1       0.119  -4.311  -6.694  0.00  0.00    +0.043 A 
ATOM     29  N   UNL     1      -0.103  -5.041  -5.629  0.00  0.00    -0.380 N 
ATOM     30  C   UNL     1       0.735  -4.539  -4.534  0.00  0.00    +0.145 C 
ATOM     31  H   UNL     1      -0.716  -5.791  -5.574  0.00  0.00    +0.160 HD
ENDBRANCH  21  22
BRANCH  21  35
ATOM     32  C   UNL     1       0.606  -0.607  -1.056  0.00  0.00    +0.120 A 
ATOM     33  C   UNL     1       1.173   0.161  -2.062  0.00  0.00    +0.046 A 
ATOM     34  C   UNL     1       1.786  -0.455  -3.136  0.00  0.00    +0.008 A 
ATOM     35  C   UNL     1       1.835  -1.835  -3.209  0.00  0.00    -0.038 A 
ATOM     36  C   UNL     1       1.270  -2.602  -2.207  0.00  0.00    +0.008 A 
ATOM     37  C   UNL     1       0.661  -1.992  -1.128  0.00  0.00    +0.046 A 
BRANCH  32  39
ATOM     38  C   UNL     1      -0.017   1.425   0.010  0.00  0.00    +0.277 C 
ATOM     39  O   UNL     1       0.002  -0.004   0.002  0.00  0.00    -0.495 OA
ENDBRANCH  32  39
ENDBRANCH  21  35
ENDBRANCH   1  21
TORSDOF 10
