REMARK  Name = ZINC19583385
REMARK  9 active torsions:
REMARK  status: ('A' for Active; 'I' for Inactive)
REMARK    1  A    between atoms: C_1  and  N_2
REMARK    2  A    between atoms: N_2  and  C_3
REMARK    3  A    between atoms: N_2  and  C_4
REMARK    4  A    between atoms: C_4  and  C_5
REMARK    5  A    between atoms: C_7  and  C_12
REMARK    6  A    between atoms: C_10  and  O_11
REMARK    7  A    between atoms: C_12  and  N_13
REMARK    8  A    between atoms: N_13  and  C_14
REMARK    9  A    between atoms: C_21  and  C_23
REMARK                            x       y       z     vdW  Elec       q    Type
REMARK                         _______ _______ _______ _____ _____    ______ ____
ROOT
ATOM      1  N   UNL     1      -0.938  -4.702  -0.287  0.00  0.00    -0.307 NA
ATOM      2  H   UNL     1      -1.326  -4.497   0.722  0.00  0.00    +0.123 HD
ENDROOT
BRANCH   1   3
ATOM      3  C   UNL     1      -0.781  -6.154  -0.444  0.00  0.00    +0.079 C 
ATOM      4  C   UNL     1      -0.869  -6.524  -1.930  0.00  0.00    +0.030 C 
ATOM      5  C   UNL     1      -0.521  -8.007  -2.082  0.00  0.00    +0.097 C 
ATOM      6  C   UNL     1      -1.304  -8.819  -1.091  0.00  0.00    +0.214 C 
ATOM      7  O   UNL     1      -1.403 -10.013  -1.279  0.00  0.00    -0.276 OA
ATOM      8  N   UNL     1      -1.897  -8.298  -0.016  0.00  0.00    -0.307 N 
ATOM      9  C   UNL     1      -1.900  -6.876   0.307  0.00  0.00    +0.123 C 
ATOM     10  H   UNL     1      -2.406  -9.013   0.646  0.00  0.00    +0.149 HD
BRANCH   9  11
ATOM     11  C   UNL     1      -1.698  -6.702   1.790  0.00  0.00    +0.009 A 
ATOM     12  C   UNL     1      -1.037  -7.675   2.516  0.00  0.00    +0.008 A 
ATOM     13  C   UNL     1      -0.846  -7.513   3.876  0.00  0.00    +0.000 A 
ATOM     14  C   UNL     1      -1.326  -6.383   4.512  0.00  0.00    +0.003 A 
ATOM     15  C   UNL     1      -1.992  -5.412   3.789  0.00  0.00    +0.039 A 
ATOM     16  C   UNL     1      -2.178  -5.571   2.426  0.00  0.00    +0.128 A 
ATOM     17  F   UNL     1      -2.830  -4.622   1.718  0.00  0.00    -0.205 F 
ENDBRANCH   9  11
ENDBRANCH   1   3
BRANCH   1  18
ATOM     18  C   UNL     1       0.345  -4.011  -0.469  0.00  0.00    +0.116 C 
BRANCH  18  21
ATOM     19  C   UNL     1       0.090  -0.590   1.106  0.00  0.00    -0.022 A 
ATOM     20  C   UNL     1       0.274  -1.950   0.949  0.00  0.00    +0.010 A 
ATOM     21  C   UNL     1       0.144  -2.527  -0.301  0.00  0.00    -0.033 A 
ATOM     22  C   UNL     1      -0.170  -1.744  -1.397  0.00  0.00    +0.008 A 
ATOM     23  C   UNL     1      -0.360  -0.385  -1.244  0.00  0.00    +0.046 A 
ATOM     24  C   UNL     1      -0.225   0.197   0.008  0.00  0.00    +0.118 A 
BRANCH  24  25
ATOM     25  O   UNL     1      -0.406   1.536   0.160  0.00  0.00    -0.507 OA
ATOM     26  H   UNL     1      -0.656   2.159  -0.712  0.00  0.00    +0.292 HD
ENDBRANCH  24  25
BRANCH  19  27
ATOM     27  C   UNL     1       0.232   0.038   2.468  0.00  0.00    -0.040 C 
BRANCH  27  29
ATOM     28  C   UNL     1      -1.795  -0.835   3.465  0.00  0.00    -0.096 C 
ATOM     29  N   UNL     1      -1.098   0.370   2.995  0.00  0.00    +0.379 N 
ATOM     30  C   UNL     1      -1.006   1.374   4.064  0.00  0.00    -0.096 C 
ATOM     31  H   UNL     1      -1.689   0.804   2.175  0.00  0.00    -0.082 HD
ENDBRANCH  27  29
ENDBRANCH  19  27
ENDBRANCH  18  21
ENDBRANCH   1  18
TORSDOF 7
