REMARK  Name = ZINC52094686
REMARK  9 active torsions:
REMARK  status: ('A' for Active; 'I' for Inactive)
REMARK    1  A    between atoms: C_1  and  C_2
REMARK    2  A    between atoms: C_2  and  C_3
REMARK    3  A    between atoms: C_3  and  C_4
REMARK    4  A    between atoms: C_4  and  C_5
REMARK    5  A    between atoms: C_5  and  C_7
REMARK    6  A    between atoms: C_5  and  N_20
REMARK    7  A    between atoms: N_20  and  C_21
REMARK    8  A    between atoms: C_21  and  C_22
REMARK    9  A    between atoms: C_22  and  C_23
REMARK                            x       y       z     vdW  Elec       q    Type
REMARK                         _______ _______ _______ _____ _____    ______ ____
ROOT
ATOM      1  C   UNL     1      -2.895  -4.069   0.438  0.00  0.00    -0.045 A 
ATOM      2  C   UNL     1      -3.091  -4.971  -0.590  0.00  0.00    +0.031 A 
ATOM      3  C   UNL     1      -3.140  -6.329  -0.317  0.00  0.00    +0.067 A 
ATOM      4  C   UNL     1      -2.993  -6.780   0.996  0.00  0.00    +0.068 A 
ATOM      5  C   UNL     1      -2.797  -5.869   2.022  0.00  0.00    +0.043 A 
ATOM      6  C   UNL     1      -2.743  -4.517   1.740  0.00  0.00    +0.022 A 
ATOM      7 BR   UNL     1      -2.467  -3.273   3.137  0.00  0.00    -0.050 Br
ATOM      8  N   UNL     1      -3.086  -8.170   0.957  0.00  0.00    -0.306 N 
ATOM      9  H   UNL     1      -3.021  -8.765   1.720  0.00  0.00    +0.170 HD
ATOM     10  C   UNL     1      -3.282  -8.546  -0.321  0.00  0.00    +0.325 A 
ATOM     11  O   UNL     1      -3.407  -9.695  -0.702  0.00  0.00    -0.247 OA
ATOM     12  N   UNL     1      -3.319  -7.458  -1.114  0.00  0.00    -0.306 N 
ATOM     13  H   UNL     1      -3.449  -7.460  -2.075  0.00  0.00    +0.170 HD
ENDROOT
BRANCH   1  14
ATOM     14  C   UNL     1      -2.841  -2.593   0.141  0.00  0.00    -0.040 C 
BRANCH  14  15
ATOM     15  N   UNL     1      -3.587  -2.314  -1.093  0.00  0.00    +0.384 N 
ATOM     16  H   UNL     1      -3.474  -1.342  -1.342  0.00  0.00    -0.085 HD
ATOM     17  H   UNL     1      -3.235  -2.895  -1.838  0.00  0.00    -0.085 HD
BRANCH  15  18
ATOM     18  C   UNL     1      -5.012  -2.602  -0.880  0.00  0.00    -0.082 C 
BRANCH  18  19
ATOM     19  C   UNL     1      -5.806  -2.193  -2.122  0.00  0.00    -0.022 C 
ATOM     20  C   UNL     1      -7.290  -2.493  -1.900  0.00  0.00    +0.002 C 
ENDBRANCH  18  19
ENDBRANCH  15  18
ENDBRANCH  14  15
BRANCH  14  21
ATOM     21  C   UNL     1      -1.384  -2.161  -0.035  0.00  0.00    -0.011 C 
BRANCH  21  22
ATOM     22  C   UNL     1      -1.319  -0.641  -0.203  0.00  0.00    -0.002 C 
BRANCH  22  24
ATOM     23  C   UNL     1       0.208   1.324  -0.419  0.00  0.00    +0.004 C 
ATOM     24  C   UNL     1       0.143  -0.195  -0.251  0.00  0.00    -0.003 C 
ENDBRANCH  22  24
ENDBRANCH  21  22
ENDBRANCH  14  21
ENDBRANCH   1  14
TORSDOF 7
