REMARK  Name = ZINC36976739
REMARK  3 active torsions:
REMARK  status: ('A' for Active; 'I' for Inactive)
REMARK    1  A    between atoms: C_3  and  C_10
REMARK    2  A    between atoms: C_10  and  N_11
REMARK    3  A    between atoms: N_11  and  C_12
REMARK                            x       y       z     vdW  Elec       q    Type
REMARK                         _______ _______ _______ _____ _____    ______ ____
ROOT
ATOM      1  N   UNL     1       4.200   2.252  -1.390  0.00  0.00    +0.389 N 
ATOM      2  H   UNL     1       4.400   1.270  -1.268  0.00  0.00    -0.084 HD
ATOM      3  H   UNL     1       3.718   2.391  -2.265  0.00  0.00    -0.084 HD
ENDROOT
BRANCH   1   4
ATOM      4  C   UNL     1       5.458   3.010  -1.398  0.00  0.00    +0.016 C 
ATOM      5  C   UNL     1       6.484   2.314  -0.500  0.00  0.00    -0.007 C 
ATOM      6  C   UNL     1       6.321   0.806  -0.567  0.00  0.00    +0.000 C 
ATOM      7  C   UNL     1       6.664   0.212  -1.921  0.00  0.00    +0.019 C 
ATOM      8  C   UNL     1       5.658   0.660  -2.983  0.00  0.00    +0.104 C 
ATOM      9  N   UNL     1       6.101   1.951  -3.535  0.00  0.00    -0.317 N 
ATOM     10  C   UNL     1       6.008   3.068  -2.807  0.00  0.00    +0.199 C 
ATOM     11  O   UNL     1       6.370   4.129  -3.272  0.00  0.00    -0.278 OA
ATOM     12  H   UNL     1       6.459   1.992  -4.436  0.00  0.00    +0.149 HD
ENDBRANCH   1   4
BRANCH   1  13
ATOM     13  C   UNL     1       3.353   2.720  -0.285  0.00  0.00    -0.042 C 
BRANCH  13  16
ATOM     14  C   UNL     1      -0.267   1.785  -0.815  0.00  0.00    +0.004 A 
ATOM     15  C   UNL     1       0.919   2.496  -0.821  0.00  0.00    +0.005 A 
ATOM     16  C   UNL     1       2.063   1.942  -0.277  0.00  0.00    -0.019 A 
ATOM     17  C   UNL     1       2.023   0.672   0.276  0.00  0.00    +0.168 A 
ATOM     18  C   UNL     1       0.829  -0.044   0.282  0.00  0.00    +0.166 A 
ATOM     19  C   UNL     1      -0.314   0.517  -0.265  0.00  0.00    +0.049 A 
ATOM     20  O   UNL     1       1.048  -1.254   0.875  0.00  0.00    -0.453 OA
ATOM     21  C   UNL     1       2.477  -1.434   0.864  0.00  0.00    +0.466 C 
ATOM     22  O   UNL     1       2.991  -0.089   0.866  0.00  0.00    -0.452 OA
ENDBRANCH  13  16
ENDBRANCH   1  13
TORSDOF 3
