REMARK  Name = ZINC61596618
REMARK  11 active torsions:
REMARK  status: ('A' for Active; 'I' for Inactive)
REMARK    1  A    between atoms: C_1  and  C_2
REMARK    2  A    between atoms: C_2  and  C_3
REMARK    3  A    between atoms: C_3  and  N_4
REMARK    4  A    between atoms: N_7  and  C_8
REMARK    5  A    between atoms: C_8  and  C_9
REMARK    6  A    between atoms: C_8  and  C_10
REMARK    7  A    between atoms: C_8  and  C_11
REMARK    8  A    between atoms: N_13  and  C_14
REMARK    9  A    between atoms: C_18  and  C_21
REMARK   10  A    between atoms: C_19  and  C_20
REMARK   11  A    between atoms: C_21  and  N_22
REMARK                            x       y       z     vdW  Elec       q    Type
REMARK                         _______ _______ _______ _____ _____    ______ ____
ROOT
ATOM      1  C   UNL     1      -3.224  -5.766  -0.259  0.00  0.00    +0.240 C 
ATOM      2  O   UNL     1      -4.234  -6.418  -0.414  0.00  0.00    -0.273 OA
ATOM      3  N   UNL     1      -2.018  -6.364  -0.327  0.00  0.00    -0.284 N 
ATOM      4  H   UNL     1      -1.209  -5.831  -0.282  0.00  0.00    +0.155 HD
ENDROOT
BRANCH   3   5
ATOM      5  C   UNL     1      -1.934  -7.754  -0.463  0.00  0.00    +0.037 A 
ATOM      6  C   UNL     1      -2.991  -8.559  -0.056  0.00  0.00    +0.023 A 
ATOM      7  C   UNL     1      -2.904  -9.930  -0.191  0.00  0.00    +0.002 A 
ATOM      8  C   UNL     1      -1.766 -10.503  -0.729  0.00  0.00    +0.002 A 
ATOM      9  C   UNL     1      -0.712  -9.706  -1.134  0.00  0.00    -0.059 A 
ATOM     10  C   UNL     1      -0.795  -8.332  -1.008  0.00  0.00    -0.028 A 
ATOM     11  C   UNL     1       0.351  -7.463  -1.456  0.00  0.00    +0.046 C 
BRANCH   9  12
ATOM     12  C   UNL     1       0.526 -10.334  -1.720  0.00  0.00    -0.043 C 
BRANCH  12  13
ATOM     13  N   UNL     1       0.504 -10.191  -3.181  0.00  0.00    +0.383 N 
ATOM     14  C   UNL     1      -0.625 -10.951  -3.721  0.00  0.00    -0.068 C 
ATOM     15  C   UNL     1      -0.894 -10.526  -5.170  0.00  0.00    +0.050 C 
ATOM     16  S   UNL     1       0.579 -10.918  -6.163  0.00  0.00    -0.164 S 
ATOM     17  C   UNL     1       1.928 -10.192  -5.179  0.00  0.00    +0.050 C 
ATOM     18  C   UNL     1       1.775 -10.667  -3.730  0.00  0.00    -0.068 C 
ATOM     19  H   UNL     1       0.387  -9.216  -3.416  0.00  0.00    -0.081 HD
ENDBRANCH  12  13
ENDBRANCH   9  12
ENDBRANCH   3   5
BRANCH   1  20
ATOM     20  C   UNL     1      -3.316  -4.286   0.009  0.00  0.00    +0.107 C 
ATOM     21  C   UNL     1      -4.672  -3.966   0.640  0.00  0.00    +0.041 C 
ATOM     22  C   UNL     1      -3.173  -3.519  -1.308  0.00  0.00    +0.041 C 
BRANCH  20  26
ATOM     23  N   UNL     1      -1.143  -2.234   2.150  0.00  0.00    -0.299 N 
ATOM     24  C   UNL     1      -2.130  -2.600   1.308  0.00  0.00    +0.300 C 
ATOM     25  O   UNL     1      -2.915  -1.770   0.893  0.00  0.00    -0.253 OA
ATOM     26  N   UNL     1      -2.244  -3.887   0.924  0.00  0.00    -0.286 N 
ATOM     27  H   UNL     1      -0.517  -2.896   2.481  0.00  0.00    +0.150 HD
ATOM     28  H   UNL     1      -1.618  -4.550   1.255  0.00  0.00    +0.151 HD
BRANCH  23  29
ATOM     29  C   UNL     1      -1.018  -0.835   2.567  0.00  0.00    +0.105 C 
BRANCH  29  31
ATOM     30  C   UNL     1       0.303   0.771   3.952  0.00  0.00    +0.005 C 
ATOM     31  C   UNL     1       0.172  -0.690   3.517  0.00  0.00    +0.015 C 
ENDBRANCH  29  31
ENDBRANCH  23  29
ENDBRANCH  20  26
ENDBRANCH   1  20
TORSDOF 7
