REMARK  Name = ZINC32593801
REMARK  11 active torsions:
REMARK  status: ('A' for Active; 'I' for Inactive)
REMARK    1  A    between atoms: C_1  and  N_2
REMARK    2  A    between atoms: N_2  and  C_3
REMARK    3  A    between atoms: N_2  and  C_4
REMARK    4  A    between atoms: C_7  and  C_10
REMARK    5  A    between atoms: C_10  and  C_12
REMARK    6  A    between atoms: C_10  and  N_31
REMARK    7  A    between atoms: C_12  and  N_13
REMARK    8  A    between atoms: C_14  and  C_16
REMARK    9  A    between atoms: C_18  and  C_21
REMARK   10  A    between atoms: N_31  and  C_32
REMARK   11  A    between atoms: N_31  and  C_33
REMARK                            x       y       z     vdW  Elec       q    Type
REMARK                         _______ _______ _______ _____ _____    ______ ____
ROOT
ATOM      1  N   UNL     1     -10.598  -0.822   1.291  0.00  0.00    -0.311 N 
ATOM      2  C   UNL     1      -9.325  -0.862   1.731  0.00  0.00    +0.266 C 
ATOM      3  O   UNL     1      -9.089  -1.177   2.880  0.00  0.00    -0.268 OA
ATOM      4  H   UNL     1     -10.812  -0.537   0.250  0.00  0.00    +0.149 HD
ENDROOT
BRANCH   2   5
ATOM      5  C   UNL     1      -8.211  -0.522   0.812  0.00  0.00    +0.168 A 
ATOM      6  C   UNL     1      -6.825  -0.523   1.117  0.00  0.00    +0.086 A 
ATOM      7  C   UNL     1      -6.233  -0.139  -0.054  0.00  0.00    +0.168 A 
ATOM      8  O   UNL     1      -7.228   0.049  -0.938  0.00  0.00    -0.354 OA
ATOM      9  N   UNL     1      -8.311  -0.166  -0.446  0.00  0.00    -0.073 NA
BRANCH   7  10
ATOM     10  C   UNL     1      -4.785   0.030  -0.300  0.00  0.00    +0.020 A 
ATOM     11  C   UNL     1      -3.865  -0.204   0.724  0.00  0.00    +0.012 A 
ATOM     12  C   UNL     1      -2.520  -0.040   0.480  0.00  0.00    +0.004 A 
ATOM     13  C   UNL     1      -2.068   0.356  -0.774  0.00  0.00    -0.044 A 
ATOM     14  C   UNL     1      -2.971   0.583  -1.790  0.00  0.00    -0.044 A 
ATOM     15  C   UNL     1      -4.328   0.423  -1.555  0.00  0.00    +0.015 A 
ATOM     16  C   UNL     1      -2.546   1.006  -3.173  0.00  0.00    +0.035 C 
ATOM     17  C   UNL     1      -1.120   1.551  -3.154  0.00  0.00    +0.005 C 
ATOM     18  C   UNL     1      -0.222   0.532  -2.442  0.00  0.00    +0.005 C 
ATOM     19  C   UNL     1      -0.581   0.526  -0.958  0.00  0.00    +0.035 C 
ENDBRANCH   7  10
ENDBRANCH   2   5
BRANCH   1  20
ATOM     20  C   UNL     1     -11.698  -1.158   2.199  0.00  0.00    +0.094 C 
BRANCH  20  21
ATOM     21  C   UNL     1     -13.029  -1.034   1.455  0.00  0.00    -0.021 C 
BRANCH  21  25
ATOM     22  C   UNL     1     -16.253  -1.673   4.187  0.00  0.00    +0.029 A 
ATOM     23  C   UNL     1     -16.228  -2.344   2.971  0.00  0.00    +0.023 A 
ATOM     24  C   UNL     1     -15.185  -2.135   2.091  0.00  0.00    +0.004 A 
ATOM     25  C   UNL     1     -14.166  -1.259   2.418  0.00  0.00    -0.059 A 
ATOM     26  C   UNL     1     -14.185  -0.594   3.631  0.00  0.00    +0.004 A 
ATOM     27  C   UNL     1     -15.228  -0.794   4.513  0.00  0.00    +0.023 A 
BRANCH  22  29
ATOM     28  C   UNL     1     -18.386  -2.810   4.735  0.00  0.00    +0.129 C 
ATOM     29  N   UNL     1     -17.306  -1.882   5.080  0.00  0.00    -0.336 N 
ATOM     30  C   UNL     1     -17.331  -1.174   6.363  0.00  0.00    +0.129 C 
ENDBRANCH  22  29
ENDBRANCH  21  25
BRANCH  21  31
ATOM     31  N   UNL     1     -13.141   0.310   0.872  0.00  0.00    +0.382 N 
ATOM     32  C   UNL     1     -14.316   0.407  -0.004  0.00  0.00    -0.096 C 
ATOM     33  C   UNL     1     -13.179   1.338   1.920  0.00  0.00    -0.096 C 
ATOM     34  H   UNL     1     -12.246   0.487   0.257  0.00  0.00    -0.082 HD
ENDBRANCH  21  31
ENDBRANCH  20  21
ENDBRANCH   1  20
TORSDOF 7
