REMARK  Name = ZINC31296772
REMARK  10 active torsions:
REMARK  status: ('A' for Active; 'I' for Inactive)
REMARK    1  A    between atoms: C_1  and  C_2
REMARK    2  A    between atoms: C_2  and  C_4
REMARK    3  A    between atoms: C_2  and  N_20
REMARK    4  A    between atoms: N_6  and  C_7
REMARK    5  A    between atoms: C_7  and  C_8
REMARK    6  A    between atoms: N_10  and  C_11
REMARK    7  A    between atoms: N_20  and  C_21
REMARK    8  A    between atoms: N_20  and  C_22
REMARK    9  A    between atoms: C_22  and  C_23
REMARK   10  A    between atoms: N_25  and  C_26
REMARK                            x       y       z     vdW  Elec       q    Type
REMARK                         _______ _______ _______ _____ _____    ______ ____
ROOT
ATOM      1  C   UNL     1       4.873   7.078   1.378  0.00  0.00    -0.004 C 
ATOM      2  C   UNL     1       3.569   7.617   0.786  0.00  0.00    +0.016 C 
ENDROOT
BRANCH   2   3
ATOM      3  C   UNL     1       2.405   7.134   1.613  0.00  0.00    +0.200 C 
ATOM      4  O   UNL     1       1.639   7.934   2.107  0.00  0.00    -0.278 OA
ATOM      5  N   UNL     1       2.215   5.814   1.802  0.00  0.00    -0.308 N 
ATOM      6  H   UNL     1       2.910   5.088   1.354  0.00  0.00    +0.149 HD
BRANCH   5   7
ATOM      7  C   UNL     1       1.083   5.344   2.606  0.00  0.00    +0.200 C 
BRANCH   7   8
ATOM      8  C   UNL     1       1.098   3.838   2.662  0.00  0.00    +0.234 C 
ATOM      9  O   UNL     1       1.968   3.218   2.088  0.00  0.00    -0.274 OA
ATOM     10  N   UNL     1       0.144   3.180   3.351  0.00  0.00    -0.282 N 
ATOM     11  H   UNL     1      -0.686   3.737   3.810  0.00  0.00    +0.155 HD
BRANCH  10  12
ATOM     12  C   UNL     1       0.210   1.787   3.482  0.00  0.00    +0.072 A 
ATOM     13  C   UNL     1       1.430   1.135   3.370  0.00  0.00    +0.029 A 
ATOM     14  C   UNL     1       1.494  -0.239   3.499  0.00  0.00    +0.043 A 
ATOM     15  C   UNL     1       0.343  -0.969   3.739  0.00  0.00    +0.161 A 
ATOM     16  C   UNL     1      -0.879  -0.322   3.851  0.00  0.00    +0.195 A 
ATOM     17  C   UNL     1      -0.947   1.055   3.723  0.00  0.00    +0.182 A 
ATOM     18  F   UNL     1      -2.137   1.686   3.826  0.00  0.00    -0.200 F 
ATOM     19  F   UNL     1      -2.002  -1.035   4.085  0.00  0.00    -0.199 F 
ATOM     20  F   UNL     1       0.408  -2.312   3.864  0.00  0.00    -0.202 F 
ENDBRANCH  10  12
ENDBRANCH   7   8
ENDBRANCH   5   7
ENDBRANCH   2   3
BRANCH   2  21
ATOM     21  N   UNL     1       3.598   9.086   0.793  0.00  0.00    +0.391 N 
ATOM     22  C   UNL     1       4.545   9.598  -0.206  0.00  0.00    -0.094 C 
ATOM     23  H   UNL     1       2.594   9.445   0.523  0.00  0.00    -0.080 HD
BRANCH  21  24
ATOM     24  C   UNL     1       3.916   9.600   2.132  0.00  0.00    +0.020 C 
BRANCH  24  25
ATOM     25  C   UNL     1       3.698  11.091   2.162  0.00  0.00    +0.201 C 
ATOM     26  O   UNL     1       3.316  11.668   1.167  0.00  0.00    -0.278 OA
ATOM     27  N   UNL     1       3.929  11.783   3.296  0.00  0.00    -0.285 N 
ATOM     28  H   UNL     1       4.362  11.276   4.171  0.00  0.00    +0.155 HD
BRANCH  27  29
ATOM     29  C   UNL     1       3.617  13.146   3.360  0.00  0.00    +0.070 A 
ATOM     30  C   UNL     1       4.050  14.007   2.359  0.00  0.00    +0.064 A 
ATOM     31  C   UNL     1       3.737  15.352   2.423  0.00  0.00    +0.022 A 
ATOM     32  C   UNL     1       3.002  15.842   3.486  0.00  0.00    +0.003 A 
ATOM     33  C   UNL     1       2.574  14.989   4.487  0.00  0.00    +0.022 A 
ATOM     34  C   UNL     1       2.879  13.643   4.427  0.00  0.00    +0.064 A 
ATOM     35 CL   UNL     1       2.342  12.573   5.684  0.00  0.00    -0.082 Cl
ATOM     36 CL   UNL     1       4.978  13.393   1.026  0.00  0.00    -0.082 Cl
ENDBRANCH  27  29
ENDBRANCH  24  25
ENDBRANCH  21  24
ENDBRANCH   2  21
TORSDOF 8
