REMARK  Name = ZINC20810818
REMARK  10 active torsions:
REMARK  status: ('A' for Active; 'I' for Inactive)
REMARK    1  A    between atoms: C_1  and  C_2
REMARK    2  A    between atoms: C_5  and  N_9
REMARK    3  A    between atoms: C_6  and  C_8
REMARK    4  A    between atoms: C_13  and  C_15
REMARK    5  A    between atoms: C_15  and  N_16
REMARK    6  A    between atoms: N_19  and  C_22
REMARK    7  A    between atoms: C_22  and  C_23
REMARK    8  A    between atoms: N_25  and  C_26
REMARK    9  A    between atoms: C_27  and  C_33
REMARK   10  A    between atoms: C_31  and  C_32
REMARK                            x       y       z     vdW  Elec       q    Type
REMARK                         _______ _______ _______ _____ _____    ______ ____
ROOT
ATOM      1  N   UNL     1      -3.985  -4.797   1.805  0.00  0.00    -0.298 NA
ATOM      2  C   UNL     1      -3.605  -5.071   0.412  0.00  0.00    +0.066 C 
ATOM      3  C   UNL     1      -2.191  -4.542   0.159  0.00  0.00    -0.063 C 
ATOM      4  N   UNL     1      -2.154  -3.099   0.438  0.00  0.00    +0.387 N 
ATOM      5  C   UNL     1      -2.535  -2.825   1.830  0.00  0.00    -0.063 C 
ATOM      6  C   UNL     1      -3.948  -3.354   2.084  0.00  0.00    +0.066 C 
ATOM      7  H   UNL     1      -2.888  -2.607  -0.218  0.00  0.00    -0.081 HD
ENDROOT
BRANCH   1   8
ATOM      8  C   UNL     1      -5.309  -5.358   2.110  0.00  0.00    +0.180 C 
BRANCH   8  13
ATOM      9  N   UNL     1      -8.101  -6.120   5.948  0.00  0.00    -0.269 N 
ATOM     10  C   UNL     1      -6.942  -5.661   5.434  0.00  0.00    +0.310 C 
ATOM     11  O   UNL     1      -6.100  -5.182   6.167  0.00  0.00    -0.252 OA
ATOM     12  N   UNL     1      -6.718  -5.734   4.107  0.00  0.00    -0.239 N 
ATOM     13  C   UNL     1      -5.559  -5.276   3.593  0.00  0.00    +0.234 C 
ATOM     14  O   UNL     1      -4.719  -4.798   4.325  0.00  0.00    -0.274 OA
ATOM     15  H   UNL     1      -8.828  -6.628   5.298  0.00  0.00    +0.156 HD
ATOM     16  H   UNL     1      -7.480  -6.168   3.443  0.00  0.00    +0.159 HD
BRANCH   9  21
ATOM     17  C   UNL     1      -9.228  -5.427  11.465  0.00  0.00    +0.044 C 
ATOM     18  C   UNL     1      -8.928  -5.612   9.999  0.00  0.00    -0.050 A 
ATOM     19  C   UNL     1      -7.624  -5.795   9.579  0.00  0.00    +0.005 A 
ATOM     20  C   UNL     1      -7.346  -5.964   8.237  0.00  0.00    +0.024 A 
ATOM     21  C   UNL     1      -8.379  -5.949   7.309  0.00  0.00    +0.038 A 
ATOM     22  C   UNL     1      -9.687  -5.760   7.733  0.00  0.00    -0.029 A 
ATOM     23  C   UNL     1      -9.959  -5.597   9.078  0.00  0.00    +0.008 A 
ATOM     24  C   UNL     1     -10.810  -5.737   6.729  0.00  0.00    +0.045 C 
ENDBRANCH   9  21
ENDBRANCH   8  13
ENDBRANCH   1   8
BRANCH   4  25
ATOM     25  C   UNL     1      -0.831  -2.538   0.133  0.00  0.00    +0.019 C 
BRANCH  25  26
ATOM     26  C   UNL     1      -0.897  -1.034   0.193  0.00  0.00    +0.201 C 
ATOM     27  O   UNL     1      -1.944  -0.483   0.464  0.00  0.00    -0.278 OA
ATOM     28  N   UNL     1       0.206  -0.300  -0.053  0.00  0.00    -0.287 N 
ATOM     29  H   UNL     1       1.131  -0.793  -0.388  0.00  0.00    +0.155 HD
BRANCH  28  30
ATOM     30  C   UNL     1       0.176   1.088   0.118  0.00  0.00    +0.039 A 
ATOM     31  C   UNL     1      -0.758   1.853  -0.568  0.00  0.00    -0.029 A 
ATOM     32  C   UNL     1      -0.789   3.223  -0.393  0.00  0.00    +0.005 A 
ATOM     33  C   UNL     1       0.116   3.834   0.455  0.00  0.00    +0.001 A 
ATOM     34  C   UNL     1       1.052   3.075   1.135  0.00  0.00    +0.005 A 
ATOM     35  C   UNL     1       1.084   1.705   0.969  0.00  0.00    -0.029 A 
ATOM     36  C   UNL     1       2.103   0.879   1.711  0.00  0.00    +0.045 C 
ATOM     37  C   UNL     1      -1.742   1.189  -1.496  0.00  0.00    +0.045 C 
ENDBRANCH  28  30
ENDBRANCH  25  26
ENDBRANCH   4  25
TORSDOF 6
