REMARK  Name = ZINC64370132
REMARK  10 active torsions:
REMARK  status: ('A' for Active; 'I' for Inactive)
REMARK    1  A    between atoms: C_1  and  C_2
REMARK    2  A    between atoms: C_5  and  C_31
REMARK    3  A    between atoms: C_6  and  N_8
REMARK    4  A    between atoms: C_9  and  C_11
REMARK    5  A    between atoms: C_11  and  S_12
REMARK    6  A    between atoms: S_12  and  C_13
REMARK    7  A    between atoms: C_16  and  C_21
REMARK    8  A    between atoms: N_17  and  C_18
REMARK    9  A    between atoms: C_18  and  C_19
REMARK   10  A    between atoms: C_22  and  N_30
REMARK                            x       y       z     vdW  Elec       q    Type
REMARK                         _______ _______ _______ _____ _____    ______ ____
ROOT
ATOM      1  C   UNL     1       0.537  -2.770   7.657  0.00  0.00    +0.193 A 
ATOM      2  N   UNL     1       0.562  -4.083   7.663  0.00  0.00    -0.122 NA
ATOM      3  N   UNL     1       0.677  -4.519   8.866  0.00  0.00    -0.128 NA
ATOM      4  C   UNL     1       0.733  -3.508   9.707  0.00  0.00    +0.174 A 
ATOM      5  N   UNL     1       0.650  -2.356   8.956  0.00  0.00    -0.298 N 
ENDROOT
BRANCH   4   6
ATOM      6  C   UNL     1       0.863  -3.592  11.168  0.00  0.00    +0.080 A 
ATOM      7  C   UNL     1       0.958  -4.708  11.943  0.00  0.00    +0.052 A 
ATOM      8  C   UNL     1       1.081  -4.550  13.383  0.00  0.00    +0.029 A 
ATOM      9  C   UNL     1       1.193  -5.551  14.380  0.00  0.00    +0.014 A 
ATOM     10  C   UNL     1       1.299  -5.170  15.697  0.00  0.00    +0.020 A 
ATOM     11  C   UNL     1       1.297  -3.827  16.042  0.00  0.00    +0.112 A 
ATOM     12  N   UNL     1       1.192  -2.898  15.111  0.00  0.00    -0.248 NA
ATOM     13  C   UNL     1       1.089  -3.211  13.839  0.00  0.00    +0.111 A 
ATOM     14  S   UNL     1       0.943  -2.259  12.347  0.00  0.00    -0.064 S 
BRANCH   7  15
ATOM     15  N   UNL     1       0.937  -5.983  11.364  0.00  0.00    -0.356 N 
ATOM     16  H   UNL     1       0.855  -6.078  10.402  0.00  0.00    +0.142 HD
ATOM     17  H   UNL     1       1.006  -6.772  11.925  0.00  0.00    +0.142 HD
ENDBRANCH   7  15
ENDBRANCH   4   6
BRANCH   1  18
ATOM     18  S   UNL     1       0.391  -1.734   6.239  0.00  0.00    -0.077 S 
BRANCH  18  19
ATOM     19  C   UNL     1       0.280  -2.900   4.854  0.00  0.00    +0.173 C 
BRANCH  19  21
ATOM     20  N   UNL     1       0.052  -2.797   2.393  0.00  0.00    -0.285 N 
ATOM     21  C   UNL     1       0.150  -2.135   3.562  0.00  0.00    +0.227 C 
ATOM     22  O   UNL     1       0.134  -0.922   3.575  0.00  0.00    -0.275 OA
ATOM     23  H   UNL     1      -0.016  -3.765   2.388  0.00  0.00    +0.155 HD
BRANCH  20  29
ATOM     24  C   UNL     1       1.264   1.227  -0.158  0.00  0.00    +0.044 C 
ATOM     25  C   UNL     1       0.628  -0.137  -0.079  0.00  0.00    -0.049 A 
ATOM     26  C   UNL     1       0.039  -0.690  -1.201  0.00  0.00    +0.004 A 
ATOM     27  C   UNL     1      -0.546  -1.941  -1.133  0.00  0.00    +0.005 A 
ATOM     28  C   UNL     1      -0.543  -2.643   0.057  0.00  0.00    -0.029 A 
ATOM     29  C   UNL     1       0.048  -2.090   1.185  0.00  0.00    +0.037 A 
ATOM     30  C   UNL     1       0.639  -0.835   1.112  0.00  0.00    +0.027 A 
ATOM     31  C   UNL     1      -1.181  -4.006   0.131  0.00  0.00    +0.045 C 
ENDBRANCH  20  29
ENDBRANCH  19  21
ENDBRANCH  18  19
ENDBRANCH   1  18
BRANCH   5  32
ATOM     32  C   UNL     1       0.676  -0.976   9.446  0.00  0.00    +0.152 C 
BRANCH  32  33
ATOM     33  C   UNL     1      -0.729  -0.522   9.745  0.00  0.00    -0.013 C 
ATOM     34  C   UNL     1      -1.029  -0.055  10.932  0.00  0.00    +0.005 C 
ENDBRANCH  32  33
ENDBRANCH   5  32
TORSDOF 8
