REMARK  Name = ZINC40515226
REMARK  5 active torsions:
REMARK  status: ('A' for Active; 'I' for Inactive)
REMARK    1  A    between atoms: C_1  and  C_2
REMARK    2  A    between atoms: C_4  and  C_20
REMARK    3  A    between atoms: C_6  and  O_11
REMARK    4  A    between atoms: C_7  and  C_8
REMARK    5  A    between atoms: O_11  and  C_12
REMARK                            x       y       z     vdW  Elec       q    Type
REMARK                         _______ _______ _______ _____ _____    ______ ____
ROOT
ATOM      1  C   UNL     1       0.152   1.492  -0.009  0.00  0.00    +0.045 C 
ATOM      2  C   UNL     1       0.172  -0.015  -0.009  0.00  0.00    -0.033 A 
ATOM      3  C   UNL     1       0.264  -0.723  -1.194  0.00  0.00    +0.027 A 
ATOM      4  C   UNL     1       0.280  -2.106  -1.161  0.00  0.00    +0.042 A 
ATOM      5  N   UNL     1       0.209  -2.762  -0.019  0.00  0.00    -0.217 NA
ATOM      6  C   UNL     1       0.121  -2.134   1.141  0.00  0.00    +0.231 A 
ATOM      7  C   UNL     1       0.105  -0.732   1.190  0.00  0.00    +0.077 A 
ATOM      8  C   UNL     1       0.380  -2.876  -2.453  0.00  0.00    +0.066 C 
ENDROOT
BRANCH   7   9
ATOM      9  C   UNL     1       0.012  -0.027   2.484  0.00  0.00    +0.100 C 
ATOM     10  N   UNL     1       1.005  -0.123   3.368  0.00  0.00    -0.387 N 
ATOM     11  N   UNL     1      -1.064   0.707   2.768  0.00  0.00    -0.344 N 
ATOM     12  H   UNL     1       1.788  -0.656   3.161  0.00  0.00    +0.157 HD
ATOM     13  H   UNL     1      -1.786   0.777   2.125  0.00  0.00    +0.144 HD
ATOM     14  H   UNL     1      -1.124   1.170   3.618  0.00  0.00    +0.144 HD
ATOM     15  H   UNL     1       0.945   0.341   4.218  0.00  0.00    +0.157 HD
ENDBRANCH   7   9
BRANCH   6  16
ATOM     16  O   UNL     1       0.050  -2.849   2.289  0.00  0.00    -0.436 OA
BRANCH  16  17
ATOM     17  C   UNL     1      -0.037  -4.202   2.195  0.00  0.00    +0.149 A 
ATOM     18  C   UNL     1      -1.278  -4.821   2.207  0.00  0.00    +0.049 A 
ATOM     19  C   UNL     1      -1.365  -6.196   2.111  0.00  0.00    +0.019 A 
ATOM     20  C   UNL     1      -0.214  -6.957   2.002  0.00  0.00    +0.019 A 
ATOM     21  C   UNL     1       1.025  -6.343   1.990  0.00  0.00    +0.039 A 
ATOM     22  C   UNL     1       1.116  -4.966   2.080  0.00  0.00    +0.084 A 
ATOM     23 CL   UNL     1       2.671  -4.195   2.056  0.00  0.00    -0.080 Cl
ATOM     24 BR   UNL     1      -0.337  -8.839   1.872  0.00  0.00    -0.050 Br
ENDBRANCH  16  17
ENDBRANCH   6  16
TORSDOF 3
