REMARK  Name = ZINC09331908
REMARK  4 active torsions:
REMARK  status: ('A' for Active; 'I' for Inactive)
REMARK    1  A    between atoms: C_1  and  C_2
REMARK    2  A    between atoms: C_12  and  C_29
REMARK    3  A    between atoms: C_29  and  C_31
REMARK    4  A    between atoms: C_35  and  N_37
REMARK                            x       y       z     vdW  Elec       q    Type
REMARK                         _______ _______ _______ _____ _____    ______ ____
ROOT
ATOM      1  C   UNL     1      -3.833  10.071   3.472  0.00  0.00    +0.045 C 
ATOM      2  C   UNL     1      -2.486   9.762   2.870  0.00  0.00    -0.029 A 
ATOM      3  C   UNL     1      -1.418  10.602   3.106  0.00  0.00    +0.005 A 
ATOM      4  C   UNL     1      -0.179  10.327   2.558  0.00  0.00    +0.001 A 
ATOM      5  C   UNL     1      -0.009   9.203   1.769  0.00  0.00    +0.004 A 
ATOM      6  C   UNL     1      -1.073   8.362   1.531  0.00  0.00    -0.027 A 
ATOM      7  C   UNL     1      -2.325   8.629   2.076  0.00  0.00    +0.039 A 
ATOM      8  N   UNL     1      -3.237   7.641   1.698  0.00  0.00    -0.286 N 
ATOM      9  C   UNL     1      -2.673   6.702   0.915  0.00  0.00    +0.212 C 
ATOM     10  O   UNL     1      -3.224   5.731   0.441  0.00  0.00    -0.277 OA
ATOM     11  C   UNL     1      -1.228   7.090   0.740  0.00  0.00    +0.052 C 
ATOM     12  C   UNL     1      -0.296   5.997   1.270  0.00  0.00    +0.080 C 
ATOM     13  C   UNL     1       0.269   5.311   0.021  0.00  0.00    +0.071 C 
ATOM     14  C   UNL     1      -0.054   3.842   0.012  0.00  0.00    -0.012 A 
ATOM     15  C   UNL     1      -1.234   3.133   0.019  0.00  0.00    +0.006 A 
ATOM     16  C   UNL     1      -1.211   1.750   0.001  0.00  0.00    +0.000 A 
ATOM     17  C   UNL     1       0.000   1.082  -0.015  0.00  0.00    +0.002 A 
ATOM     18  C   UNL     1       1.185   1.789  -0.022  0.00  0.00    +0.023 A 
ATOM     19  C   UNL     1       1.170   3.182  -0.009  0.00  0.00    +0.038 A 
ATOM     20  N   UNL     1       2.217   4.105  -0.015  0.00  0.00    -0.285 N 
ATOM     21  C   UNL     1       1.774   5.376   0.001  0.00  0.00    +0.227 C 
ATOM     22  O   UNL     1       2.455   6.380  -0.000  0.00  0.00    -0.275 OA
ATOM     23  C   UNL     1      -0.337   6.028  -1.182  0.00  0.00    -0.046 C 
ATOM     24  C   UNL     1      -2.149   7.573  -1.431  0.00  0.00    -0.076 C 
ATOM     25  C   UNL     1      -2.388   6.375  -2.373  0.00  0.00    -0.020 C 
ATOM     26  C   UNL     1      -1.555   5.241  -1.717  0.00  0.00    -0.016 C 
ATOM     27  H   UNL     1      -4.168   7.633   1.967  0.00  0.00    +0.155 HD
ATOM     28  H   UNL     1       3.156   3.860  -0.028  0.00  0.00    +0.155 HD
ATOM     29  N   UNL     1      -0.912   7.276  -0.676  0.00  0.00    +0.395 N 
ATOM     30  H   UNL     1      -0.243   8.046  -0.788  0.00  0.00    -0.079 HD
ENDROOT
BRANCH  12  31
ATOM     31  C   UNL     1       0.819   6.607   2.081  0.00  0.00    +0.167 C 
ATOM     32  O   UNL     1       1.590   7.386   1.561  0.00  0.00    -0.292 OA
BRANCH  31  33
ATOM     33  C   UNL     1       0.971   6.259   3.502  0.00  0.00    +0.020 A 
ATOM     34  C   UNL     1       0.080   5.366   4.107  0.00  0.00    +0.011 A 
ATOM     35  C   UNL     1       0.231   5.042   5.438  0.00  0.00    +0.003 A 
ATOM     36  C   UNL     1       1.256   5.604   6.179  0.00  0.00    +0.033 A 
ATOM     37  C   UNL     1       2.139   6.492   5.590  0.00  0.00    +0.127 A 
ATOM     38  C   UNL     1       2.003   6.823   4.258  0.00  0.00    +0.044 A 
BRANCH  37  39
ATOM     39  N   UNL     1       3.232   7.088   6.391  0.00  0.00    +0.056 N 
ATOM     40  O   UNL     1       4.009   7.870   5.874  0.00  0.00    -0.126 OA
ATOM     41  O   UNL     1       3.353   6.797   7.567  0.00  0.00    -0.126 OA
ENDBRANCH  37  39
ENDBRANCH  31  33
ENDBRANCH  12  31
TORSDOF 3
