REMARK  Name = ZINC59169102
REMARK  12 active torsions:
REMARK  status: ('A' for Active; 'I' for Inactive)
REMARK    1  A    between atoms: C_1  and  C_2
REMARK    2  A    between atoms: C_2  and  C_29
REMARK    3  A    between atoms: C_4  and  N_10
REMARK    4  A    between atoms: C_6  and  C_8
REMARK    5  A    between atoms: C_6  and  C_9
REMARK    6  A    between atoms: N_10  and  C_11
REMARK    7  A    between atoms: N_10  and  C_18
REMARK    8  A    between atoms: C_11  and  C_12
REMARK    9  A    between atoms: C_18  and  N_20
REMARK   10  A    between atoms: N_20  and  C_21
REMARK   11  A    between atoms: C_25  and  O_27
REMARK   12  A    between atoms: O_27  and  C_28
REMARK                            x       y       z     vdW  Elec       q    Type
REMARK                         _______ _______ _______ _____ _____    ______ ____
ROOT
ATOM      1  N   UNL     1       2.640  -0.801  -2.548  0.00  0.00    -0.305 N 
ENDROOT
BRANCH   1   5
ATOM      2  C   UNL     1       2.019  -0.081   1.752  0.00  0.00    -0.010 C 
ATOM      3  C   UNL     1       2.504   1.006   0.786  0.00  0.00    -0.072 C 
ATOM      4  C   UNL     1       3.119   0.359  -0.451  0.00  0.00    +0.009 C 
ATOM      5  C   UNL     1       2.024  -0.213  -1.352  0.00  0.00    +0.073 C 
ATOM      6  C   UNL     1       1.104   0.934  -1.771  0.00  0.00    +0.009 C 
ATOM      7  C   UNL     1       0.475   1.585  -0.544  0.00  0.00    -0.072 C 
ATOM      8  N   UNL     1       1.443   1.947   0.476  0.00  0.00    +0.386 N 
ATOM      9  C   UNL     1      -0.618   0.674   0.023  0.00  0.00    -0.010 C 
ATOM     10  C   UNL     1      -0.219   2.885  -1.016  0.00  0.00    -0.010 C 
ATOM     11  C   UNL     1       3.628   1.785   1.507  0.00  0.00    -0.010 C 
ATOM     12  H   UNL     1       0.935   2.155   1.341  0.00  0.00    -0.084 HD
ATOM     13  H   UNL     1       1.874   2.838   0.207  0.00  0.00    -0.084 HD
ENDBRANCH   1   5
BRANCH   1  14
ATOM     14  C   UNL     1       2.580  -2.132  -2.752  0.00  0.00    +0.138 C 
ATOM     15  S   UNL     1       3.380  -2.829  -4.095  0.00  0.00    -0.018 S 
BRANCH  14  16
ATOM     16  N   UNL     1       1.890  -2.914  -1.898  0.00  0.00    -0.297 N 
ATOM     17  H   UNL     1       2.359  -3.423  -1.219  0.00  0.00    +0.154 HD
BRANCH  16  18
ATOM     18  C   UNL     1       0.496  -2.991  -1.992  0.00  0.00    +0.036 A 
ATOM     19  C   UNL     1      -0.168  -2.356  -3.034  0.00  0.00    +0.023 A 
ATOM     20  C   UNL     1      -1.544  -2.433  -3.127  0.00  0.00    +0.005 A 
ATOM     21  C   UNL     1      -2.264  -3.142  -2.183  0.00  0.00    +0.046 A 
ATOM     22  C   UNL     1      -1.606  -3.778  -1.140  0.00  0.00    +0.122 A 
ATOM     23  C   UNL     1      -0.225  -3.708  -1.047  0.00  0.00    +0.069 A 
BRANCH  22  24
ATOM     24  O   UNL     1      -2.316  -4.474  -0.213  0.00  0.00    -0.495 OA
ATOM     25  C   UNL     1      -3.735  -4.508  -0.374  0.00  0.00    +0.277 C 
ENDBRANCH  22  24
ENDBRANCH  16  18
ENDBRANCH  14  16
ENDBRANCH   1  14
BRANCH   1  26
ATOM     26  C   UNL     1       3.321   0.059  -3.519  0.00  0.00    +0.142 C 
BRANCH  26  27
ATOM     27  C   UNL     1       4.787   0.138  -3.180  0.00  0.00    -0.030 A 
ATOM     28  C   UNL     1       5.269   1.206  -2.447  0.00  0.00    +0.005 A 
ATOM     29  C   UNL     1       6.614   1.280  -2.135  0.00  0.00    +0.000 A 
ATOM     30  C   UNL     1       7.476   0.285  -2.556  0.00  0.00    +0.000 A 
ATOM     31  C   UNL     1       6.994  -0.784  -3.288  0.00  0.00    +0.000 A 
ATOM     32  C   UNL     1       5.648  -0.859  -3.596  0.00  0.00    +0.005 A 
ENDBRANCH  26  27
ENDBRANCH   1  26
TORSDOF 7
