REMARK  Name = ZINC12659134
REMARK  16 active torsions:
REMARK  status: ('A' for Active; 'I' for Inactive)
REMARK    1  A    between atoms: C_1  and  C_2
REMARK    2  A    between atoms: C_5  and  S_8
REMARK    3  A    between atoms: S_8  and  N_11
REMARK    4  A    between atoms: N_11  and  C_12
REMARK    5  A    between atoms: C_12  and  C_14
REMARK    6  A    between atoms: C_12  and  C_20
REMARK    7  A    between atoms: C_14  and  C_15
REMARK    8  A    between atoms: C_15  and  C_16
REMARK    9  A    between atoms: C_16  and  N_17
REMARK   10  A    between atoms: N_22  and  C_23
REMARK   11  A    between atoms: C_23  and  C_25
REMARK   12  A    between atoms: C_23  and  C_28
REMARK   13  A    between atoms: C_25  and  C_26
REMARK   14  A    between atoms: C_25  and  C_27
REMARK   15  A    between atoms: C_28  and  O_30
REMARK   16  A    between atoms: O_30  and  C_31
REMARK                            x       y       z     vdW  Elec       q    Type
REMARK                         _______ _______ _______ _____ _____    ______ ____
ROOT
ATOM      1  C   UNL     1       0.734   0.148   0.597  0.00  0.00    +0.162 C 
ENDROOT
BRANCH   1   2
ATOM      2  C   UNL     1       2.008  -0.281   1.278  0.00  0.00    +0.232 C 
ATOM      3  O   UNL     1       1.967  -1.063   2.204  0.00  0.00    -0.274 OA
ATOM      4  N   UNL     1       3.193   0.205   0.859  0.00  0.00    -0.301 N 
ATOM      5  H   UNL     1       3.226   0.831   0.118  0.00  0.00    +0.150 HD
BRANCH   4   6
ATOM      6  C   UNL     1       4.431  -0.211   1.521  0.00  0.00    +0.184 C 
BRANCH   6   7
ATOM      7  C   UNL     1       4.672   0.667   2.751  0.00  0.00    +0.014 C 
ATOM      8  C   UNL     1       3.499   0.518   3.722  0.00  0.00    +0.009 C 
ATOM      9  C   UNL     1       5.966   0.231   3.442  0.00  0.00    +0.009 C 
ENDBRANCH   6   7
BRANCH   6  10
ATOM     10  C   UNL     1       5.587  -0.065   0.565  0.00  0.00    +0.328 C 
ATOM     11  O   UNL     1       5.395   0.346  -0.555  0.00  0.00    -0.249 OA
BRANCH  10  12
ATOM     12  O   UNL     1       6.828  -0.390   0.957  0.00  0.00    -0.467 OA
ATOM     13  C   UNL     1       7.892  -0.224  -0.017  0.00  0.00    +0.280 C 
ENDBRANCH  10  12
ENDBRANCH   6  10
ENDBRANCH   4   6
ENDBRANCH   1   2
BRANCH   1  14
ATOM     14  N   UNL     1      -0.407  -0.515   1.233  0.00  0.00    -0.178 NA
ATOM     15  H   UNL     1      -0.659  -1.412   0.962  0.00  0.00    +0.149 HD
BRANCH  14  16
ATOM     16  S   UNL     1      -1.267   0.267   2.413  0.00  0.00    +0.059 S 
ATOM     17  O   UNL     1      -2.320  -0.608   2.795  0.00  0.00    -0.153 OA
ATOM     18  O   UNL     1      -0.316   0.767   3.343  0.00  0.00    -0.153 OA
BRANCH  16  23
ATOM     19  C   UNL     1      -3.861   5.072  -0.154  0.00  0.00    +0.044 C 
ATOM     20  C   UNL     1      -3.213   3.872   0.487  0.00  0.00    -0.050 A 
ATOM     21  C   UNL     1      -3.827   2.635   0.417  0.00  0.00    +0.005 A 
ATOM     22  C   UNL     1      -3.232   1.534   1.006  0.00  0.00    +0.029 A 
ATOM     23  C   UNL     1      -2.024   1.670   1.663  0.00  0.00    +0.105 A 
ATOM     24  C   UNL     1      -1.413   2.907   1.737  0.00  0.00    +0.029 A 
ATOM     25  C   UNL     1      -2.005   4.007   1.145  0.00  0.00    +0.005 A 
ENDBRANCH  16  23
ENDBRANCH  14  16
ENDBRANCH   1  14
BRANCH   1  26
ATOM     26  C   UNL     1       0.791  -0.241  -0.882  0.00  0.00    +0.031 C 
BRANCH  26  27
ATOM     27  C   UNL     1      -0.463   0.273  -1.593  0.00  0.00    +0.023 C 
BRANCH  27  28
ATOM     28  C   UNL     1      -0.351  -0.011  -3.092  0.00  0.00    +0.115 C 
BRANCH  28  29
ATOM     29  N   UNL     1      -1.510   0.557  -3.785  0.00  0.00    -0.358 N 
ATOM     30  C   UNL     1      -1.582   0.512  -5.157  0.00  0.00    +0.166 C 
ATOM     31  N   UNL     1      -2.615   1.139  -5.813  0.00  0.00    -0.372 N 
ATOM     32  H   UNL     1      -2.228   0.966  -3.275  0.00  0.00    +0.162 HD
ATOM     33  H   UNL     1      -0.634  -0.214  -6.807  0.00  0.00    +0.159 HD
ATOM     34  H   UNL     1      -3.248   1.679  -5.315  0.00  0.00    +0.159 HD
ATOM     35  H   UNL     1      -2.710   1.042  -6.773  0.00  0.00    +0.159 HD
ATOM     36  N   UNL     1      -0.625  -0.152  -5.789  0.00  0.00    -0.372 N 
ATOM     37  H   UNL     1       0.125  -0.604  -5.254  0.00  0.00    +0.159 HD
ENDBRANCH  28  29
ENDBRANCH  27  28
ENDBRANCH  26  27
ENDBRANCH   1  26
TORSDOF 12
