REMARK  Name = ZINC37029042
REMARK  4 active torsions:
REMARK  status: ('A' for Active; 'I' for Inactive)
REMARK    1  A    between atoms: C_1  and  C_2
REMARK    2  A    between atoms: C_5  and  N_9
REMARK    3  A    between atoms: C_10  and  C_12
REMARK    4  A    between atoms: C_15  and  O_19
REMARK                            x       y       z     vdW  Elec       q    Type
REMARK                         _______ _______ _______ _____ _____    ______ ____
ROOT
ATOM      1  N   UNL     1       0.058  -4.170  -0.021  0.00  0.00    -0.287 N 
ATOM      2  C   UNL     1       0.174  -4.849   1.137  0.00  0.00    +0.203 C 
ATOM      3  O   UNL     1       0.172  -4.253   2.193  0.00  0.00    -0.277 OA
ATOM      4  H   UNL     1      -0.007  -4.651  -0.861  0.00  0.00    +0.155 HD
ENDROOT
BRANCH   1   9
ATOM      5  C   UNL     1      -0.050   1.502   0.013  0.00  0.00    +0.045 C 
ATOM      6  C   UNL     1      -0.021  -0.004   0.004  0.00  0.00    -0.037 A 
ATOM      7  C   UNL     1       0.591  -0.677  -1.038  0.00  0.00    +0.006 A 
ATOM      8  C   UNL     1       0.619  -2.058  -1.049  0.00  0.00    +0.023 A 
ATOM      9  C   UNL     1       0.032  -2.771  -0.013  0.00  0.00    +0.034 A 
ATOM     10  C   UNL     1      -0.582  -2.094   1.032  0.00  0.00    +0.038 A 
ATOM     11  C   UNL     1      -0.602  -0.712   1.041  0.00  0.00    +0.018 A 
ATOM     12  I   UNL     1      -1.520   0.312   2.621  0.00  0.00    -0.043 I 
ENDBRANCH   1   9
BRANCH   2  13
ATOM     13  C   UNL     1       0.308  -6.350   1.120  0.00  0.00    +0.019 C 
ATOM     14  C   UNL     1       1.774  -6.758   0.832  0.00  0.00    +0.023 C 
ATOM     15  C   UNL     1       1.835  -8.175   1.462  0.00  0.00    +0.097 C 
ATOM     16  C   UNL     1       0.925  -8.044   2.701  0.00  0.00    -0.050 C 
ATOM     17  N   UNL     1       0.014  -6.908   2.457  0.00  0.00    +0.388 N 
ATOM     18  H   UNL     1       0.159  -6.199   3.160  0.00  0.00    -0.085 HD
ATOM     19  H   UNL     1      -0.944  -7.226   2.490  0.00  0.00    -0.085 HD
BRANCH  15  20
ATOM     20  O   UNL     1       3.172  -8.501   1.845  0.00  0.00    -0.394 OA
ATOM     21  H   UNL     1       3.265  -9.377   2.244  0.00  0.00    +0.210 HD
ENDBRANCH  15  20
ENDBRANCH   2  13
TORSDOF 3
