REMARK  Name = ZINC59331673
REMARK  11 active torsions:
REMARK  status: ('A' for Active; 'I' for Inactive)
REMARK    1  A    between atoms: C_1  and  C_2
REMARK    2  A    between atoms: C_2  and  C_3
REMARK    3  A    between atoms: C_2  and  C_4
REMARK    4  A    between atoms: C_2  and  C_5
REMARK    5  A    between atoms: C_12  and  N_17
REMARK    6  A    between atoms: C_13  and  C_14
REMARK    7  A    between atoms: N_17  and  C_18
REMARK    8  A    between atoms: C_18  and  N_20
REMARK    9  A    between atoms: C_21  and  C_23
REMARK   10  A    between atoms: C_28  and  O_29
REMARK   11  A    between atoms: O_29  and  C_30
REMARK                            x       y       z     vdW  Elec       q    Type
REMARK                         _______ _______ _______ _____ _____    ______ ____
ROOT
ATOM      1  C   UNL     1       0.718  -0.497  -1.257  0.00  0.00    -0.000 C 
ATOM      2  C   UNL     1      -0.017   0.013  -2.499  0.00  0.00    +0.009 C 
ATOM      3  C   UNL     1       0.538  -0.669  -3.751  0.00  0.00    +0.037 C 
ATOM      4  C   UNL     1       2.052  -0.516  -3.759  0.00  0.00    -0.023 A 
ATOM      5  C   UNL     1       2.731  -0.199  -2.636  0.00  0.00    -0.004 A 
ATOM      6  S   UNL     1       4.426  -0.134  -3.140  0.00  0.00    -0.077 S 
ATOM      7  C   UNL     1       4.255  -0.510  -4.768  0.00  0.00    +0.084 A 
ATOM      8  C   UNL     1       2.890  -0.688  -4.933  0.00  0.00    +0.068 A 
ATOM      9  C   UNL     1       2.158   0.038  -1.273  0.00  0.00    +0.046 C 
ENDROOT
BRANCH   8  10
ATOM     10  C   UNL     1       2.317  -1.035  -6.237  0.00  0.00    +0.244 C 
ATOM     11  O   UNL     1       1.974  -0.155  -7.004  0.00  0.00    -0.270 OA
ATOM     12  N   UNL     1       2.172  -2.328  -6.586  0.00  0.00    -0.325 N 
ATOM     13  H   UNL     1       2.446  -3.030  -5.975  0.00  0.00    +0.145 HD
ATOM     14  H   UNL     1       1.792  -2.558  -7.449  0.00  0.00    +0.145 HD
ENDBRANCH   8  10
BRANCH   1  16
ATOM     15  C   UNL     1      -0.019   1.526   0.010  0.00  0.00    +0.011 C 
ATOM     16  C   UNL     1       0.002  -0.004   0.002  0.00  0.00    -0.035 C 
ATOM     17  C   UNL     1       0.742  -0.511   1.242  0.00  0.00    +0.011 C 
ATOM     18  C   UNL     1      -1.433  -0.534   0.013  0.00  0.00    +0.011 C 
ENDBRANCH   1  16
BRANCH   7  19
ATOM     19  N   UNL     1       5.251  -0.619  -5.726  0.00  0.00    -0.291 N 
ATOM     20  H   UNL     1       5.021  -0.844  -6.641  0.00  0.00    +0.154 HD
BRANCH  19  21
ATOM     21  C   UNL     1       6.538  -0.411  -5.386  0.00  0.00    +0.141 C 
ATOM     22  S   UNL     1       6.944  -0.014  -3.771  0.00  0.00    -0.018 S 
BRANCH  21  23
ATOM     23  N   UNL     1       7.506  -0.517  -6.318  0.00  0.00    -0.263 N 
ATOM     24  C   UNL     1       8.794  -0.309  -5.979  0.00  0.00    +0.253 C 
ATOM     25  O   UNL     1       9.082  -0.027  -4.832  0.00  0.00    -0.270 OA
ATOM     26  H   UNL     1       7.276  -0.742  -7.233  0.00  0.00    +0.157 HD
BRANCH  24  27
ATOM     27  C   UNL     1       9.853  -0.424  -6.998  0.00  0.00    +0.080 A 
ATOM     28  C   UNL     1       9.525  -0.743  -8.319  0.00  0.00    +0.032 A 
ATOM     29  C   UNL     1      10.521  -0.849  -9.267  0.00  0.00    +0.019 A 
ATOM     30  C   UNL     1      11.845  -0.641  -8.916  0.00  0.00    +0.019 A 
ATOM     31  C   UNL     1      12.182  -0.326  -7.615  0.00  0.00    +0.047 A 
ATOM     32  C   UNL     1      11.194  -0.210  -6.649  0.00  0.00    +0.132 A 
ATOM     33 BR   UNL     1      10.076  -1.280 -11.054  0.00  0.00    -0.050 Br
BRANCH  32  34
ATOM     34  O   UNL     1      11.523   0.105  -5.372  0.00  0.00    -0.494 OA
ATOM     35  C   UNL     1      12.909   0.310  -5.090  0.00  0.00    +0.277 C 
ENDBRANCH  32  34
ENDBRANCH  24  27
ENDBRANCH  21  23
ENDBRANCH  19  21
ENDBRANCH   7  19
TORSDOF 7
