REMARK  Name = ZINC10021911
REMARK  3 active torsions:
REMARK  status: ('A' for Active; 'I' for Inactive)
REMARK    1  A    between atoms: C_1  and  S_2
REMARK    2  A    between atoms: S_2  and  C_5
REMARK    3  A    between atoms: C_15  and  C_17
REMARK                            x       y       z     vdW  Elec       q    Type
REMARK                         _______ _______ _______ _____ _____    ______ ____
ROOT
ATOM      1  C   UNL     1       0.845  -0.437  -1.483  0.00  0.00    +0.089 A 
ATOM      2  C   UNL     1       0.139  -0.615  -2.664  0.00  0.00    +0.029 A 
ATOM      3  C   UNL     1       0.770  -0.952  -3.833  0.00  0.00    +0.031 A 
ATOM      4  C   UNL     1       2.173  -1.130  -3.871  0.00  0.00    +0.080 A 
ATOM      5  C   UNL     1       2.859  -0.941  -2.650  0.00  0.00    +0.043 A 
ATOM      6  C   UNL     1       2.219  -0.598  -1.485  0.00  0.00    +0.044 A 
ATOM      7  S   UNL     1       4.547  -1.247  -3.113  0.00  0.00    -0.052 S 
ATOM      8  C   UNL     1       4.246  -1.596  -4.840  0.00  0.00    +0.166 A 
ATOM      9  N   UNL     1       2.943  -1.459  -4.930  0.00  0.00    -0.225 NA
ATOM     10  N   UNL     1       5.155  -1.926  -5.830  0.00  0.00    -0.261 N 
ATOM     11  C   UNL     1       4.727  -2.155  -7.088  0.00  0.00    +0.250 C 
ATOM     12  O   UNL     1       3.544  -2.072  -7.353  0.00  0.00    -0.270 OA
ATOM     13  H   UNL     1       6.099  -1.993  -5.619  0.00  0.00    +0.157 HD
ENDROOT
BRANCH  11  14
ATOM     14  C   UNL     1       5.697  -2.507  -8.144  0.00  0.00    +0.039 A 
ATOM     15  C   UNL     1       7.060  -2.609  -7.836  0.00  0.00    +0.015 A 
ATOM     16  C   UNL     1       7.966  -2.934  -8.803  0.00  0.00    +0.028 A 
ATOM     17  C   UNL     1       7.542  -3.167 -10.107  0.00  0.00    +0.066 A 
ATOM     18  C   UNL     1       6.177  -3.070 -10.434  0.00  0.00    +0.089 A 
ATOM     19  C   UNL     1       5.253  -2.743  -9.442  0.00  0.00    +0.043 A 
ATOM     20  N   UNL     1       6.067  -3.347 -11.760  0.00  0.00    -0.236 NA
ATOM     21  C   UNL     1       7.244  -3.600 -12.251  0.00  0.00    +0.197 A 
ATOM     22  N   UNL     1       8.189  -3.504 -11.276  0.00  0.00    -0.344 N 
ATOM     23  H   UNL     1       9.142  -3.646 -11.384  0.00  0.00    +0.167 HD
ENDBRANCH  11  14
BRANCH   1  25
ATOM     24  C   UNL     1      -0.022   1.810   0.012  0.00  0.00    +0.200 C 
ATOM     25  S   UNL     1       0.002  -0.004   0.002  0.00  0.00    -0.006 S 
ATOM     26  O   UNL     1       0.835  -0.488   1.046  0.00  0.00    -0.170 OA
ATOM     27  O   UNL     1      -1.315  -0.510  -0.168  0.00  0.00    -0.170 OA
ENDBRANCH   1  25
TORSDOF 2
