REMARK  Name = ZINC07857957
REMARK  8 active torsions:
REMARK  status: ('A' for Active; 'I' for Inactive)
REMARK    1  A    between atoms: C_5  and  C_7
REMARK    2  A    between atoms: C_7  and  N_8
REMARK    3  A    between atoms: N_8  and  C_9
REMARK    4  A    between atoms: N_8  and  C_23
REMARK    5  A    between atoms: C_9  and  C_10
REMARK    6  A    between atoms: N_12  and  C_13
REMARK    7  A    between atoms: C_17  and  S_19
REMARK    8  A    between atoms: S_19  and  N_22
REMARK                            x       y       z     vdW  Elec       q    Type
REMARK                         _______ _______ _______ _____ _____    ______ ____
ROOT
ATOM      1  C   UNL     1       2.721  -4.594   0.468  0.00  0.00    +0.201 C 
ATOM      2  O   UNL     1       3.442  -3.767  -0.049  0.00  0.00    -0.278 OA
ATOM      3  N   UNL     1       2.934  -5.906   0.246  0.00  0.00    -0.287 N 
ATOM      4  H   UNL     1       2.402  -6.570   0.713  0.00  0.00    +0.155 HD
ENDROOT
BRANCH   3   5
ATOM      5  C   UNL     1       3.923  -6.311  -0.656  0.00  0.00    +0.035 A 
ATOM      6  C   UNL     1       5.103  -5.587  -0.768  0.00  0.00    +0.023 A 
ATOM      7  C   UNL     1       6.077  -5.989  -1.660  0.00  0.00    +0.004 A 
ATOM      8  C   UNL     1       5.879  -7.113  -2.442  0.00  0.00    +0.028 A 
ATOM      9  C   UNL     1       4.705  -7.836  -2.334  0.00  0.00    +0.107 A 
ATOM     10  C   UNL     1       3.730  -7.442  -1.439  0.00  0.00    +0.051 A 
BRANCH   9  11
ATOM     11  S   UNL     1       4.457  -9.266  -3.333  0.00  0.00    +0.056 S 
ATOM     12  O   UNL     1       3.052  -9.451  -3.435  0.00  0.00    -0.153 OA
ATOM     13  O   UNL     1       5.290  -9.113  -4.475  0.00  0.00    -0.153 OA
BRANCH  11  14
ATOM     14  N   UNL     1       5.046 -10.562  -2.488  0.00  0.00    -0.204 NA
ATOM     15  H   UNL     1       5.435 -10.432  -1.609  0.00  0.00    +0.144 HD
ATOM     16  H   UNL     1       5.003 -11.452  -2.872  0.00  0.00    +0.144 HD
ENDBRANCH  11  14
ENDBRANCH   9  11
ENDBRANCH   3   5
BRANCH   1  17
ATOM     17  C   UNL     1       1.587  -4.155   1.358  0.00  0.00    +0.020 C 
BRANCH  17  18
ATOM     18  N   UNL     1       1.474  -2.691   1.320  0.00  0.00    +0.390 N 
ATOM     19  H   UNL     1       2.368  -2.278   1.539  0.00  0.00    -0.080 HD
BRANCH  18  20
ATOM     20  C   UNL     1       0.478  -2.251   2.307  0.00  0.00    -0.068 C 
ATOM     21  C   UNL     1       0.851  -1.074   3.211  0.00  0.00    -0.017 C 
ATOM     22  C   UNL     1       0.793  -2.491   3.784  0.00  0.00    -0.017 C 
ENDBRANCH  18  20
BRANCH  18  23
ATOM     23  C   UNL     1       1.054  -2.266  -0.022  0.00  0.00    -0.039 C 
BRANCH  23  28
ATOM     24  C   UNL     1      -0.127   1.320  -0.041  0.00  0.00    +0.000 A 
ATOM     25  C   UNL     1       1.060   2.002  -0.235  0.00  0.00    +0.003 A 
ATOM     26  C   UNL     1       2.246   1.304  -0.360  0.00  0.00    +0.038 A 
ATOM     27  C   UNL     1       2.245  -0.079  -0.291  0.00  0.00    +0.125 A 
ATOM     28  C   UNL     1       1.056  -0.761  -0.097  0.00  0.00    -0.029 A 
ATOM     29  C   UNL     1      -0.129  -0.061   0.028  0.00  0.00    +0.004 A 
ATOM     30  F   UNL     1       3.404  -0.763  -0.414  0.00  0.00    -0.205 F 
ENDBRANCH  23  28
ENDBRANCH  18  23
ENDBRANCH  17  18
ENDBRANCH   1  17
TORSDOF 8
