REMARK  Name = ZINC12520469
REMARK  4 active torsions:
REMARK  status: ('A' for Active; 'I' for Inactive)
REMARK    1  A    between atoms: C_10  and  C_16
REMARK    2  A    between atoms: C_21  and  O_22
REMARK    3  A    between atoms: O_22  and  C_23
REMARK    4  A    between atoms: C_23  and  C_24
REMARK                            x       y       z     vdW  Elec       q    Type
REMARK                         _______ _______ _______ _____ _____    ______ ____
ROOT
ATOM      1  C   UNL     1       1.938  -4.860   1.545  0.00  0.00    +0.002 A 
ATOM      2  C   UNL     1       1.665  -3.529   1.826  0.00  0.00    +0.002 A 
ATOM      3  C   UNL     1       2.494  -2.532   1.358  0.00  0.00    +0.028 A 
ATOM      4  C   UNL     1       3.611  -2.857   0.601  0.00  0.00    +0.072 A 
ATOM      5  C   UNL     1       3.890  -4.205   0.312  0.00  0.00    +0.091 A 
ATOM      6  C   UNL     1       3.040  -5.203   0.795  0.00  0.00    +0.030 A 
ATOM      7  N   UNL     1       5.024  -4.231  -0.440  0.00  0.00    -0.214 NA
ATOM      8  C   UNL     1       5.449  -3.016  -0.628  0.00  0.00    +0.205 A 
ATOM      9  N   UNL     1       4.614  -2.127   0.003  0.00  0.00    -0.288 N 
ATOM     10  C   UNL     1       4.822  -0.675   0.004  0.00  0.00    +0.212 C 
ATOM     11  N   UNL     1       5.821  -0.365  -1.036  0.00  0.00    -0.294 N 
ATOM     12  C   UNL     1       6.886  -1.241  -1.195  0.00  0.00    +0.159 C 
ATOM     13  N   UNL     1       6.564  -2.590  -1.346  0.00  0.00    -0.259 N 
ATOM     14  N   UNL     1       8.120  -0.825  -1.202  0.00  0.00    -0.375 N 
ATOM     15  H   UNL     1       5.736   0.425  -1.592  0.00  0.00    +0.151 HD
ATOM     16  H   UNL     1       8.314   0.120  -1.095  0.00  0.00    +0.158 HD
ATOM     17  H   UNL     1       7.080  -3.188  -1.909  0.00  0.00    +0.158 HD
ATOM     18  H   UNL     1       8.845  -1.459  -1.315  0.00  0.00    +0.158 HD
ENDROOT
BRANCH  10  19
ATOM     19  C   UNL     1       5.333  -0.234   1.352  0.00  0.00    +0.036 A 
ATOM     20  C   UNL     1       5.846  -1.163   2.235  0.00  0.00    +0.026 A 
ATOM     21  C   UNL     1       6.315  -0.759   3.472  0.00  0.00    +0.018 A 
ATOM     22  C   UNL     1       6.270   0.578   3.827  0.00  0.00    +0.019 A 
ATOM     23  C   UNL     1       5.757   1.511   2.947  0.00  0.00    +0.047 A 
ATOM     24  C   UNL     1       5.292   1.107   1.704  0.00  0.00    +0.128 A 
ATOM     25 BR   UNL     1       7.017  -2.034   4.679  0.00  0.00    -0.050 Br
BRANCH  24  26
ATOM     26  O   UNL     1       4.791   2.024   0.834  0.00  0.00    -0.485 OA
BRANCH  26  27
ATOM     27  C   UNL     1       4.872   3.397   1.222  0.00  0.00    +0.284 C 
BRANCH  27  28
ATOM     28  C   UNL     1       4.211   4.255   0.173  0.00  0.00    +0.078 A 
ATOM     29  C   UNL     1       3.753   3.675  -0.995  0.00  0.00    +0.027 A 
ATOM     30  C   UNL     1       3.147   4.472  -1.952  0.00  0.00    +0.003 A 
ATOM     31  C   UNL     1       3.022   5.830  -1.698  0.00  0.00    +0.020 A 
ATOM     32  C   UNL     1       3.504   6.339  -0.507  0.00  0.00    +0.111 A 
ATOM     33  N   UNL     1       4.071   5.549   0.384  0.00  0.00    -0.256 NA
ENDBRANCH  27  28
ENDBRANCH  26  27
ENDBRANCH  24  26
ENDBRANCH  10  19
TORSDOF 4
