REMARK  Name = ZINC64601252
REMARK  5 active torsions:
REMARK  status: ('A' for Active; 'I' for Inactive)
REMARK    1  A    between atoms: C_1  and  C_2
REMARK    2  A    between atoms: C_11  and  C_13
REMARK    3  A    between atoms: N_15  and  C_16
REMARK    4  A    between atoms: N_15  and  C_17
REMARK    5  A    between atoms: C_21  and  C_23
REMARK                            x       y       z     vdW  Elec       q    Type
REMARK                         _______ _______ _______ _____ _____    ______ ____
ROOT
ATOM      1  C   UNL     1       0.027   1.544   0.025  0.00  0.00    +0.033 C 
ATOM      2  C   UNL     1      -0.016   0.015   0.019  0.00  0.00    +0.104 C 
ATOM      3  C   UNL     1       0.705  -0.519  -1.218  0.00  0.00    -0.017 A 
ATOM      4  C   UNL     1       0.172  -0.443  -2.504  0.00  0.00    +0.013 A 
ATOM      5  C   UNL     1       0.870  -0.933  -3.554  0.00  0.00    +0.046 A 
ATOM      6  S   UNL     1       2.350  -1.542  -2.761  0.00  0.00    -0.101 S 
ATOM      7  C   UNL     1       1.928  -1.102  -1.096  0.00  0.00    -0.004 A 
ATOM      8  C   UNL     1       2.721  -1.321   0.151  0.00  0.00    +0.062 C 
ATOM      9  C   UNL     1       2.145  -0.431   1.264  0.00  0.00    +0.114 C 
ATOM     10  N   UNL     1       0.678  -0.507   1.204  0.00  0.00    -0.287 N 
ATOM     11  C   UNL     1      -0.019  -1.048   2.222  0.00  0.00    +0.303 C 
ATOM     12  O   UNL     1      -1.233  -1.024   2.207  0.00  0.00    -0.265 OA
ENDROOT
BRANCH  11  13
ATOM     13  C   UNL     1       0.700  -1.678   3.369  0.00  0.00    +0.306 C 
ATOM     14  O   UNL     1       1.111  -2.817   3.277  0.00  0.00    -0.265 OA
ATOM     15  N   UNL     1       0.894  -0.982   4.507  0.00  0.00    -0.267 N 
ATOM     16  C   UNL     1       0.285   0.341   4.669  0.00  0.00    +0.139 C 
BRANCH  15  17
ATOM     17  C   UNL     1       1.676  -1.522   5.532  0.00  0.00    +0.038 A 
ATOM     18  C   UNL     1       2.400  -2.689   5.313  0.00  0.00    +0.023 A 
ATOM     19  C   UNL     1       3.174  -3.227   6.323  0.00  0.00    +0.003 A 
ATOM     20  C   UNL     1       3.235  -2.610   7.556  0.00  0.00    +0.019 A 
ATOM     21  C   UNL     1       2.512  -1.438   7.787  0.00  0.00    +0.054 A 
ATOM     22  C   UNL     1       1.735  -0.891   6.765  0.00  0.00    +0.042 A 
BRANCH  21  23
ATOM     23  C   UNL     1       2.573  -0.796   9.065  0.00  0.00    +0.099 C 
ATOM     24  N   UNL     1       2.621  -0.286  10.079  0.00  0.00    -0.191 NA
ENDBRANCH  21  23
ENDBRANCH  15  17
ENDBRANCH  11  13
TORSDOF 3
