REMARK  Name = ZINC48806166
REMARK  10 active torsions:
REMARK  status: ('A' for Active; 'I' for Inactive)
REMARK    1  A    between atoms: C_1  and  C_2
REMARK    2  A    between atoms: C_7  and  C_8
REMARK    3  A    between atoms: C_8  and  C_10
REMARK    4  A    between atoms: C_8  and  N_11
REMARK    5  A    between atoms: C_12  and  C_14
REMARK    6  A    between atoms: N_16  and  C_17
REMARK    7  A    between atoms: C_21  and  C_23
REMARK    8  A    between atoms: C_23  and  N_24
REMARK    9  A    between atoms: N_24  and  C_25
REMARK   10  A    between atoms: N_24  and  C_26
REMARK                            x       y       z     vdW  Elec       q    Type
REMARK                         _______ _______ _______ _____ _____    ______ ____
ROOT
ATOM      1  C   UNL     1       1.815  -1.075   5.682  0.00  0.00    +0.303 C 
ATOM      2  O   UNL     1       1.797  -2.284   5.574  0.00  0.00    -0.265 OA
ATOM      3  N   UNL     1       2.385  -0.504   6.761  0.00  0.00    -0.278 N 
ATOM      4  H   UNL     1       2.460   0.462   6.816  0.00  0.00    +0.155 HD
ENDROOT
BRANCH   3   5
ATOM      5  C   UNL     1       2.869  -1.302   7.801  0.00  0.00    +0.034 A 
ATOM      6  C   UNL     1       3.447  -2.534   7.521  0.00  0.00    +0.023 A 
ATOM      7  C   UNL     1       3.924  -3.321   8.551  0.00  0.00    +0.002 A 
ATOM      8  C   UNL     1       3.827  -2.884   9.860  0.00  0.00    +0.002 A 
ATOM      9  C   UNL     1       3.251  -1.658  10.142  0.00  0.00    -0.062 A 
ATOM     10  C   UNL     1       2.778  -0.864   9.116  0.00  0.00    +0.025 A 
BRANCH   9  11
ATOM     11  C   UNL     1       3.146  -1.187  11.569  0.00  0.00    -0.044 C 
BRANCH  11  12
ATOM     12  N   UNL     1       4.351  -0.426  11.923  0.00  0.00    +0.379 N 
ATOM     13  C   UNL     1       4.198   0.135  13.272  0.00  0.00    -0.096 C 
ATOM     14  C   UNL     1       5.519  -1.317  11.893  0.00  0.00    -0.096 C 
ATOM     15  H   UNL     1       4.483   0.324  11.261  0.00  0.00    -0.082 HD
ENDBRANCH  11  12
ENDBRANCH   9  11
ENDBRANCH   3   5
BRANCH   1  17
ATOM     16  N   UNL     1       0.635  -0.792   3.540  0.00  0.00    -0.301 N 
ATOM     17  C   UNL     1       1.205  -0.221   4.620  0.00  0.00    +0.300 C 
ATOM     18  O   UNL     1       1.224   0.988   4.728  0.00  0.00    -0.265 OA
ATOM     19  H   UNL     1       0.620  -1.758   3.454  0.00  0.00    +0.150 HD
BRANCH  16  20
ATOM     20  C   UNL     1       0.037   0.046   2.498  0.00  0.00    +0.101 C 
ATOM     21  C   UNL     1      -1.400   0.398   2.888  0.00  0.00    +0.033 C 
BRANCH  20  28
ATOM     22  C   UNL     1       0.007   1.496  -0.001  0.00  0.00    +0.044 C 
ATOM     23  C   UNL     1       0.018  -0.011  -0.004  0.00  0.00    -0.046 A 
ATOM     24  C   UNL     1       0.020  -0.699  -1.203  0.00  0.00    +0.004 A 
ATOM     25  C   UNL     1       0.031  -2.081  -1.206  0.00  0.00    +0.000 A 
ATOM     26  C   UNL     1       0.040  -2.776  -0.011  0.00  0.00    +0.000 A 
ATOM     27  C   UNL     1       0.039  -2.087   1.188  0.00  0.00    +0.006 A 
ATOM     28  C   UNL     1       0.033  -0.705   1.191  0.00  0.00    -0.025 A 
ENDBRANCH  20  28
ENDBRANCH  16  20
ENDBRANCH   1  17
TORSDOF 6
