REMARK  Name = ZINC64995348
REMARK  9 active torsions:
REMARK  status: ('A' for Active; 'I' for Inactive)
REMARK    1  A    between atoms: C_1  and  C_2
REMARK    2  A    between atoms: C_2  and  C_3
REMARK    3  A    between atoms: C_3  and  C_4
REMARK    4  A    between atoms: C_4  and  N_5
REMARK    5  A    between atoms: C_6  and  C_8
REMARK    6  A    between atoms: C_11  and  C_24
REMARK    7  A    between atoms: N_12  and  C_14
REMARK    8  A    between atoms: C_14  and  C_15
REMARK    9  A    between atoms: N_20  and  C_21
REMARK                            x       y       z     vdW  Elec       q    Type
REMARK                         _______ _______ _______ _____ _____    ______ ____
ROOT
ATOM      1  C   UNL     1       2.343  -4.350   3.846  0.00  0.00    +0.058 C 
ATOM      2  C   UNL     1       1.624  -3.861   5.106  0.00  0.00    +0.009 C 
ATOM      3  C   UNL     1       0.216  -4.461   5.144  0.00  0.00    -0.015 C 
ATOM      4  C   UNL     1       0.316  -5.987   5.088  0.00  0.00    -0.071 C 
ATOM      5  N   UNL     1       0.989  -6.392   3.848  0.00  0.00    +0.388 N 
ATOM      6  C   UNL     1       2.365  -5.880   3.838  0.00  0.00    -0.065 C 
ATOM      7  C   UNL     1      -1.089  -6.591   5.125  0.00  0.00    -0.013 C 
ATOM      8  H   UNL     1       0.487  -6.019   3.056  0.00  0.00    -0.081 HD
ENDROOT
BRANCH   1  10
ATOM      9  N   UNL     1       1.471  -2.526   2.420  0.00  0.00    -0.315 N 
ATOM     10  C   UNL     1       1.615  -3.850   2.625  0.00  0.00    +0.214 C 
ATOM     11  O   UNL     1       1.157  -4.641   1.827  0.00  0.00    -0.276 OA
ATOM     12  H   UNL     1       1.837  -1.894   3.058  0.00  0.00    +0.149 HD
BRANCH   9  13
ATOM     13  C   UNL     1       0.763  -2.041   1.233  0.00  0.00    +0.104 C 
BRANCH  13  14
ATOM     14  C   UNL     1       0.742  -0.511   1.242  0.00  0.00    +0.018 C 
BRANCH  14  16
ATOM     15  C   UNL     1      -0.019   1.526   0.010  0.00  0.00    +0.004 C 
ATOM     16  C   UNL     1       0.002  -0.004   0.002  0.00  0.00    -0.002 C 
ENDBRANCH  14  16
ENDBRANCH  13  14
ENDBRANCH   9  13
ENDBRANCH   1  10
BRANCH   5  17
ATOM     17  C   UNL     1       1.013  -7.858   3.762  0.00  0.00    +0.019 C 
BRANCH  17  18
ATOM     18  C   UNL     1       1.593  -8.274   2.435  0.00  0.00    +0.204 C 
ATOM     19  O   UNL     1       1.951  -7.432   1.639  0.00  0.00    -0.277 OA
ATOM     20  N   UNL     1       1.714  -9.582   2.132  0.00  0.00    -0.242 N 
ATOM     21  C   UNL     1       2.233  -9.954   0.945  0.00  0.00    +0.306 C 
ATOM     22  O   UNL     1       2.591  -9.110   0.147  0.00  0.00    -0.252 OA
ATOM     23  N   UNL     1       2.354 -11.261   0.643  0.00  0.00    -0.296 N 
ATOM     24  H   UNL     1       1.428 -10.255   2.769  0.00  0.00    +0.159 HD
ATOM     25  H   UNL     1       2.068 -11.935   1.279  0.00  0.00    +0.151 HD
BRANCH  23  26
ATOM     26  C   UNL     1       2.917 -11.666  -0.648  0.00  0.00    +0.075 C 
ATOM     27  C   UNL     1       2.216 -12.797  -1.402  0.00  0.00    +0.024 C 
ATOM     28  C   UNL     1       3.569 -13.048  -0.732  0.00  0.00    +0.024 C 
ENDBRANCH  23  26
ENDBRANCH  17  18
ENDBRANCH   5  17
TORSDOF 7
