REMARK  Name = ZINC63133524
REMARK  9 active torsions:
REMARK  status: ('A' for Active; 'I' for Inactive)
REMARK    1  A    between atoms: C_1  and  O_2
REMARK    2  A    between atoms: O_2  and  C_3
REMARK    3  A    between atoms: C_7  and  C_11
REMARK    4  A    between atoms: C_8  and  O_9
REMARK    5  A    between atoms: O_9  and  C_10
REMARK    6  A    between atoms: N_13  and  C_14
REMARK    7  A    between atoms: C_14  and  C_15
REMARK    8  A    between atoms: C_15  and  C_17
REMARK    9  A    between atoms: C_15  and  C_24
REMARK                            x       y       z     vdW  Elec       q    Type
REMARK                         _______ _______ _______ _____ _____    ______ ____
ROOT
ATOM      1  C   UNL     1      -5.301  -6.669   0.033  0.00  0.00    +0.066 C 
ENDROOT
BRANCH   1   2
ATOM      2  C   UNL     1      -5.375  -8.169  -0.092  0.00  0.00    -0.033 C 
ATOM      3  C   UNL     1      -5.981  -8.874  -1.075  0.00  0.00    -0.000 A 
ATOM      4  C   UNL     1      -6.723  -8.471  -2.275  0.00  0.00    +0.010 A 
ATOM      5  C   UNL     1      -7.224  -9.428  -3.089  0.00  0.00    +0.001 A 
ATOM      6  C   UNL     1      -7.053 -10.792  -2.815  0.00  0.00    +0.002 A 
ATOM      7  C   UNL     1      -6.382 -11.240  -1.732  0.00  0.00    +0.026 A 
ATOM      8  C   UNL     1      -5.813 -10.320  -0.809  0.00  0.00    +0.043 A 
ATOM      9  N   UNL     1      -5.130 -10.502   0.296  0.00  0.00    -0.380 N 
ATOM     10  C   UNL     1      -4.783  -9.190   0.852  0.00  0.00    +0.145 C 
ATOM     11  H   UNL     1      -4.892 -11.361   0.679  0.00  0.00    +0.160 HD
ENDBRANCH   1   2
BRANCH   1  12
ATOM     12  C   UNL     1      -5.946  -6.240   1.326  0.00  0.00    -0.020 A 
ATOM     13  C   UNL     1      -5.447  -6.696   2.531  0.00  0.00    +0.006 A 
ATOM     14  C   UNL     1      -6.038  -6.302   3.717  0.00  0.00    +0.000 A 
ATOM     15  C   UNL     1      -7.128  -5.453   3.698  0.00  0.00    +0.001 A 
ATOM     16  C   UNL     1      -7.628  -4.997   2.494  0.00  0.00    +0.020 A 
ATOM     17  C   UNL     1      -7.033  -5.385   1.306  0.00  0.00    +0.045 A 
ATOM     18 CL   UNL     1      -7.657  -4.807  -0.207  0.00  0.00    -0.083 Cl
ENDBRANCH   1  12
BRANCH   1  19
ATOM     19  C   UNL     1      -3.836  -6.228   0.022  0.00  0.00    +0.117 C 
BRANCH  19  22
ATOM     20  C   UNL     1      -2.568  -4.147   0.016  0.00  0.00    +0.248 C 
ATOM     21  O   UNL     1      -1.545  -4.805   0.007  0.00  0.00    -0.270 OA
ATOM     22  N   UNL     1      -3.766  -4.765   0.024  0.00  0.00    -0.310 N 
ATOM     23  H   UNL     1      -4.582  -4.240   0.030  0.00  0.00    +0.149 HD
BRANCH  20  28
ATOM     24  C   UNL     1      -1.201  -0.638   0.010  0.00  0.00    +0.162 A 
ATOM     25  C   UNL     1      -2.373   0.100   0.019  0.00  0.00    +0.049 A 
ATOM     26  C   UNL     1      -3.602  -0.538   0.028  0.00  0.00    +0.005 A 
ATOM     27  C   UNL     1      -3.671  -1.914   0.026  0.00  0.00    +0.017 A 
ATOM     28  C   UNL     1      -2.498  -2.673   0.017  0.00  0.00    +0.082 A 
ATOM     29  C   UNL     1      -1.255  -2.028   0.003  0.00  0.00    +0.174 A 
BRANCH  24  31
ATOM     30  C   UNL     1      -0.017   1.425   0.010  0.00  0.00    +0.277 C 
ATOM     31  O   UNL     1       0.002  -0.004   0.002  0.00  0.00    -0.491 OA
ENDBRANCH  24  31
BRANCH  29  32
ATOM     32  O   UNL     1      -0.109  -2.756  -0.012  0.00  0.00    -0.491 OA
ATOM     33  C   UNL     1       0.451  -3.110   1.254  0.00  0.00    +0.277 C 
ENDBRANCH  29  32
ENDBRANCH  20  28
ENDBRANCH  19  22
ENDBRANCH   1  19
TORSDOF 7
