REMARK  Name = ZINC19320173
REMARK  10 active torsions:
REMARK  status: ('A' for Active; 'I' for Inactive)
REMARK    1  A    between atoms: C_1  and  C_2
REMARK    2  A    between atoms: C_2  and  C_3
REMARK    3  A    between atoms: C_3  and  C_4
REMARK    4  A    between atoms: C_8  and  C_23
REMARK    5  A    between atoms: C_9  and  O_10
REMARK    6  A    between atoms: C_14  and  C_15
REMARK    7  A    between atoms: C_18  and  O_22
REMARK    8  A    between atoms: C_20  and  O_21
REMARK    9  A    between atoms: C_23  and  C_24
REMARK   10  A    between atoms: C_24  and  C_25
REMARK                            x       y       z     vdW  Elec       q    Type
REMARK                         _______ _______ _______ _____ _____    ______ ____
ROOT
ATOM      1  C   UNL     1       0.739  -2.027  -1.265  0.00  0.00    -0.005 C 
ATOM      2  C   UNL     1      -0.693  -2.572  -1.260  0.00  0.00    -0.065 C 
ATOM      3  N   UNL     1      -0.662  -4.038  -1.241  0.00  0.00    +0.394 N 
ATOM      4  C   UNL     1      -0.016  -4.547  -2.454  0.00  0.00    -0.065 C 
ATOM      5  C   UNL     1       1.440  -4.070  -2.501  0.00  0.00    -0.005 C 
ATOM      6  C   UNL     1       1.455  -2.536  -2.523  0.00  0.00    +0.126 C 
ATOM      7  C   UNL     1       2.154  -4.551  -1.233  0.00  0.00    +0.090 C 
ATOM      8  N   UNL     1       1.434  -4.034  -0.059  0.00  0.00    -0.310 NA
ATOM      9  C   UNL     1       1.485  -2.550  -0.031  0.00  0.00    +0.090 C 
ATOM     10  C   UNL     1       0.046  -4.515  -0.050  0.00  0.00    +0.036 C 
ATOM     11  H   UNL     1      -1.610  -4.384  -1.218  0.00  0.00    -0.079 HD
ENDROOT
BRANCH  10  12
ATOM     12  C   UNL     1       0.039  -6.022  -0.035  0.00  0.00    -0.006 A 
ATOM     13  C   UNL     1      -0.952  -6.715  -0.704  0.00  0.00    +0.010 A 
ATOM     14  C   UNL     1      -0.960  -8.096  -0.693  0.00  0.00    +0.046 A 
ATOM     15  C   UNL     1       0.027  -8.792  -0.009  0.00  0.00    +0.120 A 
ATOM     16  C   UNL     1       1.022  -8.099   0.663  0.00  0.00    +0.091 A 
ATOM     17  C   UNL     1       1.032  -6.713   0.646  0.00  0.00    +0.123 A 
BRANCH  17  18
ATOM     18  O   UNL     1       2.009  -6.031   1.299  0.00  0.00    -0.506 OA
ATOM     19  H   UNL     1       1.797  -5.825   2.219  0.00  0.00    +0.292 HD
ENDBRANCH  17  18
BRANCH  15  20
ATOM     20  O   UNL     1       0.018 -10.151   0.002  0.00  0.00    -0.507 OA
ATOM     21  H   UNL     1       0.514 -10.553  -0.724  0.00  0.00    +0.292 HD
ENDBRANCH  15  20
ENDBRANCH  10  12
BRANCH   6  22
ATOM     22  O   UNL     1       2.800  -2.055  -2.539  0.00  0.00    -0.391 OA
ATOM     23  H   UNL     1       3.311  -2.341  -3.309  0.00  0.00    +0.210 HD
ENDBRANCH   6  22
BRANCH   1  24
ATOM     24  C   UNL     1       0.718  -0.497  -1.257  0.00  0.00    +0.008 C 
BRANCH  24  26
ATOM     25  C   UNL     1      -0.019   1.526   0.010  0.00  0.00    +0.004 C 
ATOM     26  C   UNL     1       0.002  -0.004   0.002  0.00  0.00    -0.003 C 
ENDBRANCH  24  26
ENDBRANCH   1  24
BRANCH   5  27
ATOM     27  C   UNL     1       2.131  -4.620  -3.751  0.00  0.00    +0.008 C 
BRANCH  27  28
ATOM     28  C   UNL     1       2.104  -6.149  -3.718  0.00  0.00    -0.003 C 
ATOM     29  C   UNL     1       2.796  -6.698  -4.967  0.00  0.00    +0.004 C 
ENDBRANCH  27  28
ENDBRANCH   5  27
TORSDOF 8
