REMARK  Name = ZINC09499446
REMARK  4 active torsions:
REMARK  status: ('A' for Active; 'I' for Inactive)
REMARK    1  A    between atoms: C_4  and  C_7
REMARK    2  A    between atoms: C_7  and  N_8
REMARK    3  A    between atoms: C_23  and  C_29
REMARK    4  A    between atoms: N_31  and  C_32
REMARK                            x       y       z     vdW  Elec       q    Type
REMARK                         _______ _______ _______ _____ _____    ______ ____
ROOT
ATOM      1  N   UNL     1      -1.091   2.954  -2.550  0.00  0.00    -0.237 N 
ATOM      2  C   UNL     1      -0.025   3.673  -2.163  0.00  0.00    +0.228 C 
ATOM      3  O   UNL     1       0.844   4.102  -2.891  0.00  0.00    -0.275 OA
ATOM      4  C   UNL     1      -0.096   3.856  -0.662  0.00  0.00    +0.113 C 
ATOM      5  C   UNL     1       1.236   3.491  -0.009  0.00  0.00    +0.100 C 
ATOM      6  C   UNL     1       2.400   3.772  -0.923  0.00  0.00    -0.021 A 
ATOM      7  C   UNL     1       2.386   4.844  -1.785  0.00  0.00    +0.006 A 
ATOM      8  C   UNL     1       3.465   5.070  -2.624  0.00  0.00    +0.000 A 
ATOM      9  C   UNL     1       4.558   4.222  -2.599  0.00  0.00    +0.001 A 
ATOM     10  C   UNL     1       4.585   3.145  -1.737  0.00  0.00    +0.008 A 
ATOM     11  C   UNL     1       3.503   2.910  -0.886  0.00  0.00    -0.019 A 
ATOM     12  C   UNL     1       3.524   1.764   0.045  0.00  0.00    +0.022 C 
ATOM     13  C   UNL     1       2.369   1.335   0.592  0.00  0.00    +0.054 C 
ATOM     14  C   UNL     1      -0.112   1.508  -0.005  0.00  0.00    +0.156 C 
ATOM     15  C   UNL     1      -1.058   2.703  -0.241  0.00  0.00    +0.117 C 
ATOM     16  C   UNL     1      -1.815   2.456  -1.536  0.00  0.00    +0.228 C 
ATOM     17  O   UNL     1      -2.889   1.902  -1.635  0.00  0.00    -0.275 OA
ATOM     18  N   UNL     1       1.108   2.167   0.550  0.00  0.00    -0.383 NA
ATOM     19  H   UNL     1       0.891   2.326   1.541  0.00  0.00    +0.127 HD
ENDROOT
BRANCH  14  20
ATOM     20  C   UNL     1      -0.095   0.623  -1.225  0.00  0.00    +0.237 C 
ATOM     21  O   UNL     1       0.720   0.816  -2.103  0.00  0.00    -0.273 OA
ATOM     22  N   UNL     1      -0.985  -0.382  -1.341  0.00  0.00    -0.284 N 
ATOM     23  H   UNL     1      -1.696  -0.478  -0.688  0.00  0.00    +0.155 HD
BRANCH  22  24
ATOM     24  C   UNL     1      -0.883  -1.289  -2.405  0.00  0.00    +0.037 A 
ATOM     25  C   UNL     1       0.367  -1.697  -2.851  0.00  0.00    +0.027 A 
ATOM     26  C   UNL     1       0.469  -2.595  -3.897  0.00  0.00    +0.051 A 
ATOM     27  C   UNL     1      -0.674  -3.082  -4.509  0.00  0.00    +0.166 A 
ATOM     28  C   UNL     1      -1.929  -2.670  -4.067  0.00  0.00    +0.168 A 
ATOM     29  C   UNL     1      -2.031  -1.774  -3.016  0.00  0.00    +0.072 A 
ATOM     30  O   UNL     1      -2.883  -3.285  -4.825  0.00  0.00    -0.453 OA
ATOM     31  C   UNL     1      -2.214  -4.389  -5.463  0.00  0.00    +0.466 C 
ATOM     32  O   UNL     1      -0.843  -3.957  -5.545  0.00  0.00    -0.453 OA
ENDBRANCH  22  24
ENDBRANCH  14  20
BRANCH   1  33
ATOM     33  C   UNL     1      -1.434   2.732  -3.957  0.00  0.00    +0.151 C 
BRANCH  33  37
ATOM     34  C   UNL     1       1.153  -0.241  -5.604  0.00  0.00    +0.000 A 
ATOM     35  C   UNL     1      -0.195  -0.505  -5.453  0.00  0.00    +0.000 A 
ATOM     36  C   UNL     1      -1.032   0.457  -4.920  0.00  0.00    +0.005 A 
ATOM     37  C   UNL     1      -0.521   1.683  -4.538  0.00  0.00    -0.030 A 
ATOM     38  C   UNL     1       0.826   1.949  -4.693  0.00  0.00    +0.005 A 
ATOM     39  C   UNL     1       1.665   0.985  -5.221  0.00  0.00    +0.000 A 
ENDBRANCH  33  37
ENDBRANCH   1  33
TORSDOF 4
