REMARK  Name = ZINC49563907
REMARK  4 active torsions:
REMARK  status: ('A' for Active; 'I' for Inactive)
REMARK    1  A    between atoms: C_3  and  N_22
REMARK    2  A    between atoms: C_4  and  S_8
REMARK    3  A    between atoms: S_8  and  N_11
REMARK    4  A    between atoms: N_11  and  C_12
REMARK                            x       y       z     vdW  Elec       q    Type
REMARK                         _______ _______ _______ _____ _____    ______ ____
ROOT
ATOM      1  S   UNL     1       3.780  -0.776  -0.080  0.00  0.00    +0.060 S 
ATOM      2  O   UNL     1       4.463  -0.294   1.069  0.00  0.00    -0.153 OA
ATOM      3  O   UNL     1       3.341  -2.123  -0.196  0.00  0.00    -0.153 OA
ENDROOT
BRANCH   1   7
ATOM      4  C   UNL     1       0.106   1.829  -0.590  0.00  0.00    +0.022 A 
ATOM      5  C   UNL     1       0.374   0.833  -1.508  0.00  0.00    +0.026 A 
ATOM      6  C   UNL     1       1.499   0.033  -1.355  0.00  0.00    +0.051 A 
ATOM      7  C   UNL     1       2.352   0.237  -0.278  0.00  0.00    +0.127 A 
ATOM      8  C   UNL     1       2.079   1.234   0.637  0.00  0.00    +0.050 A 
ATOM      9  C   UNL     1       0.958   2.030   0.482  0.00  0.00    +0.043 A 
ATOM     10 CL   UNL     1       0.618   3.283   1.635  0.00  0.00    -0.083 Cl
BRANCH   6  11
ATOM     11  N   UNL     1       1.772  -0.976  -2.283  0.00  0.00    -0.356 N 
ATOM     12  H   UNL     1       1.130  -1.180  -2.981  0.00  0.00    +0.142 HD
ATOM     13  H   UNL     1       2.603  -1.473  -2.229  0.00  0.00    +0.142 HD
ENDBRANCH   6  11
ENDBRANCH   1   7
BRANCH   1  14
ATOM     14  N   UNL     1       4.769  -0.487  -1.376  0.00  0.00    -0.188 NA
ATOM     15  H   UNL     1       4.958  -1.196  -2.010  0.00  0.00    +0.148 HD
BRANCH  14  16
ATOM     16  C   UNL     1       5.360   0.841  -1.564  0.00  0.00    +0.061 C 
ATOM     17  C   UNL     1       6.841   0.853  -1.105  0.00  0.00    +0.000 C 
ATOM     18  C   UNL     1       7.424   2.007  -1.957  0.00  0.00    -0.077 C 
ATOM     19  N   UNL     1       6.738   1.903  -3.263  0.00  0.00    +0.383 N 
ATOM     20  C   UNL     1       5.457   1.186  -3.064  0.00  0.00    -0.050 C 
ATOM     21  C   UNL     1       4.321   2.160  -3.435  0.00  0.00    -0.016 C 
ATOM     22  C   UNL     1       5.022   3.164  -4.388  0.00  0.00    -0.020 C 
ATOM     23  C   UNL     1       6.435   3.266  -3.751  0.00  0.00    -0.078 C 
ATOM     24  H   UNL     1       7.320   1.414  -3.927  0.00  0.00    -0.081 HD
ENDBRANCH  14  16
ENDBRANCH   1  14
TORSDOF 4
