REMARK  Name = ZINC18106752
REMARK  3 active torsions:
REMARK  status: ('A' for Active; 'I' for Inactive)
REMARK    1  A    between atoms: C_1  and  N_2
REMARK    2  A    between atoms: C_7  and  N_19
REMARK    3  A    between atoms: C_10  and  C_11
REMARK                            x       y       z     vdW  Elec       q    Type
REMARK                         _______ _______ _______ _____ _____    ______ ____
ROOT
ATOM      1  C   UNL     1      -3.362   3.456   5.105  0.00  0.00    +0.105 C 
ATOM      2  N   UNL     1      -2.374   2.377   4.970  0.00  0.00    -0.301 NA
ATOM      3  C   UNL     1      -1.430   2.381   6.098  0.00  0.00    +0.089 C 
ATOM      4  C   UNL     1      -0.679   1.045   6.100  0.00  0.00    +0.052 C 
ATOM      5  C   UNL     1      -0.124   0.770   4.729  0.00  0.00    -0.018 A 
ATOM      6  C   UNL     1      -0.578   1.431   3.614  0.00  0.00    +0.011 A 
ATOM      7  C   UNL     1      -0.032   1.118   2.367  0.00  0.00    +0.128 A 
ATOM      8  N   UNL     1       0.923   0.208   2.245  0.00  0.00    -0.216 NA
ATOM      9  C   UNL     1       1.397  -0.446   3.293  0.00  0.00    +0.141 A 
ATOM     10  C   UNL     1       0.890  -0.189   4.578  0.00  0.00    +0.095 A 
ATOM     11  N   UNL     1       2.397  -1.387   3.122  0.00  0.00    -0.314 N 
ATOM     12  C   UNL     1       3.616  -0.769   2.585  0.00  0.00    +0.106 C 
ATOM     13  C   UNL     1       4.741  -1.805   2.546  0.00  0.00    +0.019 C 
ATOM     14  C   UNL     1       4.314  -2.983   1.666  0.00  0.00    +0.003 C 
ATOM     15  C   UNL     1       3.016  -3.579   2.219  0.00  0.00    +0.019 C 
ATOM     16  C   UNL     1       1.941  -2.491   2.267  0.00  0.00    +0.106 C 
ATOM     17  C   UNL     1      -1.651   2.483   3.698  0.00  0.00    +0.123 C 
ENDROOT
BRANCH   7  18
ATOM     18  N   UNL     1      -0.493   1.775   1.238  0.00  0.00    -0.315 N 
ATOM     19  C   UNL     1      -0.533   0.870   0.082  0.00  0.00    +0.106 C 
ATOM     20  C   UNL     1      -1.182   1.585  -1.105  0.00  0.00    +0.019 C 
ATOM     21  C   UNL     1      -0.372   2.840  -1.443  0.00  0.00    +0.003 C 
ATOM     22  C   UNL     1      -0.305   3.743  -0.208  0.00  0.00    +0.019 C 
ATOM     23  C   UNL     1       0.319   2.965   0.953  0.00  0.00    +0.106 C 
ENDBRANCH   7  18
BRANCH  10  24
ATOM     24  C   UNL     1       1.401  -0.894   5.715  0.00  0.00    +0.103 C 
ATOM     25  N   UNL     1       1.805  -1.453   6.618  0.00  0.00    -0.191 NA
ENDBRANCH  10  24
TORSDOF 2
