REMARK  Name = ZINC51046129
REMARK  7 active torsions:
REMARK  status: ('A' for Active; 'I' for Inactive)
REMARK    1  A    between atoms: C_1  and  C_2
REMARK    2  A    between atoms: C_2  and  C_4
REMARK    3  A    between atoms: C_2  and  N_14
REMARK    4  A    between atoms: N_10  and  C_11
REMARK    5  A    between atoms: N_10  and  C_12
REMARK    6  A    between atoms: C_18  and  C_21
REMARK    7  A    between atoms: N_23  and  C_24
REMARK                            x       y       z     vdW  Elec       q    Type
REMARK                         _______ _______ _______ _____ _____    ______ ____
ROOT
ATOM      1  C   UNL     1      -0.019   1.526   0.010  0.00  0.00    -0.005 C 
ATOM      2  C   UNL     1       0.002  -0.004   0.002  0.00  0.00    -0.002 C 
ENDROOT
BRANCH   2   3
ATOM      3  C   UNL     1       0.731  -0.503   1.223  0.00  0.00    +0.123 A 
ATOM      4  N   UNL     1       0.141  -0.463   2.405  0.00  0.00    -0.201 NA
ATOM      5  C   UNL     1       0.781  -0.903   3.486  0.00  0.00    +0.217 A 
ATOM      6  N   UNL     1       2.015  -1.384   3.375  0.00  0.00    -0.181 NA
ATOM      7  C   UNL     1       2.605  -1.423   2.185  0.00  0.00    +0.222 A 
ATOM      8  N   UNL     1       1.956  -0.985   1.108  0.00  0.00    -0.201 NA
ATOM      9  N   UNL     1       3.886  -1.921   2.064  0.00  0.00    -0.306 N 
ATOM     10  C   UNL     1       4.597  -2.407   3.249  0.00  0.00    +0.132 C 
ATOM     11  C   UNL     1       4.535  -1.963   0.752  0.00  0.00    +0.132 C 
ATOM     12  N   UNL     1       0.165  -0.860   4.719  0.00  0.00    -0.327 N 
ATOM     13  H   UNL     1      -0.736  -0.509   4.800  0.00  0.00    +0.145 HD
ATOM     14  H   UNL     1       0.632  -1.181   5.506  0.00  0.00    +0.145 HD
ENDBRANCH   2   3
BRANCH   2  15
ATOM     15  N   UNL     1      -1.376  -0.512   0.012  0.00  0.00    +0.387 N 
ATOM     16  C   UNL     1      -1.355  -1.980   0.013  0.00  0.00    -0.078 C 
ATOM     17  C   UNL     1      -2.785  -2.515   0.106  0.00  0.00    -0.018 C 
ATOM     18  C   UNL     1      -3.590  -2.015  -1.097  0.00  0.00    +0.009 C 
ATOM     19  C   UNL     1      -3.543  -0.485  -1.130  0.00  0.00    +0.058 C 
ATOM     20  C   UNL     1      -2.085  -0.025  -1.177  0.00  0.00    -0.065 C 
ATOM     21  H   UNL     1      -1.848  -0.185   0.842  0.00  0.00    -0.081 HD
BRANCH  19  22
ATOM     22  C   UNL     1      -4.269   0.014  -2.353  0.00  0.00    +0.215 C 
ATOM     23  O   UNL     1      -3.679   0.676  -3.180  0.00  0.00    -0.276 OA
ATOM     24  N   UNL     1      -5.574  -0.275  -2.528  0.00  0.00    -0.312 N 
ATOM     25  H   UNL     1      -6.046  -0.805  -1.867  0.00  0.00    +0.149 HD
BRANCH  24  26
ATOM     26  C   UNL     1      -6.279   0.210  -3.717  0.00  0.00    +0.073 C 
ATOM     27  C   UNL     1      -7.679   0.794  -3.519  0.00  0.00    +0.024 C 
ATOM     28  C   UNL     1      -7.508  -0.575  -4.179  0.00  0.00    +0.024 C 
ENDBRANCH  24  26
ENDBRANCH  19  22
ENDBRANCH   2  15
TORSDOF 4
