REMARK  Name = ZINC63625966
REMARK  7 active torsions:
REMARK  status: ('A' for Active; 'I' for Inactive)
REMARK    1  A    between atoms: C_4  and  C_7
REMARK    2  A    between atoms: C_7  and  C_9
REMARK    3  A    between atoms: C_7  and  S_22
REMARK    4  A    between atoms: N_11  and  C_12
REMARK    5  A    between atoms: C_15  and  S_18
REMARK    6  A    between atoms: S_18  and  N_21
REMARK    7  A    between atoms: S_22  and  C_23
REMARK                            x       y       z     vdW  Elec       q    Type
REMARK                         _______ _______ _______ _____ _____    ______ ____
ROOT
ATOM      1  C   UNL     1       3.705  -0.705  -0.039  0.00  0.00    +0.166 C 
ENDROOT
BRANCH   1   5
ATOM      2  C   UNL     1      -0.037   1.355  -0.003  0.00  0.00    +0.000 A 
ATOM      3  C   UNL     1       1.145   2.070  -0.010  0.00  0.00    +0.000 A 
ATOM      4  C   UNL     1       2.356   1.403  -0.022  0.00  0.00    +0.005 A 
ATOM      5  C   UNL     1       2.385   0.021  -0.026  0.00  0.00    -0.026 A 
ATOM      6  C   UNL     1       1.202  -0.694  -0.018  0.00  0.00    +0.005 A 
ATOM      7  C   UNL     1      -0.009  -0.028  -0.007  0.00  0.00    +0.000 A 
ENDBRANCH   1   5
BRANCH   1   8
ATOM      8  C   UNL     1       3.792  -1.567  -1.273  0.00  0.00    +0.235 C 
ATOM      9  O   UNL     1       3.477  -2.737  -1.219  0.00  0.00    -0.274 OA
ATOM     10  N   UNL     1       4.218  -1.036  -2.436  0.00  0.00    -0.284 N 
ATOM     11  H   UNL     1       4.405  -0.087  -2.497  0.00  0.00    +0.155 HD
BRANCH  10  12
ATOM     12  C   UNL     1       4.391  -1.856  -3.557  0.00  0.00    +0.034 A 
ATOM     13  C   UNL     1       5.425  -1.605  -4.450  0.00  0.00    +0.025 A 
ATOM     14  C   UNL     1       5.593  -2.416  -5.555  0.00  0.00    +0.030 A 
ATOM     15  C   UNL     1       4.733  -3.477  -5.773  0.00  0.00    +0.105 A 
ATOM     16  C   UNL     1       3.703  -3.730  -4.886  0.00  0.00    +0.030 A 
ATOM     17  C   UNL     1       3.533  -2.926  -3.775  0.00  0.00    +0.025 A 
BRANCH  15  18
ATOM     18  S   UNL     1       4.951  -4.510  -7.184  0.00  0.00    +0.056 S 
ATOM     19  O   UNL     1       3.687  -5.101  -7.453  0.00  0.00    -0.153 OA
ATOM     20  O   UNL     1       5.651  -3.736  -8.149  0.00  0.00    -0.153 OA
BRANCH  18  21
ATOM     21  N   UNL     1       5.965  -5.741  -6.738  0.00  0.00    -0.204 NA
ATOM     22  H   UNL     1       5.886  -6.611  -7.161  0.00  0.00    +0.144 HD
ATOM     23  H   UNL     1       6.636  -5.593  -6.054  0.00  0.00    +0.144 HD
ENDBRANCH  18  21
ENDBRANCH  15  18
ENDBRANCH  10  12
ENDBRANCH   1   8
BRANCH   1  24
ATOM     24  S   UNL     1       3.835  -1.750   1.438  0.00  0.00    -0.097 S 
BRANCH  24  25
ATOM     25  C   UNL     1       3.868  -0.565   2.812  0.00  0.00    +0.236 C 
ATOM     26  N   UNL     1       2.671   0.285   2.772  0.00  0.00    -0.355 N 
ATOM     27  C   UNL     1       3.071   1.516   2.631  0.00  0.00    +0.061 A 
ATOM     28  C   UNL     1       2.354   2.794   2.529  0.00  0.00    +0.027 A 
ATOM     29  C   UNL     1       3.051   3.938   2.384  0.00  0.00    +0.002 A 
ATOM     30  C   UNL     1       4.456   3.968   2.326  0.00  0.00    +0.002 A 
ATOM     31  C   UNL     1       5.211   2.854   2.410  0.00  0.00    +0.027 A 
ATOM     32  C   UNL     1       4.558   1.547   2.569  0.00  0.00    +0.061 A 
ATOM     33  N   UNL     1       5.020   0.334   2.674  0.00  0.00    -0.355 N 
ATOM     34  H   UNL     1       1.751  -0.015   2.839  0.00  0.00    +0.162 HD
ATOM     35  H   UNL     1       5.954   0.073   2.664  0.00  0.00    +0.162 HD
ENDBRANCH  24  25
ENDBRANCH   1  24
TORSDOF 7
