REMARK  Name = ZINC49554808
REMARK  10 active torsions:
REMARK  status: ('A' for Active; 'I' for Inactive)
REMARK    1  A    between atoms: C_1  and  C_2
REMARK    2  A    between atoms: C_2  and  C_4
REMARK    3  A    between atoms: C_2  and  N_9
REMARK    4  A    between atoms: C_4  and  C_5
REMARK    5  A    between atoms: C_5  and  N_6
REMARK    6  A    between atoms: N_6  and  C_7
REMARK    7  A    between atoms: N_6  and  C_8
REMARK    8  A    between atoms: N_9  and  S_10
REMARK    9  A    between atoms: S_10  and  C_13
REMARK   10  A    between atoms: C_16  and  N_20
REMARK                            x       y       z     vdW  Elec       q    Type
REMARK                         _______ _______ _______ _____ _____    ______ ____
ROOT
ATOM      1  S   UNL     1      -2.092  -0.923   1.446  0.00  0.00    +0.061 S 
ATOM      2  O   UNL     1      -3.411  -1.347   1.131  0.00  0.00    -0.153 OA
ATOM      3  O   UNL     1      -1.170  -1.752   2.140  0.00  0.00    -0.153 OA
ENDROOT
BRANCH   1   4
ATOM      4  C   UNL     1      -2.251   0.555   2.392  0.00  0.00    +0.133 A 
ATOM      5  C   UNL     1      -1.232   0.942   3.244  0.00  0.00    +0.047 A 
ATOM      6  C   UNL     1      -1.355   2.101   3.988  0.00  0.00    +0.040 A 
ATOM      7  C   UNL     1      -2.501   2.877   3.879  0.00  0.00    +0.027 A 
ATOM      8  C   UNL     1      -3.522   2.486   3.022  0.00  0.00    +0.040 A 
ATOM      9  C   UNL     1      -3.392   1.329   2.277  0.00  0.00    +0.047 A 
ATOM     10 BR   UNL     1      -4.779   0.800   1.105  0.00  0.00    -0.048 Br
ATOM     11 BR   UNL     1       0.328  -0.115   3.392  0.00  0.00    -0.048 Br
BRANCH   7  12
ATOM     12  N   UNL     1      -2.628   4.048   4.630  0.00  0.00    -0.358 N 
ATOM     13  H   UNL     1      -1.915   4.320   5.228  0.00  0.00    +0.142 HD
ATOM     14  H   UNL     1      -3.429   4.589   4.553  0.00  0.00    +0.142 HD
ENDBRANCH   7  12
ENDBRANCH   1   4
BRANCH   1  15
ATOM     15  N   UNL     1      -1.372  -0.511   0.012  0.00  0.00    -0.187 NA
ATOM     16  H   UNL     1      -1.861  -0.606  -0.820  0.00  0.00    +0.148 HD
BRANCH  15  18
ATOM     17  C   UNL     1      -0.019   1.526   0.010  0.00  0.00    +0.025 C 
ATOM     18  C   UNL     1       0.002  -0.004   0.002  0.00  0.00    +0.072 C 
BRANCH  18  19
ATOM     19  C   UNL     1       0.718  -0.497  -1.257  0.00  0.00    +0.001 C 
BRANCH  19  20
ATOM     20  C   UNL     1       0.849  -2.021  -1.205  0.00  0.00    -0.078 C 
BRANCH  20  21
ATOM     21  N   UNL     1       1.537  -2.495  -2.414  0.00  0.00    +0.376 N 
ATOM     22  C   UNL     1       2.915  -1.986  -2.424  0.00  0.00    -0.097 C 
ATOM     23  C   UNL     1       1.557  -3.964  -2.422  0.00  0.00    -0.097 C 
ATOM     24  H   UNL     1       1.049  -2.160  -3.231  0.00  0.00    -0.083 HD
ENDBRANCH  20  21
ENDBRANCH  19  20
ENDBRANCH  18  19
ENDBRANCH  15  18
ENDBRANCH   1  15
TORSDOF 7
