REMARK  Name = ZINC63491439
REMARK  6 active torsions:
REMARK  status: ('A' for Active; 'I' for Inactive)
REMARK    1  A    between atoms: N_9  and  C_12
REMARK    2  A    between atoms: C_12  and  C_13
REMARK    3  A    between atoms: C_13  and  C_14
REMARK    4  A    between atoms: N_16  and  C_17
REMARK    5  A    between atoms: C_17  and  C_18
REMARK    6  A    between atoms: C_18  and  C_19
REMARK                            x       y       z     vdW  Elec       q    Type
REMARK                         _______ _______ _______ _____ _____    ______ ____
ROOT
ATOM      1  C   UNL     1       3.322  -5.957  -1.479  0.00  0.00    +0.215 C 
ATOM      2  O   UNL     1       3.151  -6.673  -0.515  0.00  0.00    -0.276 OA
ATOM      3  N   UNL     1       3.677  -6.495  -2.663  0.00  0.00    -0.315 N 
ATOM      4  H   UNL     1       3.814  -5.923  -3.434  0.00  0.00    +0.149 HD
ENDROOT
BRANCH   1   5
ATOM      5  C   UNL     1       3.137  -4.467  -1.354  0.00  0.00    +0.116 C 
BRANCH   5   6
ATOM      6  C   UNL     1       2.738  -4.121   0.082  0.00  0.00    +0.138 C 
BRANCH   6  15
ATOM      7  C   UNL     1      -0.017   1.377   0.010  0.00  0.00    +0.001 A 
ATOM      8  C   UNL     1       1.168   2.097   0.002  0.00  0.00    +0.002 A 
ATOM      9  C   UNL     1       2.389   1.449  -0.011  0.00  0.00    +0.025 A 
ATOM     10  C   UNL     1       2.425   0.067  -0.018  0.00  0.00    +0.055 A 
ATOM     11  C   UNL     1       1.222  -0.666  -0.013  0.00  0.00    +0.060 A 
ATOM     12  C   UNL     1       0.002  -0.004   0.002  0.00  0.00    +0.015 A 
ATOM     13  C   UNL     1       1.338  -2.138  -0.030  0.00  0.00    +0.263 C 
ATOM     14  O   UNL     1       0.372  -2.844  -0.246  0.00  0.00    -0.269 OA
ATOM     15  N   UNL     1       2.558  -2.672   0.204  0.00  0.00    -0.216 N 
ATOM     16  N   UNL     1       3.624  -1.900   0.550  0.00  0.00    -0.158 NA
ATOM     17  N   UNL     1       3.609  -0.660  -0.027  0.00  0.00    -0.264 N 
ATOM     18  H   UNL     1       3.710  -1.831   1.553  0.00  0.00    +0.168 HD
ATOM     19  H   UNL     1       4.410  -0.294  -0.434  0.00  0.00    +0.168 HD
ENDBRANCH   6  15
ENDBRANCH   5   6
ENDBRANCH   1   5
BRANCH   3  20
ATOM     20  C   UNL     1       3.857  -7.944  -2.785  0.00  0.00    +0.108 C 
BRANCH  20  21
ATOM     21  C   UNL     1       4.256  -8.289  -4.221  0.00  0.00    +0.052 C 
BRANCH  21  22
ATOM     22  C   UNL     1       4.440  -9.779  -4.347  0.00  0.00    -0.040 C 
ATOM     23  C   UNL     1       3.525 -10.679  -4.774  0.00  0.00    +0.000 A 
ATOM     24  C   UNL     1       2.137 -10.544  -5.231  0.00  0.00    +0.030 A 
ATOM     25  C   UNL     1       1.458 -11.654  -5.603  0.00  0.00    +0.042 A 
ATOM     26  C   UNL     1       2.047 -12.927  -5.562  0.00  0.00    +0.022 A 
ATOM     27  C   UNL     1       3.317 -13.130  -5.154  0.00  0.00    +0.027 A 
ATOM     28  C   UNL     1       4.123 -12.033  -4.740  0.00  0.00    +0.043 A 
ATOM     29  N   UNL     1       5.360 -11.973  -4.310  0.00  0.00    -0.380 N 
ATOM     30  C   UNL     1       5.689 -10.571  -4.027  0.00  0.00    +0.144 C 
ATOM     31 CL   UNL     1      -0.184 -11.499  -6.144  0.00  0.00    -0.084 Cl
ATOM     32  H   UNL     1       5.958 -12.728  -4.200  0.00  0.00    +0.160 HD
ENDBRANCH  21  22
ENDBRANCH  20  21
ENDBRANCH   3  20
TORSDOF 6
