REMARK  Name = ZINC09317719
REMARK  7 active torsions:
REMARK  status: ('A' for Active; 'I' for Inactive)
REMARK    1  A    between atoms: C_1  and  C_2
REMARK    2  A    between atoms: C_7  and  N_8
REMARK    3  A    between atoms: C_11  and  C_17
REMARK    4  A    between atoms: C_12  and  O_16
REMARK    5  A    between atoms: C_14  and  O_15
REMARK    6  A    between atoms: C_23  and  O_29
REMARK    7  A    between atoms: O_29  and  C_30
REMARK                            x       y       z     vdW  Elec       q    Type
REMARK                         _______ _______ _______ _____ _____    ______ ____
ROOT
ATOM      1  N   UNL     1       1.237  -2.081  -0.020  0.00  0.00    -0.230 N 
ATOM      2  C   UNL     1       1.237  -2.749  -1.193  0.00  0.00    +0.267 A 
ATOM      3  O   UNL     1       1.216  -2.144  -2.253  0.00  0.00    -0.267 OA
ATOM      4  C   UNL     1       1.259  -4.149  -1.173  0.00  0.00    +0.071 A 
ATOM      5  C   UNL     1       1.282  -4.796   0.051  0.00  0.00    +0.224 A 
ATOM      6  N   UNL     1       1.281  -4.080   1.181  0.00  0.00    -0.161 NA
ATOM      7  C   UNL     1       1.265  -2.766   1.155  0.00  0.00    +0.306 A 
ENDROOT
BRANCH   4   8
ATOM      8  C   UNL     1       1.260  -4.936  -2.458  0.00  0.00    +0.018 C 
ATOM      9  C   UNL     1      -0.036  -4.702  -3.197  0.00  0.00    +0.011 A 
ATOM     10  C   UNL     1      -0.094  -4.479  -4.530  0.00  0.00    -0.022 A 
ATOM     11  C   UNL     1      -1.487  -4.300  -4.874  0.00  0.00    +0.006 A 
ATOM     12  C   UNL     1      -2.141  -4.043  -6.083  0.00  0.00    +0.056 A 
ATOM     13  C   UNL     1      -3.522  -3.930  -6.035  0.00  0.00    +0.121 A 
ATOM     14  C   UNL     1      -4.227  -4.065  -4.845  0.00  0.00    +0.047 A 
ATOM     15  C   UNL     1      -3.597  -4.318  -3.639  0.00  0.00    +0.030 A 
ATOM     16  C   UNL     1      -2.209  -4.436  -3.660  0.00  0.00    +0.047 A 
ATOM     17  N   UNL     1      -1.298  -4.678  -2.669  0.00  0.00    -0.359 N 
ATOM     18  H   UNL     1      -1.514  -4.813  -1.733  0.00  0.00    +0.166 HD
ATOM     19  C   UNL     1       1.122  -4.445  -5.421  0.00  0.00    +0.018 C 
ATOM     20  C   UNL     1       2.290  -5.080  -4.654  0.00  0.00    -0.076 C 
ATOM     21  N   UNL     1       2.385  -4.484  -3.305  0.00  0.00    +0.388 N 
ATOM     22  H   UNL     1       3.271  -4.769  -2.871  0.00  0.00    -0.084 HD
ATOM     23  H   UNL     1       2.357  -3.460  -3.385  0.00  0.00    -0.084 HD
BRANCH  13  24
ATOM     24  O   UNL     1      -4.206  -3.681  -7.184  0.00  0.00    -0.495 OA
ATOM     25  C   UNL     1      -5.628  -3.573  -7.082  0.00  0.00    +0.277 C 
ENDBRANCH  13  24
ENDBRANCH   4   8
BRANCH   1  32
ATOM     26  C   UNL     1       3.723  -0.696  -0.038  0.00  0.00    +0.046 C 
ATOM     27  C   UNL     1       2.405   0.035  -0.021  0.00  0.00    -0.026 A 
ATOM     28  C   UNL     1       2.380   1.416  -0.013  0.00  0.00    +0.007 A 
ATOM     29  C   UNL     1       1.172   2.087   0.002  0.00  0.00    +0.020 A 
ATOM     30  C   UNL     1      -0.017   1.378   0.010  0.00  0.00    +0.043 A 
ATOM     31  C   UNL     1       0.002  -0.004   0.002  0.00  0.00    +0.046 A 
ATOM     32  C   UNL     1       1.215  -0.680  -0.013  0.00  0.00    +0.059 A 
ATOM     33 CL   UNL     1      -1.532   2.225   0.021  0.00  0.00    -0.083 Cl
ENDBRANCH   1  32
BRANCH   7  34
ATOM     34  O   UNL     1       1.271  -2.083   2.318  0.00  0.00    -0.479 OA
ATOM     35  H   UNL     1       1.291  -2.603   3.133  0.00  0.00    +0.295 HD
ENDBRANCH   7  34
BRANCH   5  36
ATOM     36  O   UNL     1       1.304  -6.148   0.104  0.00  0.00    -0.492 OA
ATOM     37  H   UNL     1       1.319  -6.506   1.002  0.00  0.00    +0.294 HD
ENDBRANCH   5  36
TORSDOF 5
