REMARK  Name = ZINC04073697
REMARK  7 active torsions:
REMARK  status: ('A' for Active; 'I' for Inactive)
REMARK    1  A    between atoms: C_5  and  C_7
REMARK    2  A    between atoms: C_7  and  N_43
REMARK    3  A    between atoms: C_8  and  C_9
REMARK    4  A    between atoms: C_8  and  N_43
REMARK    5  A    between atoms: C_9  and  C_10
REMARK    6  A    between atoms: C_9  and  C_17
REMARK    7  A    between atoms: C_9  and  O_24
REMARK                            x       y       z     vdW  Elec       q    Type
REMARK                         _______ _______ _______ _____ _____    ______ ____
ROOT
ATOM      1  C   UNL     1      -0.729   1.579   1.267  0.00  0.00    +0.101 C 
ENDROOT
BRANCH   1   2
ATOM      2  C   UNL     1      -2.143   1.058   1.278  0.00  0.00    -0.013 A 
ATOM      3  C   UNL     1      -2.439  -0.148   0.670  0.00  0.00    +0.008 A 
ATOM      4  C   UNL     1      -3.734  -0.630   0.685  0.00  0.00    +0.020 A 
ATOM      5  C   UNL     1      -4.737   0.101   1.297  0.00  0.00    +0.041 A 
ATOM      6  C   UNL     1      -4.441   1.310   1.900  0.00  0.00    +0.020 A 
ATOM      7  C   UNL     1      -3.144   1.788   1.890  0.00  0.00    +0.008 A 
ATOM      8 CL   UNL     1      -6.365  -0.501   1.310  0.00  0.00    -0.084 Cl
ENDBRANCH   1   2
BRANCH   1   9
ATOM      9  C   UNL     1       0.000   1.080   2.488  0.00  0.00    -0.013 A 
ATOM     10  C   UNL     1       0.683  -0.121   2.442  0.00  0.00    +0.008 A 
ATOM     11  C   UNL     1       1.356  -0.577   3.560  0.00  0.00    +0.020 A 
ATOM     12  C   UNL     1       1.337   0.164   4.728  0.00  0.00    +0.041 A 
ATOM     13  C   UNL     1       0.649   1.363   4.775  0.00  0.00    +0.020 A 
ATOM     14  C   UNL     1      -0.019   1.821   3.655  0.00  0.00    +0.008 A 
ATOM     15 CL   UNL     1       2.178  -0.411   6.134  0.00  0.00    -0.084 Cl
ENDBRANCH   1   9
BRANCH   1  16
ATOM     16  O   UNL     1      -0.748   3.008   1.275  0.00  0.00    -0.381 OA
ATOM     17  H   UNL     1       0.130   3.413   1.268  0.00  0.00    +0.211 HD
ENDBRANCH   1  16
BRANCH   1  18
ATOM     18  C   UNL     1      -0.013   1.086   0.008  0.00  0.00    -0.037 C 
BRANCH  18  19
ATOM     19  N   UNL     1      -0.732   1.579  -1.182  0.00  0.00    +0.384 N 
ATOM     20  H   UNL     1      -1.695   1.223  -1.167  0.00  0.00    -0.085 HD
ATOM     21  H   UNL     1      -0.746   2.605  -1.168  0.00  0.00    -0.085 HD
BRANCH  19  22
ATOM     22  C   UNL     1      -0.062   1.117  -2.413  0.00  0.00    -0.044 C 
BRANCH  22  27
ATOM     23  C   UNL     1      -2.389   1.281  -5.381  0.00  0.00    +0.000 A 
ATOM     24  C   UNL     1      -2.205   2.584  -5.806  0.00  0.00    +0.003 A 
ATOM     25  C   UNL     1      -1.328   3.413  -5.134  0.00  0.00    +0.038 A 
ATOM     26  C   UNL     1      -0.633   2.939  -4.034  0.00  0.00    +0.125 A 
ATOM     27  C   UNL     1      -0.818   1.635  -3.609  0.00  0.00    -0.029 A 
ATOM     28  C   UNL     1      -1.692   0.805  -4.287  0.00  0.00    +0.004 A 
ATOM     29  F   UNL     1       0.226   3.749  -3.376  0.00  0.00    -0.205 F 
ENDBRANCH  22  27
ENDBRANCH  19  22
ENDBRANCH  18  19
ENDBRANCH   1  18
TORSDOF 7
