REMARK  Name = ZINC20617574
REMARK  8 active torsions:
REMARK  status: ('A' for Active; 'I' for Inactive)
REMARK    1  A    between atoms: C_1  and  C_2
REMARK    2  A    between atoms: C_6  and  C_18
REMARK    3  A    between atoms: N_8  and  C_9
REMARK    4  A    between atoms: C_13  and  O_15
REMARK    5  A    between atoms: O_15  and  C_16
REMARK    6  A    between atoms: N_20  and  C_21
REMARK    7  A    between atoms: C_28  and  C_31
REMARK    8  A    between atoms: C_31  and  O_32
REMARK                            x       y       z     vdW  Elec       q    Type
REMARK                         _______ _______ _______ _____ _____    ______ ____
ROOT
ATOM      1  C   UNL     1       0.636  10.406   1.103  0.00  0.00    +0.069 C 
ATOM      2  C   UNL     1       1.972   9.772   0.812  0.00  0.00    +0.081 A 
ATOM      3  C   UNL     1       2.073   8.392   0.712  0.00  0.00    +0.159 A 
ATOM      4  C   UNL     1       3.331   7.823   0.436  0.00  0.00    +0.027 A 
ATOM      5  C   UNL     1       3.459   6.369   0.321  0.00  0.00    +0.030 A 
ATOM      6  C   UNL     1       2.295   5.639   0.224  0.00  0.00    +0.098 A 
ATOM      7  C   UNL     1       1.023   6.389   0.235  0.00  0.00    +0.212 A 
ATOM      8  N   UNL     1      -0.051   5.907  -0.351  0.00  0.00    -0.325 N 
ATOM      9  O   UNL     1       0.995   7.590   0.874  0.00  0.00    -0.437 OA
ATOM     10  C   UNL     1       4.432   8.674   0.279  0.00  0.00    +0.007 A 
ATOM     11  C   UNL     1       4.234  10.034   0.399  0.00  0.00    +0.117 A 
ATOM     12  N   UNL     1       3.038  10.531   0.655  0.00  0.00    -0.256 NA
ATOM     13  H   UNL     1       0.010   4.973  -0.929  0.00  0.00    +0.169 HD
ENDROOT
BRANCH   8  14
ATOM     14  C   UNL     1      -1.244   6.567  -0.242  0.00  0.00    +0.045 A 
ATOM     15  C   UNL     1      -2.071   6.343   0.863  0.00  0.00    +0.026 A 
ATOM     16  C   UNL     1      -3.271   7.014   0.971  0.00  0.00    +0.006 A 
ATOM     17  C   UNL     1      -3.665   7.900  -0.015  0.00  0.00    +0.046 A 
ATOM     18  C   UNL     1      -2.853   8.125  -1.119  0.00  0.00    +0.122 A 
ATOM     19  C   UNL     1      -1.643   7.462  -1.236  0.00  0.00    +0.071 A 
BRANCH  18  20
ATOM     20  O   UNL     1      -3.245   8.998  -2.084  0.00  0.00    -0.495 OA
ATOM     21  C   UNL     1      -4.504   9.647  -1.899  0.00  0.00    +0.277 C 
ENDBRANCH  18  20
ENDBRANCH   8  14
BRANCH   6  22
ATOM     22  C   UNL     1       2.318   4.170   0.106  0.00  0.00    +0.253 C 
ATOM     23  O   UNL     1       3.380   3.577   0.094  0.00  0.00    -0.270 OA
ATOM     24  N   UNL     1       1.162   3.483   0.012  0.00  0.00    -0.281 N 
ATOM     25  H   UNL     1       0.205   4.022  -0.052  0.00  0.00    +0.155 HD
BRANCH  24  26
ATOM     26  C   UNL     1       1.179   2.084  -0.003  0.00  0.00    +0.034 A 
ATOM     27  C   UNL     1       0.155   1.369   0.605  0.00  0.00    +0.024 A 
ATOM     28  C   UNL     1       0.174  -0.012   0.588  0.00  0.00    +0.017 A 
ATOM     29  C   UNL     1       1.212  -0.683  -0.035  0.00  0.00    +0.018 A 
ATOM     30  C   UNL     1       2.232   0.027  -0.642  0.00  0.00    +0.017 A 
ATOM     31  C   UNL     1       2.219   1.408  -0.628  0.00  0.00    +0.024 A 
ATOM     32 BR   UNL     1       1.234  -2.574  -0.057  0.00  0.00    -0.050 Br
ENDBRANCH  24  26
ENDBRANCH   6  22
BRANCH  10  33
ATOM     33  C   UNL     1       5.801   8.118  -0.013  0.00  0.00    +0.193 C 
BRANCH  33  34
ATOM     34  O   UNL     1       6.738   9.191  -0.126  0.00  0.00    -0.390 OA
ATOM     35  H   UNL     1       7.796   8.978  -0.339  0.00  0.00    +0.210 HD
ENDBRANCH  33  34
ENDBRANCH  10  33
TORSDOF 6
