REMARK  Name = ZINC57004403
REMARK  10 active torsions:
REMARK  status: ('A' for Active; 'I' for Inactive)
REMARK    1  A    between atoms: C_1  and  C_2
REMARK    2  A    between atoms: C_2  and  C_3
REMARK    3  A    between atoms: C_2  and  N_4
REMARK    4  A    between atoms: N_4  and  C_5
REMARK    5  A    between atoms: N_4  and  C_6
REMARK    6  A    between atoms: C_6  and  C_7
REMARK    7  A    between atoms: C_12  and  C_13
REMARK    8  A    between atoms: C_13  and  N_14
REMARK    9  A    between atoms: N_17  and  C_18
REMARK   10  A    between atoms: C_27  and  O_29
REMARK                            x       y       z     vdW  Elec       q    Type
REMARK                         _______ _______ _______ _____ _____    ______ ____
ROOT
ATOM      1  N   UNL     1      -3.853   2.627  -0.439  0.00  0.00    -0.295 N 
ATOM      2  C   UNL     1      -3.445   3.818   0.042  0.00  0.00    +0.300 C 
ATOM      3  O   UNL     1      -3.152   3.932   1.217  0.00  0.00    -0.253 OA
ATOM      4  N   UNL     1      -3.361   4.883  -0.779  0.00  0.00    -0.290 N 
ATOM      5  H   UNL     1      -4.086   2.537  -1.376  0.00  0.00    +0.151 HD
ATOM      6  H   UNL     1      -3.594   4.793  -1.716  0.00  0.00    +0.151 HD
ENDROOT
BRANCH   4   7
ATOM      7  C   UNL     1      -2.917   6.178  -0.256  0.00  0.00    +0.134 C 
ATOM      8  C   UNL     1      -4.096   6.959   0.283  0.00  0.00    -0.021 A 
ATOM      9  C   UNL     1      -4.783   6.835   1.480  0.00  0.00    +0.006 A 
ATOM     10  C   UNL     1      -5.846   7.671   1.761  0.00  0.00    +0.000 A 
ATOM     11  C   UNL     1      -6.226   8.635   0.846  0.00  0.00    +0.000 A 
ATOM     12  C   UNL     1      -5.542   8.760  -0.348  0.00  0.00    +0.004 A 
ATOM     13  C   UNL     1      -4.476   7.923  -0.632  0.00  0.00    -0.040 A 
ATOM     14  C   UNL     1      -3.578   7.856  -1.849  0.00  0.00    +0.069 C 
ATOM     15  C   UNL     1      -2.341   7.047  -1.395  0.00  0.00    +0.143 C 
BRANCH  15  16
ATOM     16  O   UNL     1      -1.849   6.229  -2.458  0.00  0.00    -0.389 OA
ATOM     17  H   UNL     1      -1.477   6.728  -3.199  0.00  0.00    +0.210 HD
ENDBRANCH  15  16
ENDBRANCH   4   7
BRANCH   1  18
ATOM     18  C   UNL     1      -3.944   1.469   0.454  0.00  0.00    +0.141 C 
BRANCH  18  24
ATOM     19  C   UNL     1      -3.532  -0.445  -1.106  0.00  0.00    -0.059 A 
ATOM     20  C   UNL     1      -3.969  -1.548  -1.816  0.00  0.00    +0.002 A 
ATOM     21  C   UNL     1      -5.295  -1.932  -1.750  0.00  0.00    +0.000 A 
ATOM     22  C   UNL     1      -6.185  -1.213  -0.973  0.00  0.00    +0.000 A 
ATOM     23  C   UNL     1      -5.748  -0.111  -0.263  0.00  0.00    +0.005 A 
ATOM     24  C   UNL     1      -4.421   0.271  -0.325  0.00  0.00    -0.029 A 
BRANCH  19  25
ATOM     25  C   UNL     1      -2.087  -0.026  -1.178  0.00  0.00    -0.043 C 
BRANCH  25  26
ATOM     26  N   UNL     1      -1.376  -0.512   0.012  0.00  0.00    +0.382 N 
ATOM     27  C   UNL     1      -1.356  -1.981   0.004  0.00  0.00    -0.095 C 
ATOM     28  H   UNL     1      -1.848  -0.187   0.843  0.00  0.00    -0.081 HD
BRANCH  26  30
ATOM     29  C   UNL     1      -0.019   1.526   0.010  0.00  0.00    -0.014 C 
ATOM     30  C   UNL     1       0.002  -0.004   0.002  0.00  0.00    -0.075 C 
ATOM     31  C   UNL     1       0.742  -0.511   1.242  0.00  0.00    -0.014 C 
ENDBRANCH  26  30
ENDBRANCH  25  26
ENDBRANCH  19  25
ENDBRANCH  18  24
ENDBRANCH   1  18
TORSDOF 7
