REMARK  Name = ZINC02889365
REMARK  8 active torsions:
REMARK  status: ('A' for Active; 'I' for Inactive)
REMARK    1  A    between atoms: C_1  and  C_2
REMARK    2  A    between atoms: C_5  and  C_29
REMARK    3  A    between atoms: C_6  and  S_8
REMARK    4  A    between atoms: S_8  and  N_11
REMARK    5  A    between atoms: N_11  and  C_12
REMARK    6  A    between atoms: C_12  and  C_13
REMARK    7  A    between atoms: N_15  and  C_16
REMARK    8  A    between atoms: C_17  and  C_26
REMARK                            x       y       z     vdW  Elec       q    Type
REMARK                         _______ _______ _______ _____ _____    ______ ____
ROOT
ATOM      1  C   UNL     1       1.378   2.048   0.357  0.00  0.00    +0.233 C 
ATOM      2  O   UNL     1       2.452   1.493   0.260  0.00  0.00    -0.274 OA
ATOM      3  N   UNL     1       0.260   1.322   0.555  0.00  0.00    -0.278 N 
ATOM      4  H   UNL     1      -0.600   1.766   0.628  0.00  0.00    +0.155 HD
ENDROOT
BRANCH   3   5
ATOM      5  C   UNL     1       0.337  -0.059   0.646  0.00  0.00    +0.084 A 
ATOM      6  C   UNL     1      -0.689  -0.968   0.851  0.00  0.00    +0.068 A 
ATOM      7  C   UNL     1      -0.343  -2.382   0.902  0.00  0.00    -0.023 A 
ATOM      8  C   UNL     1       0.973  -2.651   0.757  0.00  0.00    -0.004 A 
ATOM      9  S   UNL     1       1.741  -1.068   0.541  0.00  0.00    -0.077 S 
ATOM     10  C   UNL     1       1.642  -3.989   0.788  0.00  0.00    +0.043 C 
ATOM     11  C   UNL     1       0.885  -4.955  -0.134  0.00  0.00    +0.005 C 
ATOM     12  C   UNL     1      -0.205  -5.645   0.681  0.00  0.00    +0.001 C 
ATOM     13  C   UNL     1      -0.742  -4.695   1.750  0.00  0.00    +0.005 C 
ATOM     14  C   UNL     1      -1.386  -3.474   1.103  0.00  0.00    +0.037 C 
BRANCH   6  15
ATOM     15  C   UNL     1      -2.077  -0.521   1.007  0.00  0.00    +0.244 C 
ATOM     16  O   UNL     1      -2.795  -0.412   0.030  0.00  0.00    -0.270 OA
ATOM     17  N   UNL     1      -2.558  -0.233   2.232  0.00  0.00    -0.325 N 
ATOM     18  H   UNL     1      -1.987  -0.320   3.011  0.00  0.00    +0.145 HD
ATOM     19  H   UNL     1      -3.477   0.063   2.336  0.00  0.00    +0.145 HD
ENDBRANCH   6  15
ENDBRANCH   3   5
BRANCH   1  20
ATOM     20  C   UNL     1       1.294   3.549   0.258  0.00  0.00    +0.201 C 
BRANCH  20  21
ATOM     21  N   UNL     1       2.635   4.101   0.044  0.00  0.00    -0.181 NA
ATOM     22  H   UNL     1       3.417   3.554   0.218  0.00  0.00    +0.149 HD
BRANCH  21  23
ATOM     23  S   UNL     1       2.814   5.657  -0.493  0.00  0.00    +0.059 S 
ATOM     24  O   UNL     1       4.212   5.906  -0.554  0.00  0.00    -0.153 OA
ATOM     25  O   UNL     1       1.965   5.797  -1.623  0.00  0.00    -0.153 OA
BRANCH  23  31
ATOM     26  C   UNL     1      -0.678   9.159   1.198  0.00  0.00    +0.044 C 
ATOM     27  C   UNL     1       0.542   8.319   1.480  0.00  0.00    -0.049 A 
ATOM     28  C   UNL     1       1.153   8.382   2.718  0.00  0.00    +0.004 A 
ATOM     29  C   UNL     1       2.272   7.612   2.975  0.00  0.00    +0.005 A 
ATOM     30  C   UNL     1       2.780   6.780   1.995  0.00  0.00    -0.024 A 
ATOM     31  C   UNL     1       2.168   6.717   0.757  0.00  0.00    +0.108 A 
ATOM     32  C   UNL     1       1.052   7.491   0.498  0.00  0.00    +0.032 A 
ATOM     33  C   UNL     1       4.000   5.941   2.276  0.00  0.00    +0.046 C 
ENDBRANCH  23  31
ENDBRANCH  21  23
ENDBRANCH  20  21
ENDBRANCH   1  20
TORSDOF 6
