REMARK  Name = ZINC20831107
REMARK  13 active torsions:
REMARK  status: ('A' for Active; 'I' for Inactive)
REMARK    1  A    between atoms: C_1  and  C_2
REMARK    2  A    between atoms: C_2  and  C_31
REMARK    3  A    between atoms: C_4  and  N_10
REMARK    4  A    between atoms: C_6  and  C_8
REMARK    5  A    between atoms: C_6  and  C_9
REMARK    6  A    between atoms: C_11  and  C_13
REMARK    7  A    between atoms: C_13  and  S_14
REMARK    8  A    between atoms: S_14  and  C_15
REMARK    9  A    between atoms: C_18  and  C_23
REMARK   10  A    between atoms: N_19  and  C_20
REMARK   11  A    between atoms: C_20  and  C_21
REMARK   12  A    between atoms: C_23  and  N_24
REMARK   13  A    between atoms: N_24  and  C_25
REMARK                            x       y       z     vdW  Elec       q    Type
REMARK                         _______ _______ _______ _____ _____    ______ ____
ROOT
ATOM      1  S   UNL     1      -2.413  -0.357  -1.366  0.00  0.00    -0.077 S 
ENDROOT
BRANCH   1   2
ATOM      2  C   UNL     1      -0.934  -0.838  -0.538  0.00  0.00    +0.192 A 
ATOM      3  N   UNL     1      -0.524  -2.067  -0.324  0.00  0.00    -0.122 NA
ATOM      4  N   UNL     1       0.595  -2.049   0.309  0.00  0.00    -0.132 NA
ATOM      5  C   UNL     1       0.965  -0.820   0.529  0.00  0.00    +0.152 A 
ATOM      6  N   UNL     1       0.002  -0.004   0.002  0.00  0.00    -0.301 N 
BRANCH   6   7
ATOM      7  C   UNL     1      -0.018   1.461   0.010  0.00  0.00    +0.152 C 
BRANCH   7   8
ATOM      8  C   UNL     1      -0.723   1.947   1.250  0.00  0.00    -0.013 C 
ATOM      9  C   UNL     1      -0.122   2.782   2.060  0.00  0.00    +0.005 C 
ENDBRANCH   7   8
ENDBRANCH   6   7
BRANCH   5  10
ATOM     10  C   UNL     1       2.221  -0.378   1.235  0.00  0.00    +0.178 C 
BRANCH  10  11
ATOM     11  N   UNL     1       1.955  -0.251   2.670  0.00  0.00    -0.337 N 
ATOM     12  H   UNL     1       0.952  -0.470   3.065  0.00  0.00    +0.147 HD
BRANCH  11  13
ATOM     13  C   UNL     1       2.975   0.149   3.537  0.00  0.00    +0.027 A 
ATOM     14  C   UNL     1       4.244   0.420   3.040  0.00  0.00    +0.023 A 
ATOM     15  C   UNL     1       5.248   0.820   3.899  0.00  0.00    +0.002 A 
ATOM     16  C   UNL     1       4.996   0.939   5.254  0.00  0.00    +0.000 A 
ATOM     17  C   UNL     1       3.735   0.665   5.752  0.00  0.00    +0.002 A 
ATOM     18  C   UNL     1       2.724   0.270   4.898  0.00  0.00    +0.023 A 
ENDBRANCH  11  13
ENDBRANCH  10  11
ENDBRANCH   5  10
ENDBRANCH   1   2
BRANCH   1  19
ATOM     19  C   UNL     1      -3.091  -1.986  -1.771  0.00  0.00    +0.173 C 
BRANCH  19  21
ATOM     20  N   UNL     1      -5.086  -2.903  -2.910  0.00  0.00    -0.312 N 
ATOM     21  C   UNL     1      -4.396  -1.818  -2.506  0.00  0.00    +0.224 C 
ATOM     22  O   UNL     1      -4.826  -0.707  -2.732  0.00  0.00    -0.275 OA
ATOM     23  H   UNL     1      -4.696  -3.911  -2.704  0.00  0.00    +0.149 HD
BRANCH  20  27
ATOM     24  C   UNL     1      -7.785  -2.861  -6.392  0.00  0.00    -0.010 C 
ATOM     25  C   UNL     1      -7.942  -3.845  -5.226  0.00  0.00    -0.072 C 
ATOM     26  C   UNL     1      -6.613  -3.976  -4.487  0.00  0.00    +0.009 C 
ATOM     27  C   UNL     1      -6.358  -2.740  -3.625  0.00  0.00    +0.070 C 
ATOM     28  C   UNL     1      -7.493  -2.613  -2.610  0.00  0.00    +0.009 C 
ATOM     29  C   UNL     1      -8.832  -2.463  -3.328  0.00  0.00    -0.072 C 
ATOM     30  N   UNL     1      -9.036  -3.459  -4.359  0.00  0.00    +0.386 N 
ATOM     31  C   UNL     1      -8.953  -1.044  -3.896  0.00  0.00    -0.010 C 
ATOM     32  C   UNL     1      -9.947  -2.628  -2.271  0.00  0.00    -0.010 C 
ATOM     33  C   UNL     1      -8.274  -5.225  -5.836  0.00  0.00    -0.010 C 
ATOM     34  H   UNL     1      -9.856  -3.046  -4.965  0.00  0.00    -0.084 HD
ATOM     35  H   UNL     1      -9.394  -4.340  -3.807  0.00  0.00    -0.084 HD
ENDBRANCH  20  27
ENDBRANCH  19  21
ENDBRANCH   1  19
TORSDOF 9
