REMARK  Name = ZINC45335513
REMARK  6 active torsions:
REMARK  status: ('A' for Active; 'I' for Inactive)
REMARK    1  A    between atoms: C_4  and  N_7
REMARK    2  A    between atoms: C_8  and  N_22
REMARK    3  A    between atoms: C_10  and  C_12
REMARK    4  A    between atoms: C_23  and  C_25
REMARK    5  A    between atoms: C_25  and  S_26
REMARK    6  A    between atoms: S_26  and  C_27
REMARK                            x       y       z     vdW  Elec       q    Type
REMARK                         _______ _______ _______ _____ _____    ______ ____
ROOT
ATOM      1  N   UNL     1       3.623  -0.651  -0.036  0.00  0.00    -0.218 N 
ATOM      2  C   UNL     1       3.887  -1.836   0.582  0.00  0.00    +0.129 A 
ATOM      3  C   UNL     1       5.182  -2.156   0.324  0.00  0.00    +0.074 A 
ATOM      4  C   UNL     1       5.727  -1.135  -0.477  0.00  0.00    +0.095 A 
ATOM      5  N   UNL     1       4.787  -0.239  -0.696  0.00  0.00    -0.165 NA
ENDROOT
BRANCH   4   6
ATOM      6  C   UNL     1       7.117  -1.082  -0.993  0.00  0.00    +0.002 A 
ATOM      7  C   UNL     1       8.015  -2.106  -0.697  0.00  0.00    +0.010 A 
ATOM      8  C   UNL     1       9.303  -2.042  -1.179  0.00  0.00    +0.004 A 
ATOM      9  C   UNL     1       9.718  -0.968  -1.959  0.00  0.00    -0.044 A 
ATOM     10  C   UNL     1       8.833   0.044  -2.258  0.00  0.00    -0.044 A 
ATOM     11  C   UNL     1       7.532  -0.012  -1.778  0.00  0.00    +0.014 A 
ATOM     12  C   UNL     1       9.212   1.227  -3.111  0.00  0.00    +0.035 C 
ATOM     13  C   UNL     1      10.731   1.362  -3.198  0.00  0.00    +0.005 C 
ATOM     14  C   UNL     1      11.314   0.005  -3.610  0.00  0.00    +0.005 C 
ATOM     15  C   UNL     1      11.144  -0.966  -2.444  0.00  0.00    +0.035 C 
ENDBRANCH   4   6
BRANCH   1  19
ATOM     16  C   UNL     1      -0.017   1.379   0.010  0.00  0.00    +0.000 A 
ATOM     17  C   UNL     1       1.170   2.089   0.002  0.00  0.00    +0.002 A 
ATOM     18  C   UNL     1       2.377   1.419  -0.013  0.00  0.00    +0.028 A 
ATOM     19  C   UNL     1       2.400   0.031  -0.021  0.00  0.00    +0.067 A 
ATOM     20  C   UNL     1       1.206  -0.680  -0.013  0.00  0.00    +0.028 A 
ATOM     21  C   UNL     1       0.002  -0.004   0.002  0.00  0.00    +0.002 A 
ENDBRANCH   1  19
BRANCH   2  22
ATOM     22  N   UNL     1       2.990  -2.584   1.344  0.00  0.00    -0.270 N 
ATOM     23  C   UNL     1       3.386  -3.745   1.903  0.00  0.00    +0.229 C 
ATOM     24  O   UNL     1       4.522  -4.139   1.743  0.00  0.00    -0.275 OA
ATOM     25  H   UNL     1       2.082  -2.269   1.471  0.00  0.00    +0.156 HD
BRANCH  23  26
ATOM     26  C   UNL     1       2.417  -4.554   2.725  0.00  0.00    +0.172 C 
BRANCH  26  27
ATOM     27  S   UNL     1       3.243  -6.050   3.335  0.00  0.00    -0.088 S 
BRANCH  27  28
ATOM     28  C   UNL     1       1.995  -6.876   4.266  0.00  0.00    +0.160 A 
ATOM     29  N   UNL     1       0.743  -6.524   4.483  0.00  0.00    -0.133 NA
ATOM     30  N   UNL     1      -0.071  -7.326   5.249  0.00  0.00    -0.125 NA
ATOM     31  C   UNL     1       0.405  -8.444   5.762  0.00  0.00    +0.180 A 
ATOM     32  S   UNL     1       2.086  -8.420   5.160  0.00  0.00    -0.025 S 
ATOM     33  N   UNL     1      -0.234  -9.390   6.555  0.00  0.00    -0.336 N 
ATOM     34  H   UNL     1      -1.164  -9.269   6.801  0.00  0.00    +0.144 HD
ATOM     35  H   UNL     1       0.251 -10.172   6.862  0.00  0.00    +0.144 HD
ENDBRANCH  27  28
ENDBRANCH  26  27
ENDBRANCH  23  26
ENDBRANCH   2  22
TORSDOF 6
