REMARK  Name = ZINC07141044
REMARK  6 active torsions:
REMARK  status: ('A' for Active; 'I' for Inactive)
REMARK    1  A    between atoms: C_8  and  C_10
REMARK    2  A    between atoms: C_15  and  C_16
REMARK    3  A    between atoms: C_15  and  N_48
REMARK    4  A    between atoms: N_18  and  C_19
REMARK    5  A    between atoms: C_23  and  S_25
REMARK    6  A    between atoms: S_25  and  N_28
REMARK                            x       y       z     vdW  Elec       q    Type
REMARK                         _______ _______ _______ _____ _____    ______ ____
ROOT
ATOM      1  C   UNL     1       2.448   1.223  -0.076  0.00  0.00    +0.020 C 
ENDROOT
BRANCH   1   6
ATOM      2  C   UNL     1       4.788   1.855   0.008  0.00  0.00    -0.011 C 
ATOM      3  C   UNL     1       5.643   2.060  -1.260  0.00  0.00    -0.010 C 
ATOM      4  C   UNL     1       4.848   3.135  -2.048  0.00  0.00    -0.020 C 
ATOM      5  C   UNL     1       3.385   2.744  -1.722  0.00  0.00    -0.077 C 
ATOM      6  N   UNL     1       3.425   2.318  -0.311  0.00  0.00    +0.391 N 
ATOM      7  H   UNL     1       3.187   3.115   0.291  0.00  0.00    -0.080 HD
BRANCH   2  15
ATOM      8  C   UNL     1       3.818  -4.232   0.322  0.00  0.00    +0.002 A 
ATOM      9  C   UNL     1       4.609  -4.370   1.454  0.00  0.00    +0.001 A 
ATOM     10  C   UNL     1       5.221  -3.254   1.995  0.00  0.00    +0.017 A 
ATOM     11  C   UNL     1       5.033  -2.029   1.403  0.00  0.00    +0.039 A 
ATOM     12  C   UNL     1       4.233  -1.859   0.250  0.00  0.00    +0.078 A 
ATOM     13  C   UNL     1       3.627  -3.023  -0.272  0.00  0.00    +0.029 A 
ATOM     14  N   UNL     1       4.155  -0.587  -0.194  0.00  0.00    -0.246 NA
ATOM     15  C   UNL     1       4.778   0.398   0.390  0.00  0.00    +0.066 A 
ATOM     16  S   UNL     1       5.588  -0.373   1.719  0.00  0.00    -0.074 S 
ENDBRANCH   2  15
ENDBRANCH   1   6
BRANCH   1  17
ATOM     17  C   UNL     1       1.050   1.777  -0.174  0.00  0.00    +0.201 C 
ATOM     18  O   UNL     1       0.879   2.953  -0.417  0.00  0.00    -0.278 OA
ATOM     19  N   UNL     1      -0.011   0.966   0.007  0.00  0.00    -0.287 N 
ATOM     20  H   UNL     1       0.122   0.012   0.124  0.00  0.00    +0.155 HD
BRANCH  19  21
ATOM     21  C   UNL     1      -1.305   1.499   0.022  0.00  0.00    +0.035 A 
ATOM     22  C   UNL     1      -1.528   2.769   0.536  0.00  0.00    +0.023 A 
ATOM     23  C   UNL     1      -2.806   3.294   0.544  0.00  0.00    +0.004 A 
ATOM     24  C   UNL     1      -3.863   2.552   0.051  0.00  0.00    +0.028 A 
ATOM     25  C   UNL     1      -3.645   1.285  -0.456  0.00  0.00    +0.107 A 
ATOM     26  C   UNL     1      -2.369   0.756  -0.472  0.00  0.00    +0.051 A 
BRANCH  25  27
ATOM     27  S   UNL     1      -4.996   0.343  -1.082  0.00  0.00    +0.056 S 
ATOM     28  O   UNL     1      -6.002   1.274  -1.455  0.00  0.00    -0.153 OA
ATOM     29  O   UNL     1      -4.447  -0.595  -1.999  0.00  0.00    -0.153 OA
BRANCH  27  30
ATOM     30  N   UNL     1      -5.608  -0.535   0.182  0.00  0.00    -0.204 NA
ATOM     31  H   UNL     1      -5.210  -0.460   1.063  0.00  0.00    +0.144 HD
ATOM     32  H   UNL     1      -6.366  -1.124   0.041  0.00  0.00    +0.144 HD
ENDBRANCH  27  30
ENDBRANCH  25  27
ENDBRANCH  19  21
ENDBRANCH   1  17
TORSDOF 6
