REMARK  Name = ZINC63760108
REMARK  4 active torsions:
REMARK  status: ('A' for Active; 'I' for Inactive)
REMARK    1  A    between atoms: C_6  and  O_24
REMARK    2  A    between atoms: C_7  and  C_11
REMARK    3  A    between atoms: N_17  and  C_20
REMARK    4  A    between atoms: C_20  and  C_21
REMARK                            x       y       z     vdW  Elec       q    Type
REMARK                         _______ _______ _______ _____ _____    ______ ____
ROOT
ATOM      1  C   UNL     1       2.760  -4.406   0.031  0.00  0.00    +0.250 C 
ATOM      2  O   UNL     1       3.768  -5.086  -0.002  0.00  0.00    -0.270 OA
ATOM      3  N   UNL     1       1.550  -4.997   0.084  0.00  0.00    -0.299 N 
ATOM      4  C   UNL     1       0.341  -4.152  -0.000  0.00  0.00    +0.106 C 
ATOM      5  C   UNL     1      -0.728  -4.803  -0.896  0.00  0.00    +0.000 C 
ATOM      6  C   UNL     1      -0.060  -5.438  -2.096  0.00  0.00    -0.077 C 
ATOM      7  N   UNL     1       0.211  -6.845  -1.809  0.00  0.00    +0.386 N 
ATOM      8  C   UNL     1       1.450  -7.096  -1.178  0.00  0.00    -0.059 C 
ATOM      9  C   UNL     1       1.482  -6.438   0.215  0.00  0.00    +0.089 C 
ATOM     10  H   UNL     1      -0.525  -7.197  -1.215  0.00  0.00    -0.081 HD
ENDROOT
BRANCH   1  17
ATOM     11  C   UNL     1       1.813   1.355   1.899  0.00  0.00    +0.001 A 
ATOM     12  C   UNL     1       2.549   1.976   0.892  0.00  0.00    +0.001 A 
ATOM     13  C   UNL     1       3.173   1.246  -0.072  0.00  0.00    +0.008 A 
ATOM     14  C   UNL     1       3.078  -0.157  -0.056  0.00  0.00    -0.014 A 
ATOM     15  C   UNL     1       3.712  -0.936  -1.038  0.00  0.00    +0.054 A 
ATOM     16  C   UNL     1       3.606  -2.295  -1.003  0.00  0.00    +0.130 A 
ATOM     17  C   UNL     1       2.863  -2.934   0.012  0.00  0.00    +0.079 A 
ATOM     18  C   UNL     1       2.228  -2.188   0.992  0.00  0.00    +0.025 A 
ATOM     19  C   UNL     1       2.328  -0.789   0.969  0.00  0.00    -0.017 A 
ATOM     20  C   UNL     1       1.697  -0.000   1.948  0.00  0.00    +0.008 A 
BRANCH  16  21
ATOM     21  O   UNL     1       4.221  -3.042  -1.955  0.00  0.00    -0.506 OA
ATOM     22  H   UNL     1       5.125  -3.301  -1.728  0.00  0.00    +0.292 HD
ENDBRANCH  16  21
ENDBRANCH   1  17
BRANCH   7  23
ATOM     23  C   UNL     1       0.175  -7.592  -3.073  0.00  0.00    +0.018 C 
BRANCH  23  24
ATOM     24  C   UNL     1      -1.229  -7.588  -3.619  0.00  0.00    +0.194 C 
ATOM     25  O   UNL     1      -2.134  -7.118  -2.962  0.00  0.00    -0.278 OA
ATOM     26  N   UNL     1      -1.480  -8.107  -4.837  0.00  0.00    -0.331 N 
ATOM     27  H   UNL     1      -0.757  -8.483  -5.363  0.00  0.00    +0.145 HD
ATOM     28  H   UNL     1      -2.385  -8.105  -5.189  0.00  0.00    +0.145 HD
ENDBRANCH  23  24
ENDBRANCH   7  23
TORSDOF 4
