REMARK  Name = ZINC63529238
REMARK  9 active torsions:
REMARK  status: ('A' for Active; 'I' for Inactive)
REMARK    1  A    between atoms: C_1  and  O_2
REMARK    2  A    between atoms: O_2  and  C_3
REMARK    3  A    between atoms: C_6  and  C_9
REMARK    4  A    between atoms: N_13  and  C_24
REMARK    5  A    between atoms: C_14  and  C_16
REMARK    6  A    between atoms: C_19  and  O_22
REMARK    7  A    between atoms: O_22  and  C_23
REMARK    8  A    between atoms: C_24  and  C_25
REMARK    9  A    between atoms: C_25  and  C_26
REMARK                            x       y       z     vdW  Elec       q    Type
REMARK                         _______ _______ _______ _____ _____    ______ ____
ROOT
ATOM      1  C   UNL     1       2.523  -2.550  -4.026  0.00  0.00    +0.041 C 
ATOM      2  C   UNL     1       2.623  -3.916  -4.191  0.00  0.00    +0.129 C 
ATOM      3  C   UNL     1       3.497  -4.633  -5.137  0.00  0.00    +0.270 C 
ATOM      4  O   UNL     1       4.279  -4.146  -5.933  0.00  0.00    -0.268 OA
ATOM      5  N   UNL     1       3.248  -5.946  -4.933  0.00  0.00    -0.250 N 
ATOM      6  C   UNL     1       2.298  -6.055  -3.945  0.00  0.00    +0.136 C 
ATOM      7  N   UNL     1       1.939  -4.877  -3.509  0.00  0.00    -0.226 NA
ENDROOT
BRANCH   1  11
ATOM      8  C   UNL     1       0.117  -0.964  -0.927  0.00  0.00    +0.120 A 
ATOM      9  C   UNL     1       0.111  -2.332  -1.177  0.00  0.00    +0.046 A 
ATOM     10  C   UNL     1       0.888  -2.852  -2.180  0.00  0.00    +0.011 A 
ATOM     11  C   UNL     1       1.690  -2.001  -2.954  0.00  0.00    -0.023 A 
ATOM     12  C   UNL     1       1.692  -0.623  -2.697  0.00  0.00    +0.011 A 
ATOM     13  C   UNL     1       0.906  -0.114  -1.695  0.00  0.00    +0.046 A 
BRANCH   8  15
ATOM     14  C   UNL     1      -1.441  -1.383   0.817  0.00  0.00    +0.277 C 
ATOM     15  O   UNL     1      -0.655  -0.455   0.067  0.00  0.00    -0.495 OA
ENDBRANCH   8  15
ENDBRANCH   1  11
BRANCH   6  16
ATOM     16  C   UNL     1       1.760  -7.334  -3.439  0.00  0.00    +0.016 A 
ATOM     17  C   UNL     1       2.491  -8.514  -3.601  0.00  0.00    +0.015 A 
ATOM     18  C   UNL     1       1.986  -9.705  -3.127  0.00  0.00    +0.046 A 
ATOM     19  C   UNL     1       0.752  -9.734  -2.489  0.00  0.00    +0.120 A 
ATOM     20  C   UNL     1       0.022  -8.563  -2.326  0.00  0.00    +0.046 A 
ATOM     21  C   UNL     1       0.522  -7.367  -2.792  0.00  0.00    +0.015 A 
BRANCH  19  22
ATOM     22  O   UNL     1       0.257 -10.910  -2.024  0.00  0.00    -0.495 OA
ATOM     23  C   UNL     1      -1.017 -10.868  -1.379  0.00  0.00    +0.277 C 
ENDBRANCH  19  22
ENDBRANCH   6  16
BRANCH   5  24
ATOM     24  C   UNL     1       3.880  -7.060  -5.644  0.00  0.00    +0.119 C 
BRANCH  24  25
ATOM     25  C   UNL     1       5.204  -7.414  -4.963  0.00  0.00    +0.066 C 
BRANCH  25  26
ATOM     26  C   UNL     1       5.899  -8.528  -5.748  0.00  0.00    +0.175 C 
ATOM     27  N   UNL     1       5.077  -9.745  -5.730  0.00  0.00    -0.363 N 
ATOM     28  C   UNL     1       5.777 -10.680  -5.155  0.00  0.00    +0.060 A 
ATOM     29  C   UNL     1       5.500 -12.090  -4.849  0.00  0.00    +0.027 A 
ATOM     30  C   UNL     1       6.439 -12.833  -4.230  0.00  0.00    +0.002 A 
ATOM     31  C   UNL     1       7.692 -12.315  -3.856  0.00  0.00    +0.002 A 
ATOM     32  C   UNL     1       8.047 -11.035  -4.089  0.00  0.00    +0.027 A 
ATOM     33  C   UNL     1       7.103 -10.131  -4.760  0.00  0.00    +0.060 A 
ATOM     34  N   UNL     1       7.172  -8.878  -5.106  0.00  0.00    -0.363 N 
ATOM     35  H   UNL     1       4.178  -9.836  -6.082  0.00  0.00    +0.162 HD
ATOM     36  H   UNL     1       7.926  -8.284  -4.965  0.00  0.00    +0.162 HD
ENDBRANCH  25  26
ENDBRANCH  24  25
ENDBRANCH   5  24
TORSDOF 7
