REMARK  Name = ZINC40735005
REMARK  7 active torsions:
REMARK  status: ('A' for Active; 'I' for Inactive)
REMARK    1  A    between atoms: C_3  and  O_21
REMARK    2  A    between atoms: C_6  and  C_7
REMARK    3  A    between atoms: C_7  and  C_8
REMARK    4  A    between atoms: C_8  and  N_9
REMARK    5  A    between atoms: N_9  and  S_10
REMARK    6  A    between atoms: S_10  and  C_13
REMARK    7  A    between atoms: C_18  and  N_19
REMARK                            x       y       z     vdW  Elec       q    Type
REMARK                         _______ _______ _______ _____ _____    ______ ____
ROOT
ATOM      1  S   UNL     1      -4.032  -1.778  -2.787  0.00  0.00    +0.060 S 
ATOM      2  O   UNL     1      -5.259  -2.454  -2.545  0.00  0.00    -0.153 OA
ATOM      3  O   UNL     1      -3.980  -0.417  -3.193  0.00  0.00    -0.153 OA
ENDROOT
BRANCH   1   4
ATOM      4  C   UNL     1      -3.181  -2.705  -4.020  0.00  0.00    +0.126 A 
ATOM      5  C   UNL     1      -2.664  -2.067  -5.130  0.00  0.00    +0.031 A 
ATOM      6  C   UNL     1      -1.995  -2.794  -6.098  0.00  0.00    +0.017 A 
ATOM      7  C   UNL     1      -1.842  -4.162  -5.958  0.00  0.00    +0.020 A 
ATOM      8  C   UNL     1      -2.358  -4.806  -4.849  0.00  0.00    +0.040 A 
ATOM      9  C   UNL     1      -3.024  -4.077  -3.872  0.00  0.00    +0.052 A 
ATOM     10 BR   UNL     1      -0.927  -5.151  -7.285  0.00  0.00    -0.050 Br
BRANCH   9  11
ATOM     11  N   UNL     1      -3.542  -4.724  -2.748  0.00  0.00    -0.356 N 
ATOM     12  H   UNL     1      -3.930  -4.206  -2.026  0.00  0.00    +0.142 HD
ATOM     13  H   UNL     1      -3.512  -5.692  -2.688  0.00  0.00    +0.142 HD
ENDBRANCH   9  11
ENDBRANCH   1   4
BRANCH   1  14
ATOM     14  N   UNL     1      -3.147  -1.889  -1.392  0.00  0.00    -0.190 NA
ATOM     15  H   UNL     1      -3.519  -2.338  -0.616  0.00  0.00    +0.148 HD
BRANCH  14  16
ATOM     16  C   UNL     1      -1.803  -1.310  -1.329  0.00  0.00    +0.110 C 
BRANCH  16  17
ATOM     17  C   UNL     1      -1.362  -1.204   0.133  0.00  0.00    +0.052 C 
BRANCH  17  23
ATOM     18  C   UNL     1       0.178   0.762   0.291  0.00  0.00    +0.007 A 
ATOM     19  C   UNL     1       1.444   1.311   0.352  0.00  0.00    +0.045 A 
ATOM     20  C   UNL     1       2.559   0.486   0.318  0.00  0.00    +0.117 A 
ATOM     21  C   UNL     1       2.398  -0.889   0.224  0.00  0.00    +0.045 A 
ATOM     22  C   UNL     1       1.130  -1.433   0.164  0.00  0.00    +0.007 A 
ATOM     23  C   UNL     1       0.021  -0.608   0.198  0.00  0.00    -0.046 A 
BRANCH  20  24
ATOM     24  O   UNL     1       3.806   1.023   0.376  0.00  0.00    -0.507 OA
ATOM     25  H   UNL     1       4.150   1.121   1.275  0.00  0.00    +0.292 HD
ENDBRANCH  20  24
ENDBRANCH  17  23
ENDBRANCH  16  17
ENDBRANCH  14  16
ENDBRANCH   1  14
TORSDOF 7
