REMARK  Name = ZINC09672096
REMARK  7 active torsions:
REMARK  status: ('A' for Active; 'I' for Inactive)
REMARK    1  A    between atoms: C_1  and  C_2
REMARK    2  A    between atoms: C_2  and  N_3
REMARK    3  A    between atoms: N_3  and  C_4
REMARK    4  A    between atoms: N_3  and  S_10
REMARK    5  A    between atoms: S_10  and  C_13
REMARK    6  A    between atoms: C_23  and  C_24
REMARK    7  A    between atoms: C_23  and  N_57
REMARK                            x       y       z     vdW  Elec       q    Type
REMARK                         _______ _______ _______ _____ _____    ______ ____
ROOT
ATOM      1  C   UNL     1       6.775  -2.621  -7.249  0.00  0.00    +0.125 A 
ATOM      2  C   UNL     1       5.812  -3.559  -6.899  0.00  0.00    +0.033 A 
ATOM      3  C   UNL     1       5.452  -3.671  -5.569  0.00  0.00    +0.043 A 
ATOM      4  C   UNL     1       6.055  -2.836  -4.633  0.00  0.00    +0.099 A 
ATOM      5  C   UNL     1       7.336  -1.830  -6.267  0.00  0.00    +0.113 A 
ATOM      6  N   UNL     1       5.698  -2.933  -3.293  0.00  0.00    -0.320 N 
ATOM      7  C   UNL     1       6.452  -1.972  -2.476  0.00  0.00    +0.088 C 
ATOM      8  C   UNL     1       6.090  -2.165  -1.002  0.00  0.00    -0.059 C 
ATOM      9  C   UNL     1       3.888  -2.939  -1.644  0.00  0.00    -0.059 C 
ATOM     10  C   UNL     1       4.251  -2.746  -3.118  0.00  0.00    +0.088 C 
ATOM     11  N   UNL     1       7.002  -1.908  -4.951  0.00  0.00    -0.348 N 
ATOM     12  H   UNL     1       7.436  -1.306  -4.242  0.00  0.00    +0.167 HD
ATOM     13  N   UNL     1       4.636  -1.952  -0.836  0.00  0.00    +0.385 N 
ATOM     14  H   UNL     1       4.399  -1.007  -1.159  0.00  0.00    -0.081 HD
ENDROOT
BRANCH   1  15
ATOM     15  S   UNL     1       7.275  -2.443  -8.930  0.00  0.00    +0.076 S 
ATOM     16  O   UNL     1       6.202  -2.927  -9.726  0.00  0.00    -0.150 OA
ATOM     17  O   UNL     1       7.788  -1.125  -9.063  0.00  0.00    -0.150 OA
BRANCH  15  18
ATOM     18  N   UNL     1       8.547  -3.474  -9.174  0.00  0.00    -0.203 N 
BRANCH  18  19
ATOM     19  C   UNL     1       9.858  -3.003  -9.068  0.00  0.00    +0.051 A 
ATOM     20  C   UNL     1      10.720  -3.549  -8.125  0.00  0.00    +0.025 A 
ATOM     21  C   UNL     1      12.017  -3.084  -8.026  0.00  0.00    +0.002 A 
ATOM     22  C   UNL     1      12.454  -2.069  -8.857  0.00  0.00    +0.000 A 
ATOM     23  C   UNL     1      11.597  -1.520  -9.793  0.00  0.00    +0.002 A 
ATOM     24  C   UNL     1      10.301  -1.983  -9.901  0.00  0.00    +0.025 A 
ENDBRANCH  18  19
BRANCH  18  26
ATOM     25  C   UNL     1       8.332  -5.064 -11.020  0.00  0.00    +0.026 C 
ATOM     26  C   UNL     1       8.299  -4.880  -9.501  0.00  0.00    +0.128 C 
ENDBRANCH  18  26
ENDBRANCH  15  18
ENDBRANCH   1  15
BRANCH  13  27
ATOM     27  C   UNL     1       4.266  -2.080   0.589  0.00  0.00    -0.035 C 
BRANCH  27  28
ATOM     28  C   UNL     1       2.833  -1.644   0.760  0.00  0.00    -0.025 A 
ATOM     29  C   UNL     1       1.702  -2.388   0.700  0.00  0.00    +0.011 A 
ATOM     30  C   UNL     1       0.481  -1.768   0.890  0.00  0.00    +0.028 A 
ATOM     31  C   UNL     1       0.452  -0.433   1.131  0.00  0.00    +0.078 A 
ATOM     32  S   UNL     1       2.187  -0.014   1.094  0.00  0.00    -0.084 S 
ATOM     33 CL   UNL     1      -0.917   0.600   1.398  0.00  0.00    -0.076 Cl
ENDBRANCH  27  28
ENDBRANCH  13  27
TORSDOF 6
