REMARK  Name = ZINC39933599
REMARK  9 active torsions:
REMARK  status: ('A' for Active; 'I' for Inactive)
REMARK    1  A    between atoms: C_1  and  C_2
REMARK    2  A    between atoms: C_2  and  C_4
REMARK    3  A    between atoms: C_2  and  S_17
REMARK    4  A    between atoms: N_6  and  C_7
REMARK    5  A    between atoms: C_10  and  S_13
REMARK    6  A    between atoms: S_13  and  N_16
REMARK    7  A    between atoms: S_17  and  C_18
REMARK    8  A    between atoms: C_22  and  C_30
REMARK    9  A    between atoms: N_23  and  C_24
REMARK                            x       y       z     vdW  Elec       q    Type
REMARK                         _______ _______ _______ _____ _____    ______ ____
ROOT
ATOM      1  C   UNL     1      -2.312  -0.163  -0.893  0.00  0.00    +0.242 C 
ATOM      2  N   UNL     1      -1.848  -0.909  -2.074  0.00  0.00    -0.237 N 
ATOM      3  N   UNL     1      -1.587   0.042  -3.068  0.00  0.00    -0.169 NA
ATOM      4  C   UNL     1      -1.830   1.253  -2.641  0.00  0.00    +0.151 C 
ATOM      5  N   UNL     1      -2.284   1.247  -1.316  0.00  0.00    -0.254 N 
ATOM      6  H   UNL     1      -1.744  -1.870  -2.150  0.00  0.00    +0.171 HD
ENDROOT
BRANCH   4   7
ATOM      7  C   UNL     1      -1.661   2.413  -3.413  0.00  0.00    +0.022 C 
ATOM      8  C   UNL     1      -1.304   2.485  -4.760  0.00  0.00    +0.006 A 
ATOM      9  C   UNL     1      -1.015   1.496  -5.724  0.00  0.00    +0.010 A 
ATOM     10  C   UNL     1      -0.689   1.863  -6.990  0.00  0.00    +0.001 A 
ATOM     11  C   UNL     1      -0.631   3.206  -7.369  0.00  0.00    +0.002 A 
ATOM     12  C   UNL     1      -0.895   4.208  -6.496  0.00  0.00    +0.026 A 
ATOM     13  C   UNL     1      -1.244   3.902  -5.155  0.00  0.00    +0.043 A 
ATOM     14  N   UNL     1      -1.542   4.679  -4.132  0.00  0.00    -0.380 N 
ATOM     15  C   UNL     1      -1.834   3.846  -2.961  0.00  0.00    +0.152 C 
ATOM     16  H   UNL     1      -1.567   5.648  -4.152  0.00  0.00    +0.160 HD
ENDBRANCH   4   7
BRANCH   5  17
ATOM     17  C   UNL     1      -2.638   2.357  -0.546  0.00  0.00    +0.038 A 
ATOM     18  C   UNL     1      -1.683   3.312  -0.220  0.00  0.00    +0.023 A 
ATOM     19  C   UNL     1      -2.037   4.409   0.541  0.00  0.00    +0.002 A 
ATOM     20  C   UNL     1      -3.341   4.558   0.978  0.00  0.00    +0.000 A 
ATOM     21  C   UNL     1      -4.294   3.609   0.654  0.00  0.00    +0.002 A 
ATOM     22  C   UNL     1      -3.948   2.513  -0.111  0.00  0.00    +0.023 A 
ENDBRANCH   5  17
BRANCH   1  23
ATOM     23  S   UNL     1      -1.188  -0.428   0.506  0.00  0.00    -0.105 S 
BRANCH  23  25
ATOM     24  C   UNL     1       0.679   1.212  -0.637  0.00  0.00    +0.029 C 
ATOM     25  C   UNL     1       0.465  -0.244  -0.218  0.00  0.00    +0.133 C 
BRANCH  25  26
ATOM     26  C   UNL     1       1.506  -0.632   0.801  0.00  0.00    +0.230 C 
ATOM     27  O   UNL     1       1.225  -0.644   1.980  0.00  0.00    -0.274 OA
ATOM     28  N   UNL     1       2.749  -0.965   0.401  0.00  0.00    -0.285 N 
ATOM     29  H   UNL     1       2.995  -0.887  -0.534  0.00  0.00    +0.155 HD
BRANCH  28  30
ATOM     30  C   UNL     1       3.685  -1.424   1.334  0.00  0.00    +0.034 A 
ATOM     31  C   UNL     1       5.041  -1.224   1.116  0.00  0.00    +0.025 A 
ATOM     32  C   UNL     1       5.962  -1.679   2.039  0.00  0.00    +0.030 A 
ATOM     33  C   UNL     1       5.535  -2.333   3.180  0.00  0.00    +0.105 A 
ATOM     34  C   UNL     1       4.185  -2.534   3.400  0.00  0.00    +0.030 A 
ATOM     35  C   UNL     1       3.258  -2.076   2.484  0.00  0.00    +0.025 A 
BRANCH  33  36
ATOM     36  S   UNL     1       6.713  -2.911   4.356  0.00  0.00    +0.056 S 
ATOM     37  O   UNL     1       6.089  -3.970   5.069  0.00  0.00    -0.153 OA
ATOM     38  O   UNL     1       7.937  -3.082   3.654  0.00  0.00    -0.153 OA
BRANCH  36  39
ATOM     39  N   UNL     1       6.959  -1.688   5.445  0.00  0.00    -0.204 NA
ATOM     40  H   UNL     1       6.481  -0.849   5.348  0.00  0.00    +0.144 HD
ATOM     41  H   UNL     1       7.580  -1.810   6.179  0.00  0.00    +0.144 HD
ENDBRANCH  36  39
ENDBRANCH  33  36
ENDBRANCH  28  30
ENDBRANCH  25  26
ENDBRANCH  23  25
ENDBRANCH   1  23
TORSDOF 8
