REMARK  Name = ZINC25080818
REMARK  9 active torsions:
REMARK  status: ('A' for Active; 'I' for Inactive)
REMARK    1  A    between atoms: C_1  and  N_2
REMARK    2  A    between atoms: N_2  and  C_3
REMARK    3  A    between atoms: N_2  and  C_4
REMARK    4  A    between atoms: C_4  and  C_5
REMARK    5  A    between atoms: C_10  and  C_11
REMARK    6  A    between atoms: C_11  and  N_12
REMARK    7  A    between atoms: C_13  and  C_15
REMARK    8  A    between atoms: N_21  and  S_22
REMARK    9  A    between atoms: S_22  and  C_25
REMARK                            x       y       z     vdW  Elec       q    Type
REMARK                         _______ _______ _______ _____ _____    ______ ____
ROOT
ATOM      1  N   UNL     1       0.165  -1.234  -1.740  0.00  0.00    -0.310 N 
ATOM      2  C   UNL     1       0.768  -0.031  -1.666  0.00  0.00    +0.232 C 
ATOM      3  O   UNL     1       1.576   0.189  -0.788  0.00  0.00    -0.274 OA
ATOM      4  H   UNL     1      -0.504  -1.463  -2.583  0.00  0.00    +0.149 HD
ENDROOT
BRANCH   2   5
ATOM      5  C   UNL     1       0.440   1.040  -2.674  0.00  0.00    +0.165 C 
ATOM      6  C   UNL     1       0.273   2.384  -1.959  0.00  0.00    +0.030 C 
ATOM      7  C   UNL     1       0.078   3.490  -2.999  0.00  0.00    +0.003 C 
ATOM      8  C   UNL     1       1.314   3.571  -3.898  0.00  0.00    +0.017 C 
ATOM      9  C   UNL     1       1.493   2.240  -4.635  0.00  0.00    +0.110 C 
ATOM     10  N   UNL     1       1.534   1.151  -3.648  0.00  0.00    -0.165 NA
BRANCH  10  11
ATOM     11  S   UNL     1       2.792   0.075  -3.632  0.00  0.00    +0.062 S 
ATOM     12  O   UNL     1       2.380  -1.019  -2.824  0.00  0.00    -0.153 OA
ATOM     13  O   UNL     1       3.205  -0.089  -4.981  0.00  0.00    -0.153 OA
BRANCH  11  14
ATOM     14  C   UNL     1       4.130   0.849  -2.786  0.00  0.00    +0.106 A 
ATOM     15  C   UNL     1       5.054   1.595  -3.492  0.00  0.00    +0.029 A 
ATOM     16  C   UNL     1       6.101   2.207  -2.829  0.00  0.00    +0.017 A 
ATOM     17  C   UNL     1       6.229   2.064  -1.459  0.00  0.00    +0.018 A 
ATOM     18  C   UNL     1       5.307   1.313  -0.753  0.00  0.00    +0.017 A 
ATOM     19  C   UNL     1       4.258   0.706  -1.417  0.00  0.00    +0.029 A 
ATOM     20 BR   UNL     1       7.665   2.895  -0.551  0.00  0.00    -0.050 Br
ENDBRANCH  11  14
ENDBRANCH  10  11
ENDBRANCH   2   5
BRANCH   1  21
ATOM     21  C   UNL     1       0.400  -2.237  -0.699  0.00  0.00    +0.139 C 
BRANCH  21  27
ATOM     22  C   UNL     1      -0.180  -4.360  -1.889  0.00  0.00    -0.059 A 
ATOM     23  C   UNL     1      -1.009  -5.447  -2.100  0.00  0.00    +0.002 A 
ATOM     24  C   UNL     1      -2.160  -5.594  -1.349  0.00  0.00    +0.000 A 
ATOM     25  C   UNL     1      -2.482  -4.655  -0.387  0.00  0.00    +0.000 A 
ATOM     26  C   UNL     1      -1.652  -3.571  -0.173  0.00  0.00    +0.005 A 
ATOM     27  C   UNL     1      -0.503  -3.421  -0.928  0.00  0.00    -0.029 A 
BRANCH  22  28
ATOM     28  C   UNL     1       1.074  -4.200  -2.708  0.00  0.00    -0.043 C 
BRANCH  28  30
ATOM     29  C   UNL     1       2.260  -5.923  -1.488  0.00  0.00    -0.096 C 
ATOM     30  N   UNL     1       2.245  -4.506  -1.875  0.00  0.00    +0.379 N 
ATOM     31  C   UNL     1       3.490  -4.135  -2.561  0.00  0.00    -0.096 C 
ATOM     32  H   UNL     1       2.173  -3.905  -0.957  0.00  0.00    -0.082 HD
ENDBRANCH  28  30
ENDBRANCH  22  28
ENDBRANCH  21  27
ENDBRANCH   1  21
TORSDOF 7
