REMARK  Name = ZINC57842372
REMARK  5 active torsions:
REMARK  status: ('A' for Active; 'I' for Inactive)
REMARK    1  A    between atoms: N_4  and  C_6
REMARK    2  A    between atoms: C_6  and  C_7
REMARK    3  A    between atoms: C_7  and  N_8
REMARK    4  A    between atoms: N_16  and  C_20
REMARK    5  A    between atoms: C_20  and  C_21
REMARK                            x       y       z     vdW  Elec       q    Type
REMARK                         _______ _______ _______ _____ _____    ______ ____
ROOT
ATOM      1  N   UNL     1       1.118  -4.036   0.845  0.00  0.00    -0.304 NA
ATOM      2  C   UNL     1       2.534  -4.425   0.869  0.00  0.00    +0.087 C 
ATOM      3  C   UNL     1       2.722  -5.605   1.827  0.00  0.00    +0.050 C 
ATOM      4  C   UNL     1       1.845  -6.768   1.374  0.00  0.00    +0.115 C 
ATOM      5  C   UNL     1       0.386  -6.332   1.284  0.00  0.00    +0.050 C 
ATOM      6  C   UNL     1       0.274  -5.128   0.344  0.00  0.00    +0.087 C 
ATOM      7  C   UNL     1       1.990  -7.939   2.318  0.00  0.00    +0.247 C 
ATOM      8  O   UNL     1       1.724  -7.966   3.500  0.00  0.00    -0.273 OA
ATOM      9  N   UNL     1       2.478  -8.948   1.567  0.00  0.00    -0.213 N 
ATOM     10  C   UNL     1       2.657  -8.573   0.294  0.00  0.00    +0.310 C 
ATOM     11  O   UNL     1       3.087  -9.309  -0.573  0.00  0.00    -0.252 OA
ATOM     12  N   UNL     1       2.307  -7.290   0.082  0.00  0.00    -0.285 N 
ATOM     13  H   UNL     1       2.352  -6.806  -0.758  0.00  0.00    +0.151 HD
ENDROOT
BRANCH   1  14
ATOM     14  C   UNL     1       0.921  -2.814   0.054  0.00  0.00    +0.066 C 
BRANCH  14  15
ATOM     15  C   UNL     1       1.618  -1.641   0.747  0.00  0.00    -0.063 C 
BRANCH  15  19
ATOM     16  C   UNL     1      -0.019   1.536   0.011  0.00  0.00    -0.020 C 
ATOM     17  C   UNL     1       1.468   1.960  -0.001  0.00  0.00    -0.020 C 
ATOM     18  C   UNL     1       2.191   0.705   0.550  0.00  0.00    -0.079 C 
ATOM     19  N   UNL     1       1.421  -0.418  -0.044  0.00  0.00    +0.381 N 
ATOM     20  C   UNL     1       0.002  -0.004   0.002  0.00  0.00    -0.079 C 
ATOM     21  H   UNL     1       1.708  -0.571  -0.999  0.00  0.00    -0.082 HD
ENDBRANCH  15  19
ENDBRANCH  14  15
ENDBRANCH   1  14
BRANCH   9  22
ATOM     22  C   UNL     1       2.776 -10.287   2.080  0.00  0.00    +0.243 C 
BRANCH  22  23
ATOM     23  C   UNL     1       1.553 -11.159   1.949  0.00  0.00    +0.374 C 
ATOM     24  O   UNL     1       0.528 -10.703   1.470  0.00  0.00    -0.245 OA
ATOM     25  O   UNL     1       1.589 -12.319   2.321  0.00  0.00    -0.245 OA
ENDBRANCH  22  23
ENDBRANCH   9  22
TORSDOF 5
