REMARK  Name = ZINC67493550
REMARK  10 active torsions:
REMARK  status: ('A' for Active; 'I' for Inactive)
REMARK    1  A    between atoms: C_1  and  C_2
REMARK    2  A    between atoms: C_2  and  C_3
REMARK    3  A    between atoms: C_3  and  N_4
REMARK    4  A    between atoms: C_10  and  N_13
REMARK    5  A    between atoms: C_14  and  C_16
REMARK    6  A    between atoms: N_18  and  C_19
REMARK    7  A    between atoms: C_19  and  C_21
REMARK    8  A    between atoms: C_19  and  C_28
REMARK    9  A    between atoms: C_28  and  C_29
REMARK   10  A    between atoms: C_28  and  C_30
REMARK                            x       y       z     vdW  Elec       q    Type
REMARK                         _______ _______ _______ _____ _____    ______ ____
ROOT
ATOM      1  N   UNL     1       2.317  -4.795  -4.317  0.00  0.00    -0.278 N 
ATOM      2  C   UNL     1       2.851  -5.771  -5.077  0.00  0.00    +0.303 C 
ATOM      3  O   UNL     1       3.430  -6.700  -4.553  0.00  0.00    -0.265 OA
ATOM      4  H   UNL     1       1.786  -4.095  -4.729  0.00  0.00    +0.155 HD
ENDROOT
BRANCH   1  11
ATOM      5  N   UNL     1      -0.380  -3.339  -1.090  0.00  0.00    +0.385 N 
ATOM      6  C   UNL     1       0.698  -3.397  -0.076  0.00  0.00    -0.042 C 
ATOM      7  C   UNL     1       1.832  -4.154  -0.729  0.00  0.00    -0.061 A 
ATOM      8  C   UNL     1       2.944  -4.783  -0.200  0.00  0.00    +0.002 A 
ATOM      9  C   UNL     1       3.847  -5.416  -1.034  0.00  0.00    +0.002 A 
ATOM     10  C   UNL     1       3.643  -5.422  -2.400  0.00  0.00    +0.023 A 
ATOM     11  C   UNL     1       2.527  -4.791  -2.936  0.00  0.00    +0.035 A 
ATOM     12  C   UNL     1       1.621  -4.156  -2.096  0.00  0.00    -0.041 A 
ATOM     13  C   UNL     1       0.343  -3.401  -2.380  0.00  0.00    -0.040 C 
ATOM     14  H   UNL     1      -1.002  -4.128  -0.994  0.00  0.00    -0.081 HD
BRANCH   5  15
ATOM     15  C   UNL     1      -1.126  -2.079  -0.977  0.00  0.00    -0.078 C 
BRANCH  15  17
ATOM     16  C   UNL     1      -2.738  -0.781   0.423  0.00  0.00    +0.002 C 
ATOM     17  C   UNL     1      -1.961  -2.093   0.305  0.00  0.00    -0.022 C 
ENDBRANCH  15  17
ENDBRANCH   5  15
ENDBRANCH   1  11
BRANCH   2  18
ATOM     18  C   UNL     1       2.732  -5.709  -6.565  0.00  0.00    +0.300 C 
ATOM     19  O   UNL     1       2.154  -4.780  -7.089  0.00  0.00    -0.265 OA
ATOM     20  N   UNL     1       3.266  -6.686  -7.325  0.00  0.00    -0.301 N 
ATOM     21  H   UNL     1       3.729  -7.428  -6.906  0.00  0.00    +0.150 HD
BRANCH  20  22
ATOM     22  C   UNL     1       3.149  -6.625  -8.784  0.00  0.00    +0.106 C 
BRANCH  22  23
ATOM     23  C   UNL     1       4.275  -7.407  -9.411  0.00  0.00    -0.027 A 
ATOM     24  C   UNL     1       4.671  -8.611  -8.859  0.00  0.00    +0.008 A 
ATOM     25  C   UNL     1       5.702  -9.329  -9.434  0.00  0.00    +0.038 A 
ATOM     26  C   UNL     1       6.339  -8.842 -10.563  0.00  0.00    +0.123 A 
ATOM     27  C   UNL     1       5.941  -7.636 -11.115  0.00  0.00    +0.038 A 
ATOM     28  C   UNL     1       4.906  -6.922 -10.541  0.00  0.00    +0.008 A 
ATOM     29  F   UNL     1       7.348  -9.543 -11.125  0.00  0.00    -0.205 F 
ENDBRANCH  22  23
BRANCH  22  30
ATOM     30  C   UNL     1       1.809  -7.226  -9.213  0.00  0.00    +0.008 C 
ATOM     31  C   UNL     1       0.667  -6.432  -8.577  0.00  0.00    +0.009 C 
ATOM     32  C   UNL     1       1.687  -7.162 -10.737  0.00  0.00    +0.009 C 
ENDBRANCH  22  30
ENDBRANCH  20  22
ENDBRANCH   2  18
TORSDOF 7
