REMARK  Name = ZINC40540754
REMARK  8 active torsions:
REMARK  status: ('A' for Active; 'I' for Inactive)
REMARK    1  A    between atoms: C_1  and  C_2
REMARK    2  A    between atoms: C_2  and  O_3
REMARK    3  A    between atoms: O_3  and  C_4
REMARK    4  A    between atoms: C_4  and  C_6
REMARK    5  A    between atoms: C_7  and  C_13
REMARK    6  A    between atoms: C_13  and  N_14
REMARK    7  A    between atoms: C_17  and  C_20
REMARK    8  A    between atoms: C_20  and  C_21
REMARK                            x       y       z     vdW  Elec       q    Type
REMARK                         _______ _______ _______ _____ _____    ______ ____
ROOT
ATOM      1  C   UNL     1       1.547  -2.361   2.382  0.00  0.00    +0.069 C 
ATOM      2  C   UNL     1       1.513  -3.685   2.645  0.00  0.00    +0.007 C 
ATOM      3  N   UNL     1       2.087  -4.195   3.774  0.00  0.00    -0.274 N 
ATOM      4  C   UNL     1       2.713  -3.447   4.691  0.00  0.00    +0.304 C 
ATOM      5  O   UNL     1       3.194  -3.992   5.666  0.00  0.00    -0.253 OA
ATOM      6  N   UNL     1       2.829  -2.110   4.569  0.00  0.00    -0.295 N 
ATOM      7  C   UNL     1       2.249  -1.462   3.381  0.00  0.00    +0.149 C 
ATOM      8  H   UNL     1       2.037  -5.152   3.921  0.00  0.00    +0.156 HD
ATOM      9  H   UNL     1       3.287  -1.587   5.246  0.00  0.00    +0.151 HD
ENDROOT
BRANCH   1  10
ATOM     10  C   UNL     1       0.954  -1.831   1.213  0.00  0.00    +0.338 C 
ATOM     11  O   UNL     1       1.648  -1.539   0.257  0.00  0.00    -0.245 OA
BRANCH  10  12
ATOM     12  O   UNL     1      -0.382  -1.650   1.157  0.00  0.00    -0.462 OA
BRANCH  12  14
ATOM     13  C   UNL     1      -2.432  -0.978   0.068  0.00  0.00    +0.048 C 
ATOM     14  C   UNL     1      -0.913  -1.111  -0.056  0.00  0.00    +0.229 C 
ENDBRANCH  12  14
ENDBRANCH  10  12
ENDBRANCH   1  10
BRANCH   2  15
ATOM     15  C   UNL     1       0.830  -4.615   1.676  0.00  0.00    -0.026 C 
BRANCH  15  16
ATOM     16  N   UNL     1       1.820  -5.534   1.099  0.00  0.00    +0.383 N 
ATOM     17  C   UNL     1       2.788  -4.772   0.302  0.00  0.00    -0.078 C 
ATOM     18  C   UNL     1       3.868  -5.714  -0.234  0.00  0.00    -0.015 C 
ATOM     19  C   UNL     1       3.214  -6.785  -1.111  0.00  0.00    -0.006 C 
ATOM     20  C   UNL     1       2.154  -7.525  -0.291  0.00  0.00    -0.015 C 
ATOM     21  C   UNL     1       1.137  -6.516   0.248  0.00  0.00    -0.078 C 
ATOM     22  H   UNL     1       2.304  -6.015   1.843  0.00  0.00    -0.081 HD
BRANCH  19  23
ATOM     23  C   UNL     1       4.277  -7.777  -1.587  0.00  0.00    +0.099 C 
BRANCH  23  24
ATOM     24  C   UNL     1       3.655  -8.758  -2.547  0.00  0.00    +0.211 C 
ATOM     25  O   UNL     1       2.478  -8.672  -2.824  0.00  0.00    -0.276 OA
ATOM     26  N   UNL     1       4.408  -9.731  -3.098  0.00  0.00    -0.329 N 
ATOM     27  H   UNL     1       5.350  -9.800  -2.876  0.00  0.00    +0.145 HD
ATOM     28  H   UNL     1       4.008 -10.362  -3.716  0.00  0.00    +0.145 HD
ENDBRANCH  23  24
ENDBRANCH  19  23
ENDBRANCH  15  16
ENDBRANCH   2  15
TORSDOF 7
