REMARK  Name = ZINC65441514
REMARK  10 active torsions:
REMARK  status: ('A' for Active; 'I' for Inactive)
REMARK    1  A    between atoms: C_1  and  C_2
REMARK    2  A    between atoms: C_2  and  C_3
REMARK    3  A    between atoms: C_2  and  N_4
REMARK    4  A    between atoms: C_7  and  C_9
REMARK    5  A    between atoms: C_9  and  N_10
REMARK    6  A    between atoms: N_13  and  C_14
REMARK    7  A    between atoms: C_14  and  C_15
REMARK    8  A    between atoms: C_14  and  C_16
REMARK    9  A    between atoms: C_16  and  C_17
REMARK   10  A    between atoms: C_17  and  C_18
REMARK                            x       y       z     vdW  Elec       q    Type
REMARK                         _______ _______ _______ _____ _____    ______ ____
ROOT
ATOM      1  N   UNL     1       3.110  -3.579  -3.709  0.00  0.00    -0.299 N 
ATOM      2  C   UNL     1       3.147  -4.285  -4.857  0.00  0.00    +0.300 C 
ATOM      3  O   UNL     1       2.113  -4.564  -5.432  0.00  0.00    -0.253 OA
ATOM      4  N   UNL     1       4.330  -4.681  -5.366  0.00  0.00    -0.297 N 
ATOM      5  H   UNL     1       3.935  -3.357  -3.250  0.00  0.00    +0.150 HD
ATOM      6  H   UNL     1       5.155  -4.458  -4.907  0.00  0.00    +0.151 HD
ENDROOT
BRANCH   4   7
ATOM      7  C   UNL     1       4.371  -5.448  -6.614  0.00  0.00    +0.072 C 
ATOM      8  C   UNL     1       4.346  -4.487  -7.804  0.00  0.00    +0.028 C 
BRANCH   7   9
ATOM      9  C   UNL     1       5.652  -6.282  -6.659  0.00  0.00    +0.026 C 
BRANCH   9  10
ATOM     10  C   UNL     1       5.620  -7.327  -5.542  0.00  0.00    +0.037 C 
BRANCH  10  11
ATOM     11  C   UNL     1       6.883  -8.149  -5.586  0.00  0.00    -0.047 A 
ATOM     12  C   UNL     1       6.932  -9.299  -6.352  0.00  0.00    +0.005 A 
ATOM     13  C   UNL     1       8.090 -10.052  -6.393  0.00  0.00    +0.015 A 
ATOM     14  C   UNL     1       9.199  -9.656  -5.667  0.00  0.00    +0.018 A 
ATOM     15  C   UNL     1       9.149  -8.506  -4.901  0.00  0.00    +0.015 A 
ATOM     16  C   UNL     1       7.992  -7.750  -4.864  0.00  0.00    +0.005 A 
ATOM     17 BR   UNL     1      10.783 -10.687  -5.722  0.00  0.00    -0.050 Br
ENDBRANCH  10  11
ENDBRANCH   9  10
ENDBRANCH   7   9
ENDBRANCH   4   7
BRANCH   1  18
ATOM     18  C   UNL     1       1.824  -3.149  -3.155  0.00  0.00    +0.107 C 
BRANCH  18  22
ATOM     19  N   UNL     1       0.690  -0.478  -1.207  0.00  0.00    +0.381 N 
ATOM     20  C   UNL     1       2.111  -0.045  -1.190  0.00  0.00    -0.078 C 
ATOM     21  C   UNL     1       2.796  -1.044  -2.156  0.00  0.00    -0.015 C 
ATOM     22  C   UNL     1       2.062  -2.372  -1.859  0.00  0.00    -0.012 C 
ATOM     23  C   UNL     1       0.719  -1.956  -1.230  0.00  0.00    -0.074 C 
ATOM     24  H   UNL     1       0.227  -0.126  -2.031  0.00  0.00    -0.081 HD
BRANCH  19  26
ATOM     25  C   UNL     1      -0.019   1.526   0.010  0.00  0.00    -0.014 C 
ATOM     26  C   UNL     1       0.002  -0.004   0.002  0.00  0.00    -0.075 C 
ATOM     27  C   UNL     1      -1.433  -0.534   0.013  0.00  0.00    -0.014 C 
ENDBRANCH  19  26
ENDBRANCH  18  22
ENDBRANCH   1  18
TORSDOF 7
