REMARK  Name = ZINC36769920
REMARK  5 active torsions:
REMARK  status: ('A' for Active; 'I' for Inactive)
REMARK    1  A    between atoms: C_1  and  C_2
REMARK    2  A    between atoms: C_2  and  C_3
REMARK    3  A    between atoms: N_6  and  C_10
REMARK    4  A    between atoms: C_13  and  C_20
REMARK    5  A    between atoms: C_14  and  C_16
REMARK                            x       y       z     vdW  Elec       q    Type
REMARK                         _______ _______ _______ _____ _____    ______ ____
ROOT
ATOM      1  C   UNL     1       2.130  -3.578   3.024  0.00  0.00    +0.030 A 
ATOM      2  C   UNL     1       2.664  -4.016   1.816  0.00  0.00    +0.024 A 
ATOM      3  C   UNL     1       3.908  -4.605   1.785  0.00  0.00    +0.013 A 
ATOM      4  C   UNL     1       4.634  -4.763   2.969  0.00  0.00    +0.024 A 
ATOM      5  C   UNL     1       4.095  -4.322   4.180  0.00  0.00    +0.067 A 
ATOM      6  C   UNL     1       2.853  -3.729   4.204  0.00  0.00    +0.036 A 
ENDROOT
BRANCH   4   7
ATOM      7  C   UNL     1       5.968  -5.396   2.939  0.00  0.00    +0.095 C 
ATOM      8  N   UNL     1       6.197  -6.503   3.644  0.00  0.00    -0.387 N 
ATOM      9  N   UNL     1       6.944  -4.859   2.207  0.00  0.00    -0.345 N 
ATOM     10  H   UNL     1       7.083  -6.897   3.655  0.00  0.00    +0.157 HD
ATOM     11  H   UNL     1       6.778  -4.053   1.694  0.00  0.00    +0.144 HD
ATOM     12  H   UNL     1       7.820  -5.274   2.187  0.00  0.00    +0.144 HD
ATOM     13  H   UNL     1       5.476  -6.916   4.146  0.00  0.00    +0.157 HD
ENDBRANCH   4   7
BRANCH   1  16
ATOM     14  C   UNL     1      -1.201  -3.215   4.311  0.00  0.00    +0.135 C 
ATOM     15  C   UNL     1       0.223  -2.646   4.329  0.00  0.00    +0.136 C 
ATOM     16  N   UNL     1       0.873  -2.982   3.052  0.00  0.00    -0.325 N 
ATOM     17  C   UNL     1       0.155  -2.669   1.806  0.00  0.00    +0.133 C 
ATOM     18  C   UNL     1      -1.265  -3.237   1.911  0.00  0.00    +0.179 C 
ATOM     19  O   UNL     1      -1.868  -2.779   3.124  0.00  0.00    -0.373 OA
BRANCH  14  21
ATOM     20  C   UNL     1      -3.343  -3.381   5.585  0.00  0.00    +0.006 C 
ATOM     21  C   UNL     1      -1.966  -2.717   5.539  0.00  0.00    +0.030 C 
ENDBRANCH  14  21
ENDBRANCH   1  16
BRANCH   5  22
ATOM     22  C   UNL     1       4.875  -4.492   5.458  0.00  0.00    +0.418 C 
ATOM     23  F   UNL     1       4.210  -3.838   6.500  0.00  0.00    -0.166 F 
ATOM     24  F   UNL     1       4.988  -5.853   5.759  0.00  0.00    -0.166 F 
ATOM     25  F   UNL     1       6.152  -3.941   5.302  0.00  0.00    -0.166 F 
ENDBRANCH   5  22
TORSDOF 4
