REMARK  Name = ZINC13095614
REMARK  11 active torsions:
REMARK  status: ('A' for Active; 'I' for Inactive)
REMARK    1  A    between atoms: C_1  and  C_2
REMARK    2  A    between atoms: C_2  and  C_4
REMARK    3  A    between atoms: C_2  and  N_59
REMARK    4  A    between atoms: C_7  and  S_10
REMARK    5  A    between atoms: S_10  and  N_13
REMARK    6  A    between atoms: C_14  and  C_15
REMARK    7  A    between atoms: C_14  and  N_59
REMARK    8  A    between atoms: N_17  and  C_18
REMARK    9  A    between atoms: C_25  and  C_26
REMARK   10  A    between atoms: C_25  and  N_59
REMARK   11  A    between atoms: N_28  and  C_29
REMARK                            x       y       z     vdW  Elec       q    Type
REMARK                         _______ _______ _______ _____ _____    ______ ____
ROOT
ATOM      1  N   UNL     1       1.272   0.874  -0.986  0.00  0.00    +0.395 N 
ATOM      2  H   UNL     1       1.416   1.736  -1.525  0.00  0.00    -0.080 HD
ENDROOT
BRANCH   1   4
ATOM      3  C   UNL     1       0.708  -0.676  -2.802  0.00  0.00    -0.008 C 
ATOM      4  C   UNL     1       0.171   0.102  -1.599  0.00  0.00    -0.040 C 
BRANCH   4   5
ATOM      5  C   UNL     1      -0.895   1.063  -2.058  0.00  0.00    -0.061 A 
ATOM      6  C   UNL     1      -0.561   2.124  -2.880  0.00  0.00    +0.004 A 
ATOM      7  C   UNL     1      -1.540   3.003  -3.305  0.00  0.00    +0.029 A 
ATOM      8  C   UNL     1      -2.850   2.828  -2.900  0.00  0.00    +0.105 A 
ATOM      9  C   UNL     1      -3.182   1.771  -2.074  0.00  0.00    +0.029 A 
ATOM     10  C   UNL     1      -2.205   0.888  -1.653  0.00  0.00    +0.004 A 
BRANCH   8  11
ATOM     11  S   UNL     1      -4.096   3.953  -3.435  0.00  0.00    +0.056 S 
ATOM     12  O   UNL     1      -3.688   4.434  -4.709  0.00  0.00    -0.153 OA
ATOM     13  O   UNL     1      -5.343   3.305  -3.230  0.00  0.00    -0.153 OA
BRANCH  11  14
ATOM     14  N   UNL     1      -4.060   5.249  -2.406  0.00  0.00    -0.204 NA
ATOM     15  H   UNL     1      -3.375   5.307  -1.721  0.00  0.00    +0.144 HD
ATOM     16  H   UNL     1      -4.725   5.952  -2.487  0.00  0.00    +0.144 HD
ENDBRANCH  11  14
ENDBRANCH   8  11
ENDBRANCH   4   5
ENDBRANCH   1   4
BRANCH   1  17
ATOM     17  C   UNL     1       0.923   1.232   0.406  0.00  0.00    +0.020 C 
BRANCH  17  18
ATOM     18  C   UNL     1       0.096   2.491   0.386  0.00  0.00    +0.201 C 
ATOM     19  O   UNL     1      -0.039   3.112  -0.647  0.00  0.00    -0.278 OA
ATOM     20  N   UNL     1      -0.494   2.927   1.516  0.00  0.00    -0.287 N 
ATOM     21  H   UNL     1      -0.458   2.388   2.322  0.00  0.00    +0.155 HD
BRANCH  20  22
ATOM     22  C   UNL     1      -1.159   4.160   1.528  0.00  0.00    +0.033 A 
ATOM     23  C   UNL     1      -1.737   4.649   0.365  0.00  0.00    +0.026 A 
ATOM     24  C   UNL     1      -2.397   5.862   0.380  0.00  0.00    +0.040 A 
ATOM     25  C   UNL     1      -2.472   6.596   1.552  0.00  0.00    +0.124 A 
ATOM     26  C   UNL     1      -1.891   6.113   2.712  0.00  0.00    +0.040 A 
ATOM     27  C   UNL     1      -1.235   4.897   2.702  0.00  0.00    +0.026 A 
ATOM     28  F   UNL     1      -3.114   7.785   1.564  0.00  0.00    -0.205 F 
ENDBRANCH  20  22
ENDBRANCH  17  18
ENDBRANCH   1  17
BRANCH   1  29
ATOM     29  C   UNL     1       2.518   0.081  -1.006  0.00  0.00    +0.020 C 
BRANCH  29  30
ATOM     30  C   UNL     1       3.242   0.357  -2.299  0.00  0.00    +0.201 C 
ATOM     31  O   UNL     1       2.748   1.097  -3.124  0.00  0.00    -0.278 OA
ATOM     32  N   UNL     1       4.437  -0.218  -2.539  0.00  0.00    -0.287 N 
ATOM     33  H   UNL     1       4.808  -0.849  -1.903  0.00  0.00    +0.155 HD
BRANCH  32  34
ATOM     34  C   UNL     1       5.144   0.097  -3.706  0.00  0.00    +0.033 A 
ATOM     35  C   UNL     1       5.961  -0.854  -4.302  0.00  0.00    +0.026 A 
ATOM     36  C   UNL     1       6.652  -0.544  -5.456  0.00  0.00    +0.040 A 
ATOM     37  C   UNL     1       6.540   0.719  -6.013  0.00  0.00    +0.124 A 
ATOM     38  C   UNL     1       5.730   1.671  -5.418  0.00  0.00    +0.040 A 
ATOM     39  C   UNL     1       5.032   1.363  -4.266  0.00  0.00    +0.026 A 
ATOM     40  F   UNL     1       7.221   1.022  -7.140  0.00  0.00    -0.205 F 
ENDBRANCH  32  34
ENDBRANCH  29  30
ENDBRANCH   1  29
TORSDOF 10
