REMARK  Name = ZINC32899290
REMARK  4 active torsions:
REMARK  status: ('A' for Active; 'I' for Inactive)
REMARK    1  A    between atoms: C_1  and  C_2
REMARK    2  A    between atoms: N_12  and  C_13
REMARK    3  A    between atoms: C_16  and  C_19
REMARK    4  A    between atoms: N_21  and  C_22
REMARK                            x       y       z     vdW  Elec       q    Type
REMARK                         _______ _______ _______ _____ _____    ______ ____
ROOT
ATOM      1  C   UNL     1      -0.007  -4.110   0.110  0.00  0.00    +0.051 A 
ATOM      2  C   UNL     1      -1.058  -4.790  -0.496  0.00  0.00    +0.027 A 
ATOM      3  C   UNL     1      -1.140  -6.161  -0.397  0.00  0.00    +0.015 A 
ATOM      4  C   UNL     1      -0.173  -6.868   0.323  0.00  0.00    +0.037 A 
ATOM      5  C   UNL     1       0.878  -6.180   0.935  0.00  0.00    +0.015 A 
ATOM      6  C   UNL     1       0.957  -4.809   0.827  0.00  0.00    +0.027 A 
ENDROOT
BRANCH   4   7
ATOM      7  C   UNL     1      -0.262  -8.336   0.437  0.00  0.00    +0.252 C 
ATOM      8  O   UNL     1       0.737  -8.989   0.671  0.00  0.00    -0.270 OA
ATOM      9  N   UNL     1      -1.449  -8.954   0.281  0.00  0.00    -0.250 N 
ATOM     10  C   UNL     1      -2.671  -8.162   0.122  0.00  0.00    +0.140 C 
ATOM     11  C   UNL     1      -1.514 -10.337   0.272  0.00  0.00    +0.168 A 
ATOM     12  N   UNL     1      -2.566 -11.111   0.133  0.00  0.00    -0.224 NA
ATOM     13  C   UNL     1      -2.482 -12.459   0.143  0.00  0.00    +0.080 A 
ATOM     14  C   UNL     1      -3.528 -13.400   0.005  0.00  0.00    +0.029 A 
ATOM     15  C   UNL     1      -3.268 -14.745   0.037  0.00  0.00    +0.002 A 
ATOM     16  C   UNL     1      -1.979 -15.231   0.206  0.00  0.00    +0.001 A 
ATOM     17  C   UNL     1      -0.932 -14.339   0.345  0.00  0.00    +0.017 A 
ATOM     18  C   UNL     1      -1.182 -12.989   0.313  0.00  0.00    +0.041 A 
ATOM     19  S   UNL     1      -0.188 -11.523   0.436  0.00  0.00    -0.052 S 
ENDBRANCH   4   7
BRANCH   1  31
ATOM     20  C   UNL     1      -1.166  -2.604   2.127  0.00  0.00    +0.086 C 
ATOM     21  C   UNL     1      -0.477  -1.934   0.966  0.00  0.00    +0.114 A 
ATOM     22  N   UNL     1      -0.441  -0.636   0.937  0.00  0.00    -0.233 NA
ATOM     23  C   UNL     1       0.162   0.035  -0.076  0.00  0.00    +0.078 A 
ATOM     24  C   UNL     1       0.201   1.431  -0.108  0.00  0.00    +0.028 A 
ATOM     25  C   UNL     1       0.825   2.072  -1.155  0.00  0.00    +0.002 A 
ATOM     26  C   UNL     1       1.416   1.348  -2.182  0.00  0.00    +0.001 A 
ATOM     27  C   UNL     1       1.390  -0.029  -2.173  0.00  0.00    +0.015 A 
ATOM     28  C   UNL     1       0.765  -0.698  -1.123  0.00  0.00    +0.065 A 
ATOM     29  C   UNL     1       0.707  -2.166  -1.060  0.00  0.00    +0.266 A 
ATOM     30  O   UNL     1       1.206  -2.856  -1.929  0.00  0.00    -0.267 OA
ATOM     31  N   UNL     1       0.076  -2.720   0.002  0.00  0.00    -0.265 N 
ENDBRANCH   1  31
TORSDOF 2
