REMARK  Name = ZINC06940044
REMARK  10 active torsions:
REMARK  status: ('A' for Active; 'I' for Inactive)
REMARK    1  A    between atoms: C_1  and  C_2
REMARK    2  A    between atoms: C_5  and  N_8
REMARK    3  A    between atoms: C_9  and  C_11
REMARK    4  A    between atoms: C_11  and  S_12
REMARK    5  A    between atoms: S_12  and  C_13
REMARK    6  A    between atoms: C_13  and  C_15
REMARK    7  A    between atoms: C_13  and  C_16
REMARK    8  A    between atoms: N_18  and  C_19
REMARK    9  A    between atoms: C_19  and  C_20
REMARK   10  A    between atoms: C_20  and  N_67
REMARK                            x       y       z     vdW  Elec       q    Type
REMARK                         _______ _______ _______ _____ _____    ______ ____
ROOT
ATOM      1  C   UNL     1      -0.336  -0.353   0.913  0.00  0.00    +0.226 C 
ATOM      2  O   UNL     1      -0.909  -1.137   1.640  0.00  0.00    -0.275 OA
ATOM      3  N   UNL     1       0.491  -0.808  -0.049  0.00  0.00    -0.316 N 
ATOM      4  H   UNL     1       0.949  -0.182  -0.631  0.00  0.00    +0.149 HD
ENDROOT
BRANCH   1   5
ATOM      5  C   UNL     1      -0.549   1.129   1.085  0.00  0.00    +0.129 C 
ATOM      6  C   UNL     1      -1.643   1.601   0.125  0.00  0.00    +0.029 C 
BRANCH   5   7
ATOM      7  S   UNL     1      -1.053   1.473   2.793  0.00  0.00    -0.139 S 
BRANCH   7   8
ATOM      8  C   UNL     1      -1.118   3.284   2.874  0.00  0.00    +0.165 C 
BRANCH   8  10
ATOM      9  N   UNL     1      -1.646   5.020   4.556  0.00  0.00    -0.285 N 
ATOM     10  C   UNL     1      -1.530   3.710   4.260  0.00  0.00    +0.227 C 
ATOM     11  O   UNL     1      -1.757   2.874   5.109  0.00  0.00    -0.275 OA
ATOM     12  H   UNL     1      -1.413   5.689   3.894  0.00  0.00    +0.155 HD
BRANCH   9  17
ATOM     13  C   UNL     1      -3.497   6.619   9.675  0.00  0.00    +0.044 C 
ATOM     14  C   UNL     1      -3.005   6.194   8.315  0.00  0.00    -0.050 A 
ATOM     15  C   UNL     1      -2.205   5.073   8.190  0.00  0.00    +0.005 A 
ATOM     16  C   UNL     1      -1.753   4.681   6.945  0.00  0.00    +0.023 A 
ATOM     17  C   UNL     1      -2.102   5.414   5.819  0.00  0.00    +0.033 A 
ATOM     18  C   UNL     1      -2.901   6.543   5.948  0.00  0.00    +0.023 A 
ATOM     19  C   UNL     1      -3.356   6.926   7.195  0.00  0.00    +0.005 A 
ENDBRANCH   9  17
ENDBRANCH   8  10
ENDBRANCH   7   8
ENDBRANCH   5   7
ENDBRANCH   1   5
BRANCH   3  20
ATOM     20  C   UNL     1       0.698  -2.249  -0.216  0.00  0.00    +0.092 C 
BRANCH  20  21
ATOM     21  C   UNL     1       1.818  -2.489  -1.231  0.00  0.00    -0.050 C 
ATOM     22  C   UNL     1       1.509  -1.727  -2.521  0.00  0.00    -0.010 C 
ATOM     23  C   UNL     1       0.181  -2.222  -3.100  0.00  0.00    -0.001 C 
ATOM     24  C   UNL     1       0.283  -3.719  -3.402  0.00  0.00    -0.000 C 
ATOM     25  C   UNL     1       0.593  -4.480  -2.112  0.00  0.00    -0.001 C 
ATOM     26  C   UNL     1       1.920  -3.985  -1.533  0.00  0.00    -0.010 C 
BRANCH  21  32
ATOM     27  C   UNL     1       3.421  -2.722   0.568  0.00  0.00    -0.078 C 
ATOM     28  C   UNL     1       4.817  -2.308   1.039  0.00  0.00    -0.019 C 
ATOM     29  C   UNL     1       4.845  -0.795   1.269  0.00  0.00    -0.004 C 
ATOM     30  C   UNL     1       4.452  -0.082  -0.028  0.00  0.00    -0.019 C 
ATOM     31  C   UNL     1       3.066  -0.560  -0.468  0.00  0.00    -0.078 C 
ATOM     32  N   UNL     1       3.113  -2.020  -0.696  0.00  0.00    +0.384 N 
ATOM     33  H   UNL     1       3.850  -2.227  -1.380  0.00  0.00    -0.081 HD
ENDBRANCH  21  32
ENDBRANCH  20  21
ENDBRANCH   3  20
TORSDOF 8
