REMARK  Name = ZINC33619653
REMARK  13 active torsions:
REMARK  status: ('A' for Active; 'I' for Inactive)
REMARK    1  A    between atoms: C_1  and  C_2
REMARK    2  A    between atoms: C_2  and  C_3
REMARK    3  A    between atoms: C_3  and  C_4
REMARK    4  A    between atoms: C_5  and  C_19
REMARK    5  A    between atoms: C_6  and  C_16
REMARK    6  A    between atoms: C_7  and  C_15
REMARK    7  A    between atoms: N_8  and  C_9
REMARK    8  A    between atoms: C_9  and  C_10
REMARK    9  A    between atoms: C_10  and  C_11
REMARK   10  A    between atoms: C_11  and  N_12
REMARK   11  A    between atoms: N_12  and  C_13
REMARK   12  A    between atoms: N_12  and  C_14
REMARK   13  A    between atoms: C_22  and  C_25
REMARK                            x       y       z     vdW  Elec       q    Type
REMARK                         _______ _______ _______ _____ _____    ______ ____
ROOT
ATOM      1  C   UNL     1      -1.232   5.246   0.729  0.00  0.00    +0.027 A 
ATOM      2  C   UNL     1      -1.214   3.975   1.207  0.00  0.00    +0.015 A 
ATOM      3  C   UNL     1      -1.207   3.095   0.025  0.00  0.00    +0.065 A 
ATOM      4  C   UNL     1      -1.218   3.922  -1.062  0.00  0.00    +0.029 A 
ATOM      5  N   UNL     1      -1.238   5.199  -0.633  0.00  0.00    -0.347 N 
ATOM      6  C   UNL     1      -1.211   3.481  -2.503  0.00  0.00    +0.064 C 
ENDROOT
BRANCH   2   7
ATOM      7  C   UNL     1      -1.202   3.558   2.629  0.00  0.00    -0.015 A 
ATOM      8  C   UNL     1      -2.295   3.842   3.448  0.00  0.00    +0.009 A 
ATOM      9  C   UNL     1      -2.286   3.450   4.769  0.00  0.00    +0.009 A 
ATOM     10  C   UNL     1      -1.180   2.779   5.289  0.00  0.00    -0.018 A 
ATOM     11  C   UNL     1      -0.085   2.499   4.472  0.00  0.00    +0.009 A 
ATOM     12  C   UNL     1      -0.096   2.886   3.150  0.00  0.00    +0.009 A 
BRANCH  10  13
ATOM     13  C   UNL     1      -1.168   2.363   6.713  0.00  0.00    -0.018 A 
ATOM     14  C   UNL     1      -0.066   1.687   7.235  0.00  0.00    +0.008 A 
ATOM     15  C   UNL     1      -0.059   1.306   8.561  0.00  0.00    +0.001 A 
ATOM     16  C   UNL     1      -1.146   1.585   9.370  0.00  0.00    +0.000 A 
ATOM     17  C   UNL     1      -2.244   2.251   8.856  0.00  0.00    +0.001 A 
ATOM     18  C   UNL     1      -2.260   2.641   7.532  0.00  0.00    +0.008 A 
ENDBRANCH  10  13
ENDBRANCH   2   7
BRANCH   3  19
ATOM     19  C   UNL     1      -1.187   1.624   0.017  0.00  0.00    +0.244 C 
ATOM     20  O   UNL     1      -2.232   1.001   0.018  0.00  0.00    -0.270 OA
ATOM     21  N   UNL     1      -0.011   0.966   0.007  0.00  0.00    -0.325 N 
ATOM     22  H   UNL     1       0.004  -0.134   0.001  0.00  0.00    +0.145 HD
ATOM     23  H   UNL     1       0.934   1.529   0.006  0.00  0.00    +0.145 HD
ENDBRANCH   3  19
BRANCH   1  24
ATOM     24  C   UNL     1      -1.244   6.500   1.565  0.00  0.00    +0.054 C 
BRANCH  24  26
ATOM     25  C   UNL     1      -2.703   8.178   2.703  0.00  0.00    +0.004 C 
ATOM     26  C   UNL     1      -2.691   6.906   1.854  0.00  0.00    +0.003 C 
ENDBRANCH  24  26
ENDBRANCH   1  24
BRANCH   5  27
ATOM     27  C   UNL     1      -1.257   6.374  -1.508  0.00  0.00    +0.120 C 
BRANCH  27  28
ATOM     28  C   UNL     1       0.179   6.802  -1.819  0.00  0.00    +0.003 C 
BRANCH  28  29
ATOM     29  C   UNL     1       0.159   8.028  -2.733  0.00  0.00    -0.078 C 
BRANCH  29  30
ATOM     30  N   UNL     1       1.538   8.439  -3.031  0.00  0.00    +0.376 N 
ATOM     31  C   UNL     1       2.229   7.419  -3.830  0.00  0.00    -0.097 C 
ATOM     32  C   UNL     1       1.564   9.744  -3.706  0.00  0.00    -0.097 C 
ATOM     33  H   UNL     1       2.074   8.542  -2.076  0.00  0.00    -0.083 HD
ENDBRANCH  29  30
ENDBRANCH  28  29
ENDBRANCH  27  28
ENDBRANCH   5  27
TORSDOF 9
