REMARK  Name = ZINC29678664
REMARK  12 active torsions:
REMARK  status: ('A' for Active; 'I' for Inactive)
REMARK    1  A    between atoms: C_1  and  C_2
REMARK    2  A    between atoms: C_5  and  O_28
REMARK    3  A    between atoms: C_6  and  C_8
REMARK    4  A    between atoms: C_8  and  C_10
REMARK    5  A    between atoms: C_8  and  N_11
REMARK    6  A    between atoms: N_11  and  C_12
REMARK    7  A    between atoms: C_12  and  C_14
REMARK    8  A    between atoms: C_12  and  C_15
REMARK    9  A    between atoms: N_17  and  C_18
REMARK   10  A    between atoms: C_22  and  N_24
REMARK   11  A    between atoms: C_25  and  C_27
REMARK   12  A    between atoms: O_28  and  C_29
REMARK                            x       y       z     vdW  Elec       q    Type
REMARK                         _______ _______ _______ _____ _____    ______ ____
ROOT
ATOM      1  C   UNL     1       4.798   1.552  -0.380  0.00  0.00    +0.014 C 
ATOM      2  C   UNL     1       4.999   0.645   0.835  0.00  0.00    -0.004 C 
ENDROOT
BRANCH   1   3
ATOM      3  C   UNL     1       3.468   2.252  -0.269  0.00  0.00    +0.203 C 
ATOM      4  O   UNL     1       3.421   3.463  -0.235  0.00  0.00    -0.277 OA
ATOM      5  N   UNL     1       2.331   1.532  -0.209  0.00  0.00    -0.287 N 
ATOM      6  H   UNL     1       2.377   0.433  -0.165  0.00  0.00    +0.155 HD
BRANCH   5   7
ATOM      7  C   UNL     1       1.091   2.181  -0.203  0.00  0.00    +0.035 A 
ATOM      8  C   UNL     1       0.001   1.603  -0.842  0.00  0.00    +0.023 A 
ATOM      9  C   UNL     1      -1.224   2.243  -0.836  0.00  0.00    +0.004 A 
ATOM     10  C   UNL     1      -1.368   3.458  -0.195  0.00  0.00    +0.023 A 
ATOM     11  C   UNL     1      -0.283   4.038   0.450  0.00  0.00    +0.035 A 
ATOM     12  C   UNL     1       0.949   3.401   0.441  0.00  0.00    +0.046 A 
BRANCH  11  13
ATOM     13  N   UNL     1      -0.432   5.266   1.104  0.00  0.00    -0.286 N 
ATOM     14  C   UNL     1      -1.589   5.562   1.728  0.00  0.00    +0.214 C 
ATOM     15  O   UNL     1      -2.466   4.727   1.808  0.00  0.00    -0.276 OA
ATOM     16  C   UNL     1      -1.795   6.929   2.327  0.00  0.00    +0.109 C 
ATOM     17  H   UNL     1       0.396   5.991   1.109  0.00  0.00    +0.155 HD
ENDBRANCH  11  13
ENDBRANCH   5   7
ENDBRANCH   1   3
BRANCH   1  18
ATOM     18  N   UNL     1       5.874   2.551  -0.429  0.00  0.00    +0.391 N 
ATOM     19  H   UNL     1       6.779   2.117   0.023  0.00  0.00    -0.084 HD
ATOM     20  H   UNL     1       5.563   3.433   0.150  0.00  0.00    -0.084 HD
BRANCH  18  21
ATOM     21  C   UNL     1       6.161   2.949  -1.813  0.00  0.00    -0.039 C 
ATOM     22  C   UNL     1       7.047   1.892  -2.475  0.00  0.00    -0.009 C 
BRANCH  21  28
ATOM     23  C   UNL     1       9.052   6.321   0.491  0.00  0.00    +0.044 C 
ATOM     24  C   UNL     1       8.257   5.891  -0.715  0.00  0.00    -0.050 A 
ATOM     25  C   UNL     1       8.184   6.715  -1.823  0.00  0.00    +0.007 A 
ATOM     26  C   UNL     1       7.456   6.324  -2.930  0.00  0.00    +0.046 A 
ATOM     27  C   UNL     1       6.799   5.102  -2.930  0.00  0.00    +0.122 A 
ATOM     28  C   UNL     1       6.874   4.277  -1.817  0.00  0.00    -0.020 A 
ATOM     29  C   UNL     1       7.599   4.675  -0.711  0.00  0.00    +0.009 A 
BRANCH  27  30
ATOM     30  O   UNL     1       6.082   4.714  -4.017  0.00  0.00    -0.495 OA
ATOM     31  C   UNL     1       6.049   5.614  -5.127  0.00  0.00    +0.277 C 
ENDBRANCH  27  30
ENDBRANCH  21  28
ENDBRANCH  18  21
ENDBRANCH   1  18
TORSDOF 7
