REMARK  Name = ZINC22434518
REMARK  3 active torsions:
REMARK  status: ('A' for Active; 'I' for Inactive)
REMARK    1  A    between atoms: C_6  and  N_7
REMARK    2  A    between atoms: C_8  and  C_12
REMARK    3  A    between atoms: C_12  and  N_18
REMARK                            x       y       z     vdW  Elec       q    Type
REMARK                         _______ _______ _______ _____ _____    ______ ____
ROOT
ATOM      1  N   UNL     1      -3.573  -0.972   0.281  0.00  0.00    -0.198 N 
ATOM      2  C   UNL     1      -4.747  -0.464   0.713  0.00  0.00    +0.145 A 
ATOM      3  N   UNL     1      -5.701  -1.168   0.161  0.00  0.00    -0.114 NA
ATOM      4  N   UNL     1      -5.209  -2.087  -0.590  0.00  0.00    -0.023 NA
ATOM      5  N   UNL     1      -3.921  -2.031  -0.576  0.00  0.00    -0.039 NA
ENDROOT
BRANCH   1  11
ATOM      6  C   UNL     1      -1.918   0.787   0.389  0.00  0.00    +0.032 A 
ATOM      7  C   UNL     1      -0.645   1.218   0.710  0.00  0.00    +0.051 A 
ATOM      8  C   UNL     1       0.271   0.335   1.264  0.00  0.00    +0.162 A 
ATOM      9  C   UNL     1      -0.092  -0.988   1.491  0.00  0.00    +0.164 A 
ATOM     10  C   UNL     1      -1.367  -1.421   1.164  0.00  0.00    +0.077 A 
ATOM     11  C   UNL     1      -2.281  -0.534   0.613  0.00  0.00    +0.073 A 
ATOM     12  O   UNL     1       0.793  -1.869   2.033  0.00  0.00    -0.485 OA
ATOM     13  C   UNL     1       2.175  -1.496   2.000  0.00  0.00    +0.270 C 
ATOM     14  C   UNL     1       2.290  -0.038   2.463  0.00  0.00    +0.270 C 
ATOM     15  O   UNL     1       1.520   0.778   1.573  0.00  0.00    -0.485 OA
ENDBRANCH   1  11
BRANCH   2  16
ATOM     16  C   UNL     1      -4.925   0.699   1.655  0.00  0.00    -0.008 C 
ATOM     17  C   UNL     1      -3.814   0.678   2.707  0.00  0.00    -0.005 C 
ATOM     18  C   UNL     1      -3.995   1.858   3.663  0.00  0.00    -0.001 C 
ATOM     19  C   UNL     1      -5.355   1.750   4.356  0.00  0.00    -0.000 C 
ATOM     20  C   UNL     1      -6.466   1.770   3.304  0.00  0.00    -0.001 C 
ATOM     21  C   UNL     1      -6.285   0.590   2.348  0.00  0.00    -0.005 C 
BRANCH  16  22
ATOM     22  N   UNL     1      -4.860   1.956   0.899  0.00  0.00    +0.387 N 
ATOM     23  H   UNL     1      -4.990   2.805   1.586  0.00  0.00    -0.089 HD
ATOM     24  H   UNL     1      -5.659   1.971   0.143  0.00  0.00    -0.089 HD
ATOM     25  H   UNL     1      -3.882   2.034   0.401  0.00  0.00    -0.089 HD
ENDBRANCH  16  22
ENDBRANCH   2  16
TORSDOF 3
