REMARK  Name = ZINC20873496
REMARK  14 active torsions:
REMARK  status: ('A' for Active; 'I' for Inactive)
REMARK    1  A    between atoms: C_1  and  C_2
REMARK    2  A    between atoms: C_2  and  C_3
REMARK    3  A    between atoms: C_2  and  C_4
REMARK    4  A    between atoms: C_2  and  N_5
REMARK    5  A    between atoms: C_6  and  C_8
REMARK    6  A    between atoms: C_8  and  O_9
REMARK    7  A    between atoms: O_9  and  C_10
REMARK    8  A    between atoms: C_15  and  C_16
REMARK    9  A    between atoms: C_16  and  N_17
REMARK   10  A    between atoms: N_17  and  C_18
REMARK   11  A    between atoms: C_18  and  C_19
REMARK   12  A    between atoms: C_19  and  N_20
REMARK   13  A    between atoms: N_20  and  C_21
REMARK   14  A    between atoms: C_24  and  N_27
REMARK                            x       y       z     vdW  Elec       q    Type
REMARK                         _______ _______ _______ _____ _____    ______ ____
ROOT
ATOM      1  C   UNL     1       1.179   1.786   0.000  0.00  0.00    +0.123 A 
ATOM      2  C   UNL     1      -0.013   1.076   0.008  0.00  0.00    +0.047 A 
ATOM      3  C   UNL     1      -1.218   1.751   0.017  0.00  0.00    +0.023 A 
ATOM      4  C   UNL     1      -1.237   3.134   0.030  0.00  0.00    +0.041 A 
ATOM      5  C   UNL     1      -0.050   3.844   0.022  0.00  0.00    +0.025 A 
ATOM      6  C   UNL     1       1.158   3.173   0.008  0.00  0.00    -0.021 A 
ATOM      7 CL   UNL     1      -2.753   3.980   0.048  0.00  0.00    -0.084 Cl
ENDROOT
BRANCH   1   8
ATOM      8  O   UNL     1       2.366   1.124  -0.015  0.00  0.00    -0.483 OA
BRANCH   8   9
ATOM      9  C   UNL     1       2.312  -0.304  -0.022  0.00  0.00    +0.324 C 
BRANCH   9  11
ATOM     10  N   UNL     1       3.909  -2.193  -0.047  0.00  0.00    -0.308 N 
ATOM     11  C   UNL     1       3.713  -0.859  -0.038  0.00  0.00    +0.251 C 
ATOM     12  O   UNL     1       4.664  -0.106  -0.043  0.00  0.00    -0.272 OA
ATOM     13  H   UNL     1       3.047  -2.876  -0.043  0.00  0.00    +0.149 HD
BRANCH  10  15
ATOM     14  C   UNL     1       6.023  -2.257   1.182  0.00  0.00    +0.031 C 
ATOM     15  C   UNL     1       5.271  -2.733  -0.063  0.00  0.00    +0.026 C 
ATOM     16  C   UNL     1       5.213  -4.262  -0.070  0.00  0.00    +0.031 C 
ATOM     17  C   UNL     1       5.999  -2.244  -1.317  0.00  0.00    +0.031 C 
ENDBRANCH  10  15
ENDBRANCH   9  11
ENDBRANCH   8   9
ENDBRANCH   1   8
BRANCH   6  18
ATOM     18  C   UNL     1       2.451   3.947  -0.001  0.00  0.00    -0.043 C 
BRANCH  18  19
ATOM     19  N   UNL     1       2.981   3.999  -1.370  0.00  0.00    +0.383 N 
ATOM     20  H   UNL     1       3.164   2.977  -1.732  0.00  0.00    -0.085 HD
ATOM     21  H   UNL     1       2.252   4.496  -2.027  0.00  0.00    -0.085 HD
BRANCH  19  22
ATOM     22  C   UNL     1       4.244   4.748  -1.417  0.00  0.00    -0.063 C 
BRANCH  22  23
ATOM     23  C   UNL     1       4.764   4.780  -2.856  0.00  0.00    +0.082 C 
BRANCH  23  24
ATOM     24  N   UNL     1       6.024   5.527  -2.903  0.00  0.00    -0.346 N 
ATOM     25  H   UNL     1       6.443   5.957  -1.981  0.00  0.00    +0.146 HD
BRANCH  24  26
ATOM     26  C   UNL     1       6.693   5.692  -4.117  0.00  0.00    +0.027 A 
ATOM     27  C   UNL     1       6.168   5.144  -5.281  0.00  0.00    +0.025 A 
ATOM     28  C   UNL     1       6.830   5.314  -6.482  0.00  0.00    +0.034 A 
ATOM     29  C   UNL     1       8.018   6.019  -6.524  0.00  0.00    +0.126 A 
ATOM     30  C   UNL     1       8.546   6.561  -5.367  0.00  0.00    +0.034 A 
ATOM     31  C   UNL     1       7.888   6.400  -4.164  0.00  0.00    +0.025 A 
BRANCH  29  32
ATOM     32  N   UNL     1       8.727   6.195  -7.812  0.00  0.00    +0.056 N 
ATOM     33  O   UNL     1       9.774   6.816  -7.851  0.00  0.00    -0.126 OA
ATOM     34  O   UNL     1       8.263   5.718  -8.832  0.00  0.00    -0.126 OA
ENDBRANCH  29  32
ENDBRANCH  24  26
ENDBRANCH  23  24
ENDBRANCH  22  23
ENDBRANCH  19  22
ENDBRANCH  18  19
ENDBRANCH   6  18
TORSDOF 11
