REMARK  Name = ZINC27579919
REMARK  14 active torsions:
REMARK  status: ('A' for Active; 'I' for Inactive)
REMARK    1  A    between atoms: C_1  and  C_2
REMARK    2  A    between atoms: C_2  and  N_3
REMARK    3  A    between atoms: N_3  and  C_4
REMARK    4  A    between atoms: N_3  and  C_6
REMARK    5  A    between atoms: C_4  and  C_5
REMARK    6  A    between atoms: C_6  and  C_8
REMARK    7  A    between atoms: C_6  and  C_26
REMARK    8  A    between atoms: C_8  and  N_9
REMARK    9  A    between atoms: C_10  and  C_12
REMARK   10  A    between atoms: C_14  and  O_24
REMARK   11  A    between atoms: C_15  and  O_19
REMARK   12  A    between atoms: O_19  and  C_20
REMARK   13  A    between atoms: C_20  and  C_21
REMARK   14  A    between atoms: O_24  and  C_25
REMARK                            x       y       z     vdW  Elec       q    Type
REMARK                         _______ _______ _______ _____ _____    ______ ____
ROOT
ATOM      1  N   UNL     1      -1.084   1.084   1.565  0.00  0.00    -0.313 N 
ATOM      2  C   UNL     1      -0.755   0.542   2.755  0.00  0.00    +0.244 C 
ATOM      3  O   UNL     1       0.306  -0.036   2.887  0.00  0.00    -0.270 OA
ATOM      4  H   UNL     1      -2.044   1.607   1.446  0.00  0.00    +0.149 HD
ENDROOT
BRANCH   2   5
ATOM      5  C   UNL     1      -1.684   0.651   3.897  0.00  0.00    +0.042 A 
ATOM      6  C   UNL     1      -1.344   0.090   5.132  0.00  0.00    +0.062 A 
ATOM      7  C   UNL     1      -2.216   0.195   6.198  0.00  0.00    +0.164 A 
ATOM      8  C   UNL     1      -3.432   0.859   6.042  0.00  0.00    +0.181 A 
ATOM      9  C   UNL     1      -3.770   1.416   4.816  0.00  0.00    +0.087 A 
ATOM     10  C   UNL     1      -2.901   1.320   3.749  0.00  0.00    +0.037 A 
ATOM     11 CL   UNL     1      -5.285   2.241   4.627  0.00  0.00    -0.080 Cl
BRANCH   7  12
ATOM     12  O   UNL     1      -1.888  -0.350   7.400  0.00  0.00    -0.491 OA
ATOM     13  C   UNL     1      -0.627  -1.015   7.489  0.00  0.00    +0.277 C 
ENDBRANCH   7  12
BRANCH   8  14
ATOM     14  O   UNL     1      -4.288   0.960   7.091  0.00  0.00    -0.478 OA
BRANCH  14  15
ATOM     15  C   UNL     1      -4.145   2.102   7.938  0.00  0.00    +0.324 C 
BRANCH  15  16
ATOM     16  C   UNL     1      -5.172   2.044   9.039  0.00  0.00    +0.248 C 
ATOM     17  O   UNL     1      -5.951   1.116   9.093  0.00  0.00    -0.272 OA
ATOM     18  N   UNL     1      -5.226   3.023   9.963  0.00  0.00    -0.327 N 
ATOM     19  H   UNL     1      -5.976   2.981  10.766  0.00  0.00    +0.145 HD
ATOM     20  H   UNL     1      -4.519   3.865   9.914  0.00  0.00    +0.145 HD
ENDBRANCH  15  16
ENDBRANCH  14  15
ENDBRANCH   8  14
ENDBRANCH   2   5
BRANCH   1  21
ATOM     21  C   UNL     1      -0.163   0.976   0.432  0.00  0.00    +0.094 C 
BRANCH  21  22
ATOM     22  C   UNL     1      -0.728   1.750  -0.761  0.00  0.00    -0.019 C 
BRANCH  22  23
ATOM     23  C   UNL     1       0.230   1.656  -1.921  0.00  0.00    -0.041 A 
ATOM     24  C   UNL     1      -0.059   0.829  -2.990  0.00  0.00    +0.003 A 
ATOM     25  C   UNL     1       0.817   0.746  -4.056  0.00  0.00    +0.000 A 
ATOM     26  C   UNL     1       1.988   1.482  -4.048  0.00  0.00    +0.001 A 
ATOM     27  C   UNL     1       2.280   2.305  -2.977  0.00  0.00    +0.020 A 
ATOM     28  C   UNL     1       1.401   2.392  -1.912  0.00  0.00    +0.043 A 
ATOM     29 CL   UNL     1       1.767   3.425  -0.566  0.00  0.00    -0.083 Cl
ENDBRANCH  22  23
BRANCH  22  30
ATOM     30  N   UNL     1      -2.023   1.176  -1.148  0.00  0.00    +0.385 N 
ATOM     31  H   UNL     1      -2.071   1.158  -2.247  0.00  0.00    -0.081 HD
BRANCH  30  33
ATOM     32  C   UNL     1      -1.309  -1.132  -1.550  0.00  0.00    -0.017 C 
ATOM     33  C   UNL     1      -2.151  -0.207  -0.668  0.00  0.00    -0.081 C 
ENDBRANCH  30  33
BRANCH  30  34
ATOM     34  C   UNL     1      -3.134   2.006  -0.661  0.00  0.00    -0.081 C 
ATOM     35  C   UNL     1      -3.251   3.260  -1.529  0.00  0.00    -0.017 C 
ENDBRANCH  30  34
ENDBRANCH  22  30
ENDBRANCH  21  22
ENDBRANCH   1  21
TORSDOF 11
