REMARK  Name = ZINC35612670
REMARK  11 active torsions:
REMARK  status: ('A' for Active; 'I' for Inactive)
REMARK    1  A    between atoms: C_1  and  C_2
REMARK    2  A    between atoms: C_7  and  N_8
REMARK    3  A    between atoms: C_11  and  C_14
REMARK    4  A    between atoms: N_16  and  C_17
REMARK    5  A    between atoms: C_17  and  C_18
REMARK    6  A    between atoms: C_18  and  C_19
REMARK    7  A    between atoms: N_21  and  C_22
REMARK    8  A    between atoms: C_22  and  C_23
REMARK    9  A    between atoms: C_23  and  N_24
REMARK   10  A    between atoms: N_24  and  C_25
REMARK   11  A    between atoms: N_24  and  C_26
REMARK                            x       y       z     vdW  Elec       q    Type
REMARK                         _______ _______ _______ _____ _____    ______ ____
ROOT
ATOM      1  C   UNL     1      -0.354  -0.542   7.251  0.00  0.00    +0.263 C 
ATOM      2  O   UNL     1      -0.417  -1.303   8.198  0.00  0.00    -0.269 OA
ATOM      3  N   UNL     1      -0.394   0.790   7.453  0.00  0.00    -0.310 N 
ATOM      4  H   UNL     1      -0.344   1.396   6.698  0.00  0.00    +0.149 HD
ENDROOT
BRANCH   1   8
ATOM      5  N   UNL     1       0.025  -0.015   2.416  0.00  0.00    -0.293 N 
ATOM      6  C   UNL     1      -0.059  -0.714   3.610  0.00  0.00    +0.163 A 
ATOM      7  N   UNL     1      -0.166  -0.251   4.839  0.00  0.00    -0.220 NA
ATOM      8  C   UNL     1      -0.235  -1.076   5.885  0.00  0.00    +0.135 A 
ATOM      9  C   UNL     1      -0.194  -2.431   5.668  0.00  0.00    +0.081 A 
ATOM     10  S   UNL     1      -0.058  -2.479   3.886  0.00  0.00    -0.060 S 
ATOM     11  H   UNL     1      -0.096   0.947   2.408  0.00  0.00    +0.154 HD
BRANCH   5  18
ATOM     12  C   UNL     1      -1.114   0.999   0.015  0.00  0.00    +0.045 C 
ATOM     13  C   UNL     1      -0.252  -0.237   0.028  0.00  0.00    -0.029 A 
ATOM     14  C   UNL     1       0.010  -0.909  -1.149  0.00  0.00    +0.006 A 
ATOM     15  C   UNL     1       0.800  -2.044  -1.139  0.00  0.00    +0.020 A 
ATOM     16  C   UNL     1       1.331  -2.509   0.052  0.00  0.00    +0.043 A 
ATOM     17  C   UNL     1       1.073  -1.841   1.233  0.00  0.00    +0.043 A 
ATOM     18  C   UNL     1       0.284  -0.697   1.224  0.00  0.00    +0.037 A 
ATOM     19 CL   UNL     1       2.323  -3.934   0.061  0.00  0.00    -0.083 Cl
ENDBRANCH   5  18
ENDBRANCH   1   8
BRANCH   3  20
ATOM     20  C   UNL     1      -0.512   1.321   8.813  0.00  0.00    +0.114 C 
BRANCH  20  21
ATOM     21  C   UNL     1      -0.536   2.850   8.763  0.00  0.00    +0.114 C 
BRANCH  21  22
ATOM     22  C   UNL     1      -0.657   3.397  10.162  0.00  0.00    +0.214 C 
ATOM     23  O   UNL     1      -0.720   2.639  11.106  0.00  0.00    -0.276 OA
ATOM     24  N   UNL     1      -0.697   4.729  10.363  0.00  0.00    -0.317 N 
ATOM     25  H   UNL     1      -0.647   5.336   9.608  0.00  0.00    +0.149 HD
BRANCH  24  26
ATOM     26  C   UNL     1      -0.816   5.261  11.723  0.00  0.00    +0.085 C 
BRANCH  26  27
ATOM     27  C   UNL     1      -0.839   6.790  11.673  0.00  0.00    -0.061 C 
BRANCH  27  28
ATOM     28  N   UNL     1      -0.958   7.323  13.037  0.00  0.00    +0.377 N 
ATOM     29  C   UNL     1       0.247   6.978  13.804  0.00  0.00    -0.097 C 
ATOM     30  C   UNL     1      -1.100   8.784  12.981  0.00  0.00    -0.097 C 
ATOM     31  H   UNL     1      -1.768   6.923  13.485  0.00  0.00    -0.083 HD
ENDBRANCH  27  28
ENDBRANCH  26  27
ENDBRANCH  24  26
ENDBRANCH  21  22
ENDBRANCH  20  21
ENDBRANCH   3  20
TORSDOF 8
