REMARK  Name = ZINC09647338
REMARK  7 active torsions:
REMARK  status: ('A' for Active; 'I' for Inactive)
REMARK    1  A    between atoms: C_1  and  O_2
REMARK    2  A    between atoms: O_2  and  C_3
REMARK    3  A    between atoms: C_6  and  C_9
REMARK    4  A    between atoms: C_12  and  C_31
REMARK    5  A    between atoms: C_15  and  C_17
REMARK    6  A    between atoms: C_17  and  N_63
REMARK    7  A    between atoms: C_26  and  C_28
REMARK                            x       y       z     vdW  Elec       q    Type
REMARK                         _______ _______ _______ _____ _____    ______ ____
ROOT
ATOM      1  C   UNL     1       2.117   3.123  -1.124  0.00  0.00    +0.137 C 
ATOM      2  C   UNL     1       0.580   3.128  -1.243  0.00  0.00    +0.087 C 
ATOM      3  C   UNL     1       0.188   1.698  -0.947  0.00  0.00    +0.069 C 
ATOM      4  N   UNL     1       1.244   1.002  -0.707  0.00  0.00    -0.181 NA
ATOM      5  N   UNL     1       2.432   1.727  -0.781  0.00  0.00    -0.187 N 
ATOM      6  C   UNL     1       3.668   1.231  -0.572  0.00  0.00    +0.219 C 
ATOM      7  O   UNL     1       4.636   1.956  -0.663  0.00  0.00    -0.276 OA
ENDROOT
BRANCH   1  11
ATOM      8  C   UNL     1       3.392   5.761   1.987  0.00  0.00    +0.120 A 
ATOM      9  C   UNL     1       3.447   6.171   0.663  0.00  0.00    +0.046 A 
ATOM     10  C   UNL     1       3.034   5.316  -0.341  0.00  0.00    +0.009 A 
ATOM     11  C   UNL     1       2.567   4.053  -0.027  0.00  0.00    -0.024 A 
ATOM     12  C   UNL     1       2.506   3.645   1.293  0.00  0.00    +0.009 A 
ATOM     13  C   UNL     1       2.923   4.494   2.300  0.00  0.00    +0.046 A 
BRANCH   8  15
ATOM     14  C   UNL     1       3.713   6.111   4.316  0.00  0.00    +0.277 C 
ATOM     15  O   UNL     1       3.798   6.600   2.976  0.00  0.00    -0.495 OA
ENDBRANCH   8  15
ENDBRANCH   1  11
BRANCH   3  16
ATOM     16  C   UNL     1      -1.193   1.180  -0.935  0.00  0.00    -0.002 A 
ATOM     17  C   UNL     1      -2.265   2.034  -1.207  0.00  0.00    +0.010 A 
ATOM     18  C   UNL     1      -3.554   1.541  -1.199  0.00  0.00    +0.001 A 
ATOM     19  C   UNL     1      -3.786   0.207  -0.912  0.00  0.00    +0.000 A 
ATOM     20  C   UNL     1      -2.730  -0.642  -0.636  0.00  0.00    +0.001 A 
ATOM     21  C   UNL     1      -1.436  -0.165  -0.646  0.00  0.00    +0.010 A 
ENDBRANCH   3  16
BRANCH   6  22
ATOM     22  C   UNL     1       3.846  -0.225  -0.225  0.00  0.00    +0.022 C 
BRANCH  22  32
ATOM     23  C   UNL     1       5.823   0.220   1.096  0.00  0.00    -0.041 C 
ATOM     24  C   UNL     1       7.308  -0.007   1.207  0.00  0.00    -0.061 A 
ATOM     25  C   UNL     1       7.934   0.289   2.409  0.00  0.00    +0.002 A 
ATOM     26  C   UNL     1       9.293   0.099   2.554  0.00  0.00    +0.000 A 
ATOM     27  C   UNL     1      10.037  -0.389   1.496  0.00  0.00    +0.000 A 
ATOM     28  C   UNL     1       9.416  -0.685   0.299  0.00  0.00    +0.004 A 
ATOM     29  C   UNL     1       8.050  -0.497   0.154  0.00  0.00    -0.047 A 
ATOM     30  C   UNL     1       7.413  -0.844  -1.168  0.00  0.00    +0.029 C 
ATOM     31  C   UNL     1       6.033  -0.194  -1.269  0.00  0.00    +0.024 C 
ATOM     32  N   UNL     1       5.282  -0.537  -0.045  0.00  0.00    +0.396 N 
ATOM     33  H   UNL     1       5.384  -1.542   0.141  0.00  0.00    -0.080 HD
BRANCH  31  34
ATOM     34  C   UNL     1       5.306  -0.735  -2.473  0.00  0.00    +0.197 C 
ATOM     35  O   UNL     1       4.680  -1.771  -2.389  0.00  0.00    -0.278 OA
ATOM     36  N   UNL     1       5.350  -0.068  -3.643  0.00  0.00    -0.331 N 
ATOM     37  H   UNL     1       5.850   0.760  -3.710  0.00  0.00    +0.145 HD
ATOM     38  H   UNL     1       4.882  -0.416  -4.418  0.00  0.00    +0.145 HD
ENDBRANCH  31  34
ENDBRANCH  22  32
ENDBRANCH   6  22
TORSDOF 6
