REMARK  Name = ZINC14953376
REMARK  12 active torsions:
REMARK  status: ('A' for Active; 'I' for Inactive)
REMARK    1  A    between atoms: C_1  and  C_2
REMARK    2  A    between atoms: C_2  and  C_3
REMARK    3  A    between atoms: C_2  and  C_4
REMARK    4  A    between atoms: C_2  and  C_24
REMARK    5  A    between atoms: C_4  and  N_5
REMARK    6  A    between atoms: C_6  and  C_8
REMARK    7  A    between atoms: C_8  and  C_9
REMARK    8  A    between atoms: C_16  and  C_17
REMARK    9  A    between atoms: C_16  and  N_57
REMARK   10  A    between atoms: C_24  and  N_59
REMARK   11  A    between atoms: C_25  and  N_59
REMARK   12  A    between atoms: C_26  and  N_59
REMARK                            x       y       z     vdW  Elec       q    Type
REMARK                         _______ _______ _______ _____ _____    ______ ____
ROOT
ATOM      1  C   UNL     1      -1.146   3.304  -0.622  0.00  0.00    +0.028 C 
ATOM      2  C   UNL     1      -1.968   2.692   0.477  0.00  0.00    +0.200 C 
ATOM      3  O   UNL     1      -3.082   3.128   0.680  0.00  0.00    -0.278 OA
ATOM      4  N   UNL     1      -1.523   1.689   1.241  0.00  0.00    -0.318 N 
ATOM      5  C   UNL     1      -0.187   1.118   1.102  0.00  0.00    +0.085 C 
ATOM      6  C   UNL     1       0.405   1.492  -0.259  0.00  0.00    -0.058 C 
ATOM      7  H   UNL     1      -2.115   1.323   1.917  0.00  0.00    +0.149 HD
ATOM      8  N   UNL     1       0.274   2.954  -0.427  0.00  0.00    +0.391 N 
ATOM      9  H   UNL     1       0.622   3.421   0.418  0.00  0.00    -0.080 HD
ENDROOT
BRANCH   1  10
ATOM     10  C   UNL     1      -1.293   4.826  -0.580  0.00  0.00    +0.089 C 
BRANCH  10  12
ATOM     11  N   UNL     1      -0.656   6.679   0.930  0.00  0.00    -0.315 N 
ATOM     12  C   UNL     1      -0.718   5.351   0.711  0.00  0.00    +0.212 C 
ATOM     13  O   UNL     1      -0.312   4.578   1.552  0.00  0.00    -0.276 OA
ATOM     14  H   UNL     1      -0.981   7.298   0.257  0.00  0.00    +0.149 HD
BRANCH  11  15
ATOM     15  C   UNL     1      -0.097   7.189   2.185  0.00  0.00    +0.108 C 
BRANCH  15  17
ATOM     16  C   UNL     1       0.678   9.249   1.002  0.00  0.00    +0.010 C 
ATOM     17  C   UNL     1      -0.143   8.719   2.179  0.00  0.00    -0.034 C 
ATOM     18  C   UNL     1      -1.594   9.184   2.040  0.00  0.00    +0.010 C 
BRANCH  17  19
ATOM     19  C   UNL     1       0.440   9.251   3.489  0.00  0.00    -0.072 C 
BRANCH  19  22
ATOM     20  C   UNL     1       2.787   9.590   3.000  0.00  0.00    -0.097 C 
ATOM     21  C   UNL     1       2.122   8.569   5.092  0.00  0.00    -0.097 C 
ATOM     22  N   UNL     1       1.803   8.703   3.655  0.00  0.00    +0.376 N 
ATOM     23  H   UNL     1       1.845   7.776   3.216  0.00  0.00    -0.083 HD
ENDBRANCH  19  22
ENDBRANCH  17  19
ENDBRANCH  15  17
ENDBRANCH  11  15
ENDBRANCH  10  12
ENDBRANCH   1  10
BRANCH   8  24
ATOM     24  C   UNL     1       1.071   3.404  -1.591  0.00  0.00    -0.042 C 
BRANCH  24  25
ATOM     25  C   UNL     1       0.526   2.804  -2.861  0.00  0.00    -0.064 A 
ATOM     26  C   UNL     1       0.938   1.547  -3.263  0.00  0.00    +0.004 A 
ATOM     27  C   UNL     1       0.443   0.998  -4.430  0.00  0.00    +0.038 A 
ATOM     28  C   UNL     1      -0.474   1.702  -5.192  0.00  0.00    +0.123 A 
ATOM     29  C   UNL     1      -0.890   2.959  -4.786  0.00  0.00    +0.038 A 
ATOM     30  C   UNL     1      -0.389   3.509  -3.621  0.00  0.00    +0.004 A 
ATOM     31  F   UNL     1      -0.963   1.164  -6.331  0.00  0.00    -0.205 F 
ENDBRANCH  24  25
ENDBRANCH   8  24
TORSDOF 8
