REMARK  Name = ZINC22014600
REMARK  12 active torsions:
REMARK  status: ('A' for Active; 'I' for Inactive)
REMARK    1  A    between atoms: C_1  and  C_2
REMARK    2  A    between atoms: C_2  and  C_3
REMARK    3  A    between atoms: C_3  and  C_4
REMARK    4  A    between atoms: C_4  and  N_5
REMARK    5  A    between atoms: C_6  and  N_34
REMARK    6  A    between atoms: C_7  and  N_14
REMARK    7  A    between atoms: N_14  and  C_15
REMARK    8  A    between atoms: C_20  and  C_22
REMARK    9  A    between atoms: C_22  and  N_23
REMARK   10  A    between atoms: C_27  and  C_29
REMARK   11  A    between atoms: N_31  and  C_32
REMARK   12  A    between atoms: N_31  and  C_33
REMARK                            x       y       z     vdW  Elec       q    Type
REMARK                         _______ _______ _______ _____ _____    ______ ____
ROOT
ATOM      1  N   UNL     1       1.266   5.979  -0.006  0.00  0.00    -0.263 N 
ATOM      2  C   UNL     1       0.996   4.717   0.388  0.00  0.00    +0.204 C 
ATOM      3  O   UNL     1       1.168   3.793  -0.379  0.00  0.00    -0.277 OA
ENDROOT
BRANCH   1   6
ATOM      4  N   UNL     1       1.959   8.164   2.866  0.00  0.00    -0.280 N 
ATOM      5  C   UNL     1       2.064   7.118   1.979  0.00  0.00    +0.127 A 
ATOM      6  C   UNL     1       1.183   7.040   0.921  0.00  0.00    +0.140 A 
ATOM      7  C   UNL     1       0.202   8.040   0.779  0.00  0.00    +0.277 A 
ATOM      8  O   UNL     1      -0.587   7.998  -0.150  0.00  0.00    -0.266 OA
ATOM      9  N   UNL     1       0.138   9.041   1.678  0.00  0.00    -0.273 N 
ATOM     10  H   UNL     1      -0.631   9.821   1.579  0.00  0.00    +0.173 HD
ATOM     11  C   UNL     1       1.006   9.100   2.704  0.00  0.00    +0.331 A 
ATOM     12  O   UNL     1       0.929  10.018   3.498  0.00  0.00    -0.246 OA
BRANCH   5  13
ATOM     13  N   UNL     1       3.038   6.162   2.145  0.00  0.00    -0.343 N 
ATOM     14  H   UNL     1       3.116   5.328   1.432  0.00  0.00    +0.144 HD
ATOM     15  H   UNL     1       3.738   6.230   2.991  0.00  0.00    +0.144 HD
ENDBRANCH   5  13
BRANCH   4  16
ATOM     16  C   UNL     1       2.888   8.259   3.994  0.00  0.00    +0.128 C 
BRANCH  16  17
ATOM     17  C   UNL     1       4.116   9.071   3.577  0.00  0.00    +0.021 C 
BRANCH  17  19
ATOM     18  C   UNL     1       6.315   9.982   4.338  0.00  0.00    +0.004 C 
ATOM     19  C   UNL     1       5.087   9.170   4.755  0.00  0.00    -0.002 C 
ENDBRANCH  17  19
ENDBRANCH  16  17
ENDBRANCH   4  16
ENDBRANCH   1   6
BRANCH   1  20
ATOM     20  C   UNL     1       1.645   6.248  -1.395  0.00  0.00    +0.082 C 
ATOM     21  C   UNL     1       0.502   5.834  -2.345  0.00  0.00    +0.023 C 
ATOM     22  C   UNL     1       1.228   5.253  -3.583  0.00  0.00    +0.002 C 
ATOM     23  C   UNL     1       2.425   4.497  -2.953  0.00  0.00    +0.002 C 
ATOM     24  C   UNL     1       2.868   5.398  -1.782  0.00  0.00    +0.023 C 
ENDBRANCH   1  20
BRANCH   2  25
ATOM     25  C   UNL     1       0.481   4.455   1.779  0.00  0.00    +0.020 C 
BRANCH  25  26
ATOM     26  N   UNL     1       0.157   3.029   1.921  0.00  0.00    +0.393 N 
ATOM     27  C   UNL     1       1.391   2.201   1.927  0.00  0.00    -0.077 C 
ATOM     28  C   UNL     1       0.969   0.879   2.603  0.00  0.00    -0.020 C 
ATOM     29  C   UNL     1      -0.257   1.243   3.466  0.00  0.00    -0.008 C 
ATOM     30  C   UNL     1      -0.473   2.755   3.239  0.00  0.00    +0.020 C 
ATOM     31  H   UNL     1      -0.507   2.797   1.076  0.00  0.00    -0.080 HD
BRANCH  30  32
ATOM     32  C   UNL     1      -1.945   3.075   3.194  0.00  0.00    +0.202 C 
ATOM     33  O   UNL     1      -2.486   3.291   2.131  0.00  0.00    -0.277 OA
ATOM     34  N   UNL     1      -2.659   3.122   4.336  0.00  0.00    -0.309 N 
ATOM     35  C   UNL     1      -4.111   3.313   4.285  0.00  0.00    +0.131 C 
ATOM     36  C   UNL     1      -1.984   2.981   5.629  0.00  0.00    +0.131 C 
ENDBRANCH  30  32
ENDBRANCH  25  26
ENDBRANCH   2  25
TORSDOF 9
