REMARK  Name = ZINC57719350
REMARK  7 active torsions:
REMARK  status: ('A' for Active; 'I' for Inactive)
REMARK    1  A    between atoms: C_1  and  O_2
REMARK    2  A    between atoms: O_2  and  C_3
REMARK    3  A    between atoms: N_13  and  C_16
REMARK    4  A    between atoms: C_16  and  C_17
REMARK    5  A    between atoms: C_17  and  C_18
REMARK    6  A    between atoms: C_18  and  C_19
REMARK    7  A    between atoms: C_19  and  C_24
REMARK                            x       y       z     vdW  Elec       q    Type
REMARK                         _______ _______ _______ _____ _____    ______ ____
ROOT
ATOM      1  C   UNL     1       0.595  -0.631  -0.608  0.00  0.00    +0.122 A 
ATOM      2  C   UNL     1       1.248   0.168  -1.536  0.00  0.00    +0.048 A 
ATOM      3  C   UNL     1       1.942  -0.411  -2.583  0.00  0.00    +0.031 A 
ATOM      4  C   UNL     1       1.984  -1.786  -2.703  0.00  0.00    +0.067 A 
ATOM      5  C   UNL     1       1.350  -2.598  -1.757  0.00  0.00    +0.055 A 
ATOM      6  C   UNL     1       0.650  -2.013  -0.714  0.00  0.00    +0.070 A 
ATOM      7  N   UNL     1       1.457  -3.992  -1.844  0.00  0.00    -0.331 N 
ATOM      8  C   UNL     1       1.634  -4.640  -3.151  0.00  0.00    +0.069 C 
ATOM      9  C   UNL     1       0.275  -4.802  -3.832  0.00  0.00    +0.013 C 
ATOM     10  C   UNL     1      -0.598  -5.747  -3.002  0.00  0.00    -0.076 C 
ATOM     11  N   UNL     1       0.061  -7.053  -2.889  0.00  0.00    +0.380 N 
ATOM     12  C   UNL     1       1.330  -6.912  -2.164  0.00  0.00    -0.076 C 
ATOM     13  C   UNL     1       2.279  -6.013  -2.961  0.00  0.00    +0.013 C 
ATOM     14  C   UNL     1       2.529  -3.767  -3.992  0.00  0.00    +0.047 A 
ATOM     15  N   UNL     1       2.659  -2.414  -3.763  0.00  0.00    -0.316 N 
ATOM     16  C   UNL     1       3.502  -1.897  -4.688  0.00  0.00    +0.092 A 
ATOM     17  C   UNL     1       3.923  -2.905  -5.485  0.00  0.00    +0.020 A 
ATOM     18  C   UNL     1       3.303  -4.091  -5.034  0.00  0.00    +0.025 A 
ATOM     19  H   UNL     1       1.415  -4.531  -1.039  0.00  0.00    +0.147 HD
ATOM     20  H   UNL     1       0.242  -7.419  -3.812  0.00  0.00    -0.082 HD
ENDROOT
BRANCH   1  22
ATOM     21  C   UNL     1      -0.112   1.370   0.463  0.00  0.00    +0.277 C 
ATOM     22  O   UNL     1      -0.096  -0.058   0.413  0.00  0.00    -0.495 OA
ENDBRANCH   1  22
BRANCH  11  23
ATOM     23  C   UNL     1      -0.816  -7.981  -2.162  0.00  0.00    -0.079 C 
BRANCH  23  24
ATOM     24  C   UNL     1      -0.186  -9.375  -2.151  0.00  0.00    -0.013 C 
BRANCH  24  25
ATOM     25  C   UNL     1      -1.100 -10.341  -1.393  0.00  0.00    +0.068 C 
BRANCH  25  26
ATOM     26  C   UNL     1      -0.536 -11.760  -1.494  0.00  0.00    +0.197 C 
ATOM     27  O   UNL     1      -0.483 -12.161  -2.869  0.00  0.00    -0.342 OA
ATOM     28  C   UNL     1      -1.325 -13.323  -3.011  0.00  0.00    +0.191 C 
ATOM     29  C   UNL     1      -2.271 -13.220  -1.788  0.00  0.00    +0.191 C 
ATOM     30  O   UNL     1      -1.390 -12.670  -0.780  0.00  0.00    -0.342 OA
BRANCH  26  31
ATOM     31  C   UNL     1       0.850 -11.798  -0.904  0.00  0.00    +0.011 A 
ATOM     32  C   UNL     1       1.948 -11.549  -1.706  0.00  0.00    +0.011 A 
ATOM     33  C   UNL     1       3.220 -11.583  -1.166  0.00  0.00    +0.039 A 
ATOM     34  C   UNL     1       3.394 -11.866   0.178  0.00  0.00    +0.123 A 
ATOM     35  C   UNL     1       2.293 -12.114   0.980  0.00  0.00    +0.039 A 
ATOM     36  C   UNL     1       1.022 -12.075   0.439  0.00  0.00    +0.011 A 
ATOM     37  F   UNL     1       4.636 -11.899   0.707  0.00  0.00    -0.205 F 
ENDBRANCH  26  31
ENDBRANCH  25  26
ENDBRANCH  24  25
ENDBRANCH  23  24
ENDBRANCH  11  23
TORSDOF 6
