REMARK  Name = ZINC61642799
REMARK  10 active torsions:
REMARK  status: ('A' for Active; 'I' for Inactive)
REMARK    1  A    between atoms: C_1  and  N_2
REMARK    2  A    between atoms: N_2  and  C_3
REMARK    3  A    between atoms: N_2  and  C_4
REMARK    4  A    between atoms: C_4  and  C_5
REMARK    5  A    between atoms: N_10  and  C_11
REMARK    6  A    between atoms: C_11  and  C_13
REMARK    7  A    between atoms: C_11  and  C_15
REMARK    8  A    between atoms: C_13  and  N_14
REMARK    9  A    between atoms: C_18  and  O_22
REMARK   10  A    between atoms: O_22  and  C_23
REMARK                            x       y       z     vdW  Elec       q    Type
REMARK                         _______ _______ _______ _____ _____    ______ ____
ROOT
ATOM      1  C   UNL     1      -0.867   0.544  -3.284  0.00  0.00    +0.070 C 
ENDROOT
BRANCH   1   2
ATOM      2  C   UNL     1      -2.064   1.137  -3.982  0.00  0.00    -0.031 A 
ATOM      3  C   UNL     1      -3.100   0.318  -4.391  0.00  0.00    +0.009 A 
ATOM      4  C   UNL     1      -4.198   0.858  -5.032  0.00  0.00    +0.047 A 
ATOM      5  C   UNL     1      -4.261   2.224  -5.265  0.00  0.00    +0.134 A 
ATOM      6  C   UNL     1      -3.220   3.044  -4.854  0.00  0.00    +0.060 A 
ATOM      7  C   UNL     1      -2.126   2.499  -4.208  0.00  0.00    +0.024 A 
ATOM      8 BR   UNL     1      -3.302   4.907  -5.169  0.00  0.00    -0.047 Br
BRANCH   5   9
ATOM      9  O   UNL     1      -5.340   2.758  -5.896  0.00  0.00    -0.494 OA
ATOM     10  C   UNL     1      -6.373   1.853  -6.292  0.00  0.00    +0.277 C 
ENDBRANCH   5   9
ENDBRANCH   1   2
BRANCH   1  15
ATOM     11  C   UNL     1      -1.325   1.671  -1.185  0.00  0.00    +0.041 C 
ATOM     12  C   UNL     1      -2.743   1.711  -0.578  0.00  0.00    +0.018 C 
ATOM     13  C   UNL     1      -3.514   0.662  -1.422  0.00  0.00    +0.017 C 
ATOM     14  C   UNL     1      -2.420  -0.406  -1.669  0.00  0.00    +0.085 C 
ATOM     15  N   UNL     1      -1.171   0.368  -1.857  0.00  0.00    -0.296 NA
BRANCH  11  16
ATOM     16  C   UNL     1      -0.280   1.811  -0.076  0.00  0.00    -0.061 C 
BRANCH  16  18
ATOM     17  C   UNL     1       1.359   2.689  -1.591  0.00  0.00    -0.097 C 
ATOM     18  N   UNL     1       1.062   1.611  -0.639  0.00  0.00    +0.377 N 
ATOM     19  C   UNL     1       2.054   1.626   0.444  0.00  0.00    -0.097 C 
ATOM     20  H   UNL     1       1.097   0.722  -1.115  0.00  0.00    -0.083 HD
ENDBRANCH  16  18
ENDBRANCH  11  16
ENDBRANCH   1  15
BRANCH   1  21
ATOM     21  C   UNL     1      -0.534  -0.813  -3.906  0.00  0.00    -0.063 C 
BRANCH  21  22
ATOM     22  N   UNL     1       0.555  -1.445  -3.149  0.00  0.00    +0.379 N 
ATOM     23  H   UNL     1       1.372  -0.853  -3.177  0.00  0.00    -0.090 HD
ATOM     24  H   UNL     1       0.267  -1.576  -2.191  0.00  0.00    -0.090 HD
ATOM     25  H   UNL     1       0.775  -2.340  -3.560  0.00  0.00    -0.090 HD
ENDBRANCH  21  22
ENDBRANCH   1  21
TORSDOF 7
