REMARK  Name = ZINC43225946
REMARK  13 active torsions:
REMARK  status: ('A' for Active; 'I' for Inactive)
REMARK    1  A    between atoms: C_1  and  C_2
REMARK    2  A    between atoms: C_2  and  C_3
REMARK    3  A    between atoms: C_3  and  C_4
REMARK    4  A    between atoms: C_4  and  C_6
REMARK    5  A    between atoms: C_4  and  N_14
REMARK    6  A    between atoms: N_8  and  C_9
REMARK    7  A    between atoms: C_9  and  C_10
REMARK    8  A    between atoms: C_10  and  N_11
REMARK    9  A    between atoms: N_11  and  C_12
REMARK   10  A    between atoms: N_11  and  C_13
REMARK   11  A    between atoms: C_15  and  C_29
REMARK   12  A    between atoms: C_16  and  C_26
REMARK   13  A    between atoms: C_18  and  C_19
REMARK                            x       y       z     vdW  Elec       q    Type
REMARK                         _______ _______ _______ _____ _____    ______ ____
ROOT
ATOM      1  N   UNL     1       1.457  -2.571  -2.453  0.00  0.00    -0.331 N 
ATOM      2  C   UNL     1       1.072  -2.368  -3.728  0.00  0.00    +0.029 A 
ATOM      3  C   UNL     1       2.091  -2.783  -4.558  0.00  0.00    +0.058 A 
ATOM      4  C   UNL     1       3.136  -3.257  -3.724  0.00  0.00    +0.041 A 
ATOM      5  C   UNL     1       2.720  -3.109  -2.441  0.00  0.00    +0.051 A 
ATOM      6  C   UNL     1      -0.247  -1.789  -4.171  0.00  0.00    +0.064 C 
ENDROOT
BRANCH   5   7
ATOM      7  C   UNL     1       3.495  -3.470  -1.233  0.00  0.00    -0.000 A 
ATOM      8  C   UNL     1       2.834  -3.863  -0.068  0.00  0.00    +0.010 A 
ATOM      9  C   UNL     1       3.562  -4.198   1.055  0.00  0.00    +0.002 A 
ATOM     10  C   UNL     1       4.944  -4.145   1.028  0.00  0.00    +0.020 A 
ATOM     11  C   UNL     1       5.606  -3.756  -0.124  0.00  0.00    +0.042 A 
ATOM     12  C   UNL     1       4.889  -3.423  -1.256  0.00  0.00    +0.030 A 
ATOM     13 CL   UNL     1       7.341  -3.692  -0.147  0.00  0.00    -0.084 Cl
ENDBRANCH   5   7
BRANCH   3  14
ATOM     14  C   UNL     1       2.094  -2.743  -6.031  0.00  0.00    +0.243 C 
ATOM     15  O   UNL     1       1.128  -2.310  -6.629  0.00  0.00    -0.270 OA
ATOM     16  N   UNL     1       3.168  -3.185  -6.715  0.00  0.00    -0.325 N 
ATOM     17  H   UNL     1       3.939  -3.530  -6.237  0.00  0.00    +0.145 HD
ATOM     18  H   UNL     1       3.170  -3.158  -7.684  0.00  0.00    +0.145 HD
ENDBRANCH   3  14
BRANCH   1  19
ATOM     19  C   UNL     1       0.656  -2.261  -1.266  0.00  0.00    +0.173 C 
BRANCH  19  20
ATOM     20  C   UNL     1      -0.546  -3.168  -1.220  0.00  0.00    +0.236 C 
ATOM     21  O   UNL     1      -0.676  -4.046  -2.046  0.00  0.00    -0.274 OA
ATOM     22  N   UNL     1      -1.478  -3.004  -0.260  0.00  0.00    -0.315 N 
ATOM     23  H   UNL     1      -1.413  -2.258   0.357  0.00  0.00    +0.149 HD
BRANCH  22  24
ATOM     24  C   UNL     1      -2.589  -3.953  -0.147  0.00  0.00    +0.086 C 
BRANCH  24  25
ATOM     25  C   UNL     1      -3.495  -3.541   1.015  0.00  0.00    -0.061 C 
BRANCH  25  26
ATOM     26  N   UNL     1      -4.609  -4.492   1.128  0.00  0.00    +0.377 N 
ATOM     27  C   UNL     1      -4.087  -5.816   1.492  0.00  0.00    -0.097 C 
ATOM     28  C   UNL     1      -5.543  -4.032   2.164  0.00  0.00    -0.097 C 
ATOM     29  H   UNL     1      -5.091  -4.553   0.243  0.00  0.00    -0.083 HD
ENDBRANCH  25  26
ENDBRANCH  24  25
ENDBRANCH  22  24
ENDBRANCH  19  20
BRANCH  19  30
ATOM     30  C   UNL     1       0.193  -0.804  -1.329  0.00  0.00    +0.034 C 
BRANCH  30  32
ATOM     31  C   UNL     1       0.959   1.572  -1.435  0.00  0.00    +0.004 C 
ATOM     32  C   UNL     1       1.409   0.121  -1.254  0.00  0.00    -0.001 C 
ENDBRANCH  30  32
ENDBRANCH  19  30
ENDBRANCH   1  19
TORSDOF 9
