REMARK  Name = ZINC05209257
REMARK  9 active torsions:
REMARK  status: ('A' for Active; 'I' for Inactive)
REMARK    1  A    between atoms: C_1  and  N_2
REMARK    2  A    between atoms: N_2  and  C_3
REMARK    3  A    between atoms: C_3  and  N_5
REMARK    4  A    between atoms: N_5  and  N_6
REMARK    5  A    between atoms: C_7  and  C_9
REMARK    6  A    between atoms: C_12  and  C_15
REMARK    7  A    between atoms: C_15  and  N_16
REMARK    8  A    between atoms: N_16  and  C_17
REMARK    9  A    between atoms: C_20  and  C_22
REMARK                            x       y       z     vdW  Elec       q    Type
REMARK                         _______ _______ _______ _____ _____    ______ ____
ROOT
ATOM      1  C   UNL     1      -2.147   3.777   1.897  0.00  0.00    +0.146 C 
ATOM      2  N   UNL     1      -2.845   2.695   1.820  0.00  0.00    -0.084 NA
ATOM      3  O   UNL     1      -2.137   1.625   1.227  0.00  0.00    -0.388 OA
ATOM      4  C   UNL     1      -0.734   1.954   1.269  0.00  0.00    +0.227 C 
ATOM      5  C   UNL     1      -0.775   3.500   1.313  0.00  0.00    +0.113 C 
ENDROOT
BRANCH   1   7
ATOM      6  N   UNL     1      -3.855   5.179   2.947  0.00  0.00    -0.230 N 
ATOM      7  C   UNL     1      -2.605   5.064   2.457  0.00  0.00    +0.278 C 
ATOM      8  O   UNL     1      -1.854   6.020   2.477  0.00  0.00    -0.267 OA
ATOM      9  H   UNL     1      -4.454   4.416   2.932  0.00  0.00    +0.173 HD
BRANCH   6  10
ATOM     10  N   UNL     1      -4.290   6.400   3.479  0.00  0.00    -0.246 N 
ATOM     11  H   UNL     1      -3.691   7.162   3.495  0.00  0.00    +0.172 HD
BRANCH  10  12
ATOM     12  C   UNL     1      -5.540   6.515   3.969  0.00  0.00    +0.147 C 
ATOM     13  S   UNL     1      -6.071   8.007   4.619  0.00  0.00    -0.017 S 
BRANCH  12  15
ATOM     14  C   UNL     1      -7.731   5.580   4.481  0.00  0.00    +0.127 C 
ATOM     15  N   UNL     1      -6.372   5.455   3.948  0.00  0.00    -0.329 N 
ATOM     16  H   UNL     1      -6.071   4.609   3.579  0.00  0.00    +0.147 HD
ENDBRANCH  12  15
ENDBRANCH  10  12
ENDBRANCH   6  10
ENDBRANCH   1   7
BRANCH   4  17
ATOM     17  C   UNL     1      -0.018   1.461   0.010  0.00  0.00    +0.150 C 
BRANCH  17  18
ATOM     18  N   UNL     1       0.002  -0.004   0.002  0.00  0.00    -0.326 N 
ATOM     19  H   UNL     1      -0.404  -0.499   0.731  0.00  0.00    +0.148 HD
BRANCH  18  20
ATOM     20  C   UNL     1       0.604  -0.685  -1.050  0.00  0.00    +0.115 A 
ATOM     21  C   UNL     1       0.624  -2.078  -1.049  0.00  0.00    +0.079 A 
ATOM     22  C   UNL     1       1.221  -2.743  -2.106  0.00  0.00    +0.037 A 
ATOM     23  C   UNL     1       1.789  -1.990  -3.126  0.00  0.00    +0.072 A 
ATOM     24  C   UNL     1       1.738  -0.613  -3.059  0.00  0.00    +0.096 A 
ATOM     25 CL   UNL     1      -0.095  -2.967   0.257  0.00  0.00    -0.080 Cl
ATOM     26  N   UNL     1       1.155   0.074  -2.040  0.00  0.00    -0.348 N 
ATOM     27  H   UNL     1       1.131   1.100  -2.018  0.00  0.00    +0.167 HD
BRANCH  23  28
ATOM     28  C   UNL     1       2.455  -2.671  -4.293  0.00  0.00    +0.419 C 
ATOM     29  F   UNL     1       2.945  -1.706  -5.179  0.00  0.00    -0.166 F 
ATOM     30  F   UNL     1       3.514  -3.460  -3.831  0.00  0.00    -0.166 F 
ATOM     31  F   UNL     1       1.525  -3.481  -4.954  0.00  0.00    -0.166 F 
ENDBRANCH  23  28
ENDBRANCH  18  20
ENDBRANCH  17  18
ENDBRANCH   4  17
TORSDOF 8
