REMARK  Name = ZINC08789081
REMARK  11 active torsions:
REMARK  status: ('A' for Active; 'I' for Inactive)
REMARK    1  A    between atoms: C_1  and  C_2
REMARK    2  A    between atoms: C_2  and  C_4
REMARK    3  A    between atoms: C_10  and  C_39
REMARK    4  A    between atoms: C_20  and  C_38
REMARK    5  A    between atoms: C_23  and  O_26
REMARK    6  A    between atoms: O_26  and  C_27
REMARK    7  A    between atoms: C_27  and  C_29
REMARK    8  A    between atoms: C_29  and  C_30
REMARK    9  A    between atoms: C_30  and  N_84
REMARK   10  A    between atoms: C_34  and  C_36
REMARK   11  A    between atoms: C_34  and  C_37
REMARK                            x       y       z     vdW  Elec       q    Type
REMARK                         _______ _______ _______ _____ _____    ______ ____
ROOT
ATOM      1  C   UNL     1       0.925  -1.936  -1.448  0.00  0.00    +0.061 C 
ATOM      2  C   UNL     1       2.279  -2.203  -2.152  0.00  0.00    +0.012 C 
ATOM      3  C   UNL     1       3.010  -0.835  -2.229  0.00  0.00    +0.005 C 
ATOM      4  C   UNL     1       2.373  -0.035  -1.084  0.00  0.00    -0.001 C 
ATOM      5  C   UNL     1       0.878  -0.428  -1.222  0.00  0.00    -0.019 C 
ATOM      6  C   UNL     1       0.175   0.044   0.036  0.00  0.00    +0.008 C 
ATOM      7  C   UNL     1       0.251   1.579   0.048  0.00  0.00    +0.005 C 
ATOM      8  C   UNL     1       1.693   2.075  -0.011  0.00  0.00    +0.003 C 
ATOM      9  C   UNL     1       2.455   1.476  -1.201  0.00  0.00    +0.000 C 
ATOM     10  C   UNL     1       3.920   1.918  -1.101  0.00  0.00    +0.031 C 
ATOM     11  C   UNL     1       3.981   3.416  -1.043  0.00  0.00    -0.027 C 
ATOM     12  C   UNL     1       3.008   4.149  -0.587  0.00  0.00    -0.064 C 
ATOM     13  C   UNL     1       1.712   3.593  -0.075  0.00  0.00    -0.008 C 
ATOM     14  C   UNL     1       1.415   4.180   1.307  0.00  0.00    +0.015 C 
ATOM     15  C   UNL     1       1.456   5.708   1.230  0.00  0.00    +0.046 C 
ATOM     16  C   UNL     1       2.861   6.167   0.839  0.00  0.00    +0.180 C 
ATOM     17  C   UNL     1       3.191   5.657  -0.568  0.00  0.00    +0.075 C 
ATOM     18  C   UNL     1       0.605   4.044  -1.031  0.00  0.00    +0.016 C 
ATOM     19  C   UNL     1       0.271   0.262  -2.446  0.00  0.00    +0.012 C 
ENDROOT
BRANCH   1  21
ATOM     20  C   UNL     1      -0.461  -3.039   0.469  0.00  0.00    +0.086 C 
ATOM     21  C   UNL     1       0.870  -2.663  -0.130  0.00  0.00    +0.134 C 
ATOM     22  O   UNL     1       1.892  -2.945   0.448  0.00  0.00    -0.297 OA
ENDBRANCH   1  21
BRANCH  16  23
ATOM     23  O   UNL     1       2.918   7.618   0.853  0.00  0.00    -0.461 OA
BRANCH  23  24
ATOM     24  C   UNL     1       4.101   8.178   1.150  0.00  0.00    +0.306 C 
ATOM     25  O   UNL     1       5.057   7.480   1.389  0.00  0.00    -0.251 OA
BRANCH  24  26
ATOM     26  C   UNL     1       4.236   9.679   1.184  0.00  0.00    +0.102 C 
BRANCH  26  27
ATOM     27  C   UNL     1       5.675  10.053   1.545  0.00  0.00    -0.068 C 
BRANCH  27  35
ATOM     28  C   UNL     1       5.012  12.091   2.671  0.00  0.00    -0.079 C 
ATOM     29  C   UNL     1       5.287  13.593   2.767  0.00  0.00    -0.018 C 
ATOM     30  C   UNL     1       4.920  14.260   1.439  0.00  0.00    +0.003 C 
ATOM     31  C   UNL     1       5.726  13.610   0.311  0.00  0.00    -0.050 C 
ATOM     32  C   UNL     1       5.439  12.107   0.286  0.00  0.00    -0.072 C 
ATOM     33  C   UNL     1       7.219  13.841   0.551  0.00  0.00    +0.009 C 
ATOM     34  C   UNL     1       5.322  14.230  -1.028  0.00  0.00    +0.009 C 
ATOM     35  N   UNL     1       5.836  11.521   1.584  0.00  0.00    +0.380 N 
ATOM     36  H   UNL     1       6.822  11.744   1.762  0.00  0.00    -0.082 HD
ENDBRANCH  27  35
ENDBRANCH  26  27
ENDBRANCH  24  26
ENDBRANCH  23  24
ENDBRANCH  16  23
TORSDOF 6
