REMARK  Name = ZINC27587538
REMARK  9 active torsions:
REMARK  status: ('A' for Active; 'I' for Inactive)
REMARK    1  A    between atoms: C_1  and  C_2
REMARK    2  A    between atoms: C_2  and  C_3
REMARK    3  A    between atoms: C_9  and  C_12
REMARK    4  A    between atoms: C_12  and  C_13
REMARK    5  A    between atoms: N_15  and  C_16
REMARK    6  A    between atoms: C_18  and  C_24
REMARK    7  A    between atoms: C_18  and  C_25
REMARK    8  A    between atoms: C_20  and  C_22
REMARK    9  A    between atoms: C_20  and  C_23
REMARK                            x       y       z     vdW  Elec       q    Type
REMARK                         _______ _______ _______ _____ _____    ______ ____
ROOT
ATOM      1  C   UNL     1      -5.700   2.898  -2.005  0.00  0.00    +0.218 C 
ATOM      2  O   UNL     1      -5.344   1.813  -2.414  0.00  0.00    -0.275 OA
ATOM      3  N   UNL     1      -5.850   3.926  -2.864  0.00  0.00    -0.312 N 
ATOM      4  H   UNL     1      -6.173   4.910  -2.493  0.00  0.00    +0.149 HD
ENDROOT
BRANCH   3   5
ATOM      5  C   UNL     1      -5.584   3.732  -4.295  0.00  0.00    +0.070 C 
ATOM      6  C   UNL     1      -4.096   3.953  -4.564  0.00  0.00    +0.009 C 
ATOM      7  C   UNL     1      -3.793   3.780  -6.051  0.00  0.00    -0.072 C 
ATOM      8  N   UNL     1      -4.694   4.528  -6.902  0.00  0.00    +0.386 N 
ATOM      9  C   UNL     1      -6.106   4.593  -6.592  0.00  0.00    -0.072 C 
ATOM     10  C   UNL     1      -6.381   4.758  -5.099  0.00  0.00    +0.009 C 
ATOM     11  C   UNL     1      -6.846   3.356  -7.115  0.00  0.00    -0.010 C 
ATOM     12  C   UNL     1      -6.703   5.822  -7.313  0.00  0.00    -0.010 C 
ATOM     13  C   UNL     1      -3.805   2.288  -6.406  0.00  0.00    -0.010 C 
ATOM     14  C   UNL     1      -2.357   4.296  -6.296  0.00  0.00    -0.010 C 
ATOM     15  H   UNL     1      -4.381   5.582  -6.930  0.00  0.00    -0.084 HD
ATOM     16  H   UNL     1      -4.667   4.111  -7.920  0.00  0.00    -0.084 HD
ENDBRANCH   3   5
BRANCH   1  17
ATOM     17  C   UNL     1      -5.973   3.097  -0.536  0.00  0.00    +0.134 C 
BRANCH  17  24
ATOM     18  C   UNL     1      -2.143   1.058   1.278  0.00  0.00    -0.047 A 
ATOM     19  C   UNL     1      -2.423  -0.163   1.876  0.00  0.00    +0.007 A 
ATOM     20  C   UNL     1      -3.709  -0.657   1.896  0.00  0.00    +0.047 A 
ATOM     21  C   UNL     1      -4.739   0.071   1.312  0.00  0.00    +0.135 A 
ATOM     22  C   UNL     1      -4.449   1.306   0.708  0.00  0.00    +0.024 A 
ATOM     23  C   UNL     1      -3.142   1.792   0.703  0.00  0.00    +0.015 A 
ATOM     24  C   UNL     1      -5.732   1.804   0.199  0.00  0.00    +0.007 A 
ATOM     25  C   UNL     1      -6.646   0.878   0.520  0.00  0.00    +0.200 A 
ATOM     26  O   UNL     1      -6.063  -0.141   1.175  0.00  0.00    -0.463 OA
BRANCH  18  28
ATOM     27  C   UNL     1      -0.013   1.086   0.008  0.00  0.00    +0.009 C 
ATOM     28  C   UNL     1      -0.729   1.579   1.267  0.00  0.00    +0.032 C 
ENDBRANCH  18  28
ENDBRANCH  17  24
ENDBRANCH   1  17
TORSDOF 4
