REMARK  Name = ZINC59279837
REMARK  13 active torsions:
REMARK  status: ('A' for Active; 'I' for Inactive)
REMARK    1  A    between atoms: C_1  and  C_2
REMARK    2  A    between atoms: C_2  and  C_32
REMARK    3  A    between atoms: C_4  and  N_10
REMARK    4  A    between atoms: C_6  and  C_8
REMARK    5  A    between atoms: C_6  and  C_9
REMARK    6  A    between atoms: N_10  and  C_11
REMARK    7  A    between atoms: C_11  and  C_12
REMARK    8  A    between atoms: C_15  and  O_18
REMARK    9  A    between atoms: O_18  and  C_19
REMARK   10  A    between atoms: N_22  and  C_23
REMARK   11  A    between atoms: C_23  and  C_24
REMARK   12  A    between atoms: C_29  and  O_30
REMARK   13  A    between atoms: O_30  and  C_31
REMARK                            x       y       z     vdW  Elec       q    Type
REMARK                         _______ _______ _______ _____ _____    ______ ____
ROOT
ATOM      1  N   UNL     1       2.617  -0.819  -2.625  0.00  0.00    -0.278 N 
ATOM      2  C   UNL     1       2.540  -2.136  -2.899  0.00  0.00    +0.303 C 
ATOM      3  O   UNL     1       3.056  -2.579  -3.908  0.00  0.00    -0.253 OA
ATOM      4  N   UNL     1       1.892  -2.964  -2.056  0.00  0.00    -0.295 N 
ATOM      5  H   UNL     1       1.418  -2.602  -1.290  0.00  0.00    +0.151 HD
ENDROOT
BRANCH   1   9
ATOM      6  C   UNL     1      -0.009   1.525   0.022  0.00  0.00    -0.010 C 
ATOM      7  C   UNL     1       0.013  -0.007   0.013  0.00  0.00    -0.072 C 
ATOM      8  C   UNL     1       0.580  -0.507  -1.312  0.00  0.00    +0.009 C 
ATOM      9  C   UNL     1       2.094  -0.302  -1.354  0.00  0.00    +0.075 C 
ATOM     10  C   UNL     1       2.714  -1.087  -0.198  0.00  0.00    +0.009 C 
ATOM     11  C   UNL     1       2.163  -0.592   1.136  0.00  0.00    -0.072 C 
ATOM     12  N   UNL     1       0.713  -0.532   1.173  0.00  0.00    +0.386 N 
ATOM     13  C   UNL     1       2.785   0.765   1.482  0.00  0.00    -0.010 C 
ATOM     14  C   UNL     1       2.621  -1.591   2.223  0.00  0.00    -0.010 C 
ATOM     15  C   UNL     1      -1.456  -0.482   0.096  0.00  0.00    -0.010 C 
ATOM     16  H   UNL     1       0.435   0.018   1.991  0.00  0.00    -0.084 HD
ATOM     17  H   UNL     1       0.358  -1.476   1.360  0.00  0.00    -0.084 HD
ENDBRANCH   1   9
BRANCH   1  18
ATOM     18  C   UNL     1       3.222   0.097  -3.595  0.00  0.00    +0.144 C 
BRANCH  18  19
ATOM     19  C   UNL     1       4.700   0.212  -3.324  0.00  0.00    -0.030 A 
ATOM     20  C   UNL     1       5.169   1.180  -2.456  0.00  0.00    +0.009 A 
ATOM     21  C   UNL     1       6.523   1.288  -2.206  0.00  0.00    +0.046 A 
ATOM     22  C   UNL     1       7.413   0.423  -2.826  0.00  0.00    +0.120 A 
ATOM     23  C   UNL     1       6.939  -0.549  -3.697  0.00  0.00    +0.046 A 
ATOM     24  C   UNL     1       5.583  -0.655  -3.939  0.00  0.00    +0.009 A 
BRANCH  22  25
ATOM     25  O   UNL     1       8.746   0.527  -2.583  0.00  0.00    -0.495 OA
ATOM     26  C   UNL     1       9.602  -0.398  -3.256  0.00  0.00    +0.277 C 
ENDBRANCH  22  25
ENDBRANCH  18  19
ENDBRANCH   1  18
BRANCH   4  27
ATOM     27  C   UNL     1       1.903  -4.409  -2.294  0.00  0.00    +0.144 C 
BRANCH  27  28
ATOM     28  C   UNL     1       1.112  -5.103  -1.215  0.00  0.00    +0.011 A 
ATOM     29  C   UNL     1       1.765  -5.699  -0.154  0.00  0.00    +0.009 A 
ATOM     30  C   UNL     1       1.040  -6.336   0.836  0.00  0.00    +0.001 A 
ATOM     31  C   UNL     1      -0.341  -6.377   0.766  0.00  0.00    +0.004 A 
ATOM     32  C   UNL     1      -0.999  -5.782  -0.292  0.00  0.00    +0.046 A 
ATOM     33  C   UNL     1      -0.273  -5.137  -1.284  0.00  0.00    +0.125 A 
BRANCH  33  34
ATOM     34  O   UNL     1      -0.918  -4.546  -2.324  0.00  0.00    -0.495 OA
ATOM     35  C   UNL     1      -2.345  -4.621  -2.329  0.00  0.00    +0.277 C 
ENDBRANCH  33  34
ENDBRANCH  27  28
ENDBRANCH   4  27
TORSDOF 7
