REMARK  Name = ZINC67186456
REMARK  14 active torsions:
REMARK  status: ('A' for Active; 'I' for Inactive)
REMARK    1  A    between atoms: C_1  and  C_2
REMARK    2  A    between atoms: C_2  and  C_3
REMARK    3  A    between atoms: C_2  and  C_4
REMARK    4  A    between atoms: C_2  and  C_5
REMARK    5  A    between atoms: C_11  and  N_13
REMARK    6  A    between atoms: N_13  and  C_14
REMARK    7  A    between atoms: C_14  and  C_15
REMARK    8  A    between atoms: C_17  and  O_28
REMARK    9  A    between atoms: C_18  and  O_23
REMARK   10  A    between atoms: C_19  and  O_21
REMARK   11  A    between atoms: O_21  and  C_22
REMARK   12  A    between atoms: O_23  and  C_24
REMARK   13  A    between atoms: C_24  and  C_25
REMARK   14  A    between atoms: O_28  and  C_29
REMARK                            x       y       z     vdW  Elec       q    Type
REMARK                         _______ _______ _______ _____ _____    ______ ____
ROOT
ATOM      1  C   UNL     1       4.900  -0.812   0.980  0.00  0.00    -0.057 A 
ATOM      2  C   UNL     1       4.955  -0.136   2.184  0.00  0.00    +0.051 A 
ATOM      3  C   UNL     1       5.625  -0.692   3.264  0.00  0.00    +0.165 A 
ATOM      4  C   UNL     1       6.240  -1.931   3.134  0.00  0.00    +0.204 A 
ATOM      5  C   UNL     1       6.181  -2.608   1.922  0.00  0.00    +0.165 A 
ATOM      6  C   UNL     1       5.505  -2.048   0.849  0.00  0.00    +0.051 A 
ENDROOT
BRANCH   5   7
ATOM      7  O   UNL     1       6.782  -3.822   1.790  0.00  0.00    -0.491 OA
ATOM      8  C   UNL     1       6.681  -4.460   0.516  0.00  0.00    +0.277 C 
ENDBRANCH   5   7
BRANCH   3   9
ATOM      9  O   UNL     1       5.680  -0.025   4.448  0.00  0.00    -0.491 OA
ATOM     10  C   UNL     1       5.025   1.244   4.508  0.00  0.00    +0.277 C 
ENDBRANCH   3   9
BRANCH   1  11
ATOM     11  C   UNL     1       4.171  -0.204  -0.191  0.00  0.00    -0.046 C 
BRANCH  11  12
ATOM     12  N   UNL     1       2.764  -0.624  -0.164  0.00  0.00    +0.384 N 
ATOM     13  H   UNL     1       2.337  -0.313   0.696  0.00  0.00    -0.085 HD
ATOM     14  H   UNL     1       2.712  -1.630  -0.221  0.00  0.00    -0.085 HD
BRANCH  12  20
ATOM     15  C   UNL     1       0.590  -0.475  -1.282  0.00  0.00    -0.020 C 
ATOM     16  C   UNL     1      -0.149   0.142  -2.470  0.00  0.00    +0.002 C 
ATOM     17  C   UNL     1       0.504  -0.322  -3.774  0.00  0.00    +0.000 C 
ATOM     18  C   UNL     1       1.968   0.122  -3.797  0.00  0.00    -0.002 C 
ATOM     19  C   UNL     1       2.707  -0.495  -2.608  0.00  0.00    -0.015 C 
ATOM     20  C   UNL     1       2.054  -0.031  -1.305  0.00  0.00    -0.068 C 
BRANCH  15  22
ATOM     21  C   UNL     1       0.526   1.339   0.435  0.00  0.00    +0.011 C 
ATOM     22  C   UNL     1      -0.063  -0.011   0.022  0.00  0.00    -0.036 C 
ATOM     23  C   UNL     1       0.203  -1.042   1.121  0.00  0.00    +0.011 C 
ATOM     24  C   UNL     1      -1.572   0.133  -0.187  0.00  0.00    +0.011 C 
ENDBRANCH  15  22
ENDBRANCH  12  20
ENDBRANCH  11  12
ENDBRANCH   1  11
BRANCH   4  25
ATOM     25  O   UNL     1       6.898  -2.480   4.191  0.00  0.00    -0.476 OA
BRANCH  25  26
ATOM     26  C   UNL     1       6.137  -3.314   5.067  0.00  0.00    +0.324 C 
BRANCH  26  27
ATOM     27  C   UNL     1       7.027  -3.827   6.170  0.00  0.00    +0.248 C 
ATOM     28  O   UNL     1       8.197  -3.511   6.203  0.00  0.00    -0.272 OA
ATOM     29  N   UNL     1       6.522  -4.639   7.120  0.00  0.00    -0.327 N 
ATOM     30  H   UNL     1       5.586  -4.892   7.095  0.00  0.00    +0.145 HD
ATOM     31  H   UNL     1       7.094  -4.970   7.830  0.00  0.00    +0.145 HD
ENDBRANCH  26  27
ENDBRANCH  25  26
ENDBRANCH   4  25
TORSDOF 9
