REMARK  Name = ZINC50270626
REMARK  7 active torsions:
REMARK  status: ('A' for Active; 'I' for Inactive)
REMARK    1  A    between atoms: C_1  and  C_2
REMARK    2  A    between atoms: C_2  and  C_3
REMARK    3  A    between atoms: C_3  and  N_4
REMARK    4  A    between atoms: N_4  and  C_5
REMARK    5  A    between atoms: C_5  and  C_7
REMARK    6  A    between atoms: C_5  and  C_9
REMARK    7  A    between atoms: C_7  and  N_8
REMARK                            x       y       z     vdW  Elec       q    Type
REMARK                         _______ _______ _______ _____ _____    ______ ____
ROOT
ATOM      1  C   UNL     1       1.454  -2.355   2.502  0.00  0.00    -0.059 C 
ENDROOT
BRANCH   1   2
ATOM      2  C   UNL     1       1.483  -3.862   2.537  0.00  0.00    -0.058 A 
ATOM      3  C   UNL     1       1.320  -4.527   3.739  0.00  0.00    +0.051 A 
ATOM      4  C   UNL     1       1.347  -5.911   3.768  0.00  0.00    +0.163 A 
ATOM      5  C   UNL     1       1.536  -6.627   2.594  0.00  0.00    +0.176 A 
ATOM      6  C   UNL     1       1.698  -5.958   1.392  0.00  0.00    +0.063 A 
ATOM      7  C   UNL     1       1.666  -4.574   1.367  0.00  0.00    +0.021 A 
ATOM      8 BR   UNL     1       1.957  -6.932  -0.208  0.00  0.00    -0.046 Br
ATOM      9  O   UNL     1       1.559  -7.991   2.633  0.00  0.00    -0.487 OA
ATOM     10  C   UNL     1       2.682  -8.577   3.296  0.00  0.00    +0.232 C 
ATOM     11  C   UNL     1       2.445  -8.650   4.796  0.00  0.00    +0.082 C 
ATOM     12  C   UNL     1       2.337  -7.273   5.432  0.00  0.00    +0.232 C 
ATOM     13  O   UNL     1       1.187  -6.579   4.947  0.00  0.00    -0.488 OA
ENDBRANCH   1   2
BRANCH   1  14
ATOM     14  N   UNL     1       0.714  -1.907   1.314  0.00  0.00    +0.382 N 
ATOM     15  H   UNL     1       1.117  -2.325   0.489  0.00  0.00    -0.085 HD
ATOM     16  H   UNL     1       0.768  -0.902   1.244  0.00  0.00    -0.085 HD
BRANCH  14  17
ATOM     17  C   UNL     1      -0.693  -2.315   1.431  0.00  0.00    -0.082 C 
BRANCH  17  19
ATOM     18  C   UNL     1      -2.955  -2.164   0.381  0.00  0.00    +0.002 C 
ATOM     19  C   UNL     1      -1.490  -1.739   0.259  0.00  0.00    -0.022 C 
ENDBRANCH  17  19
ENDBRANCH  14  17
ENDBRANCH   1  14
BRANCH   1  20
ATOM     20  C   UNL     1       2.886  -1.819   2.443  0.00  0.00    -0.098 C 
BRANCH  20  21
ATOM     21  N   UNL     1       2.856  -0.355   2.325  0.00  0.00    +0.377 N 
ATOM     22  H   UNL     1       2.296   0.031   3.071  0.00  0.00    -0.090 HD
ATOM     23  H   UNL     1       3.796   0.007   2.388  0.00  0.00    -0.090 HD
ATOM     24  H   UNL     1       2.454  -0.097   1.436  0.00  0.00    -0.090 HD
ENDBRANCH  20  21
ENDBRANCH   1  20
TORSDOF 6
