REMARK  Name = ZINC29112890
REMARK  8 active torsions:
REMARK  status: ('A' for Active; 'I' for Inactive)
REMARK    1  A    between atoms: C_1  and  C_2
REMARK    2  A    between atoms: C_2  and  C_3
REMARK    3  A    between atoms: C_2  and  C_4
REMARK    4  A    between atoms: C_4  and  C_6
REMARK    5  A    between atoms: C_4  and  N_11
REMARK    6  A    between atoms: N_11  and  C_12
REMARK    7  A    between atoms: C_12  and  C_13
REMARK    8  A    between atoms: C_17  and  C_26
REMARK                            x       y       z     vdW  Elec       q    Type
REMARK                         _______ _______ _______ _____ _____    ______ ____
ROOT
ATOM      1  C   UNL     1      -0.200   1.847  -2.318  0.00  0.00    +0.203 C 
ATOM      2  O   UNL     1       1.011   1.890  -2.274  0.00  0.00    -0.277 OA
ATOM      3  N   UNL     1      -0.895   1.344  -1.279  0.00  0.00    -0.266 N 
ATOM      4  C   UNL     1      -2.368   1.360  -1.268  0.00  0.00    +0.168 C 
ATOM      5  C   UNL     1      -2.843   0.005  -0.723  0.00  0.00    +0.276 C 
ATOM      6  O   UNL     1      -2.294  -0.183   0.584  0.00  0.00    -0.476 OA
ATOM      7  C   UNL     1      -0.960   0.023   0.748  0.00  0.00    +0.143 A 
ATOM      8  C   UNL     1      -0.240   0.785  -0.168  0.00  0.00    +0.078 A 
ATOM      9  C   UNL     1       1.118   0.992   0.013  0.00  0.00    +0.027 A 
ATOM     10  C   UNL     1       1.759   0.437   1.106  0.00  0.00    +0.002 A 
ATOM     11  C   UNL     1       1.046  -0.322   2.016  0.00  0.00    +0.004 A 
ATOM     12  C   UNL     1      -0.309  -0.530   1.840  0.00  0.00    +0.047 A 
ENDROOT
BRANCH   5  13
ATOM     13  C   UNL     1      -4.348  -0.009  -0.648  0.00  0.00    +0.253 C 
ATOM     14  O   UNL     1      -4.901  -0.087   0.429  0.00  0.00    -0.272 OA
ATOM     15  N   UNL     1      -5.080   0.065  -1.777  0.00  0.00    -0.326 N 
ATOM     16  H   UNL     1      -6.179   0.054  -1.722  0.00  0.00    +0.145 HD
ATOM     17  H   UNL     1      -4.579   0.135  -2.754  0.00  0.00    +0.145 HD
ENDBRANCH   5  13
BRANCH   1  18
ATOM     18  C   UNL     1      -0.928   2.358  -3.535  0.00  0.00    +0.016 C 
BRANCH  18  19
ATOM     19  N   UNL     1       0.047   2.742  -4.564  0.00  0.00    +0.390 N 
ATOM     20  H   UNL     1       0.592   1.843  -4.886  0.00  0.00    -0.084 HD
ATOM     21  H   UNL     1       0.755   3.463  -4.128  0.00  0.00    -0.084 HD
BRANCH  19  22
ATOM     22  C   UNL     1      -0.621   3.351  -5.722  0.00  0.00    -0.031 C 
BRANCH  22  23
ATOM     23  C   UNL     1      -0.927   4.796  -5.422  0.00  0.00    -0.024 A 
ATOM     24  C   UNL     1      -2.031   5.517  -5.735  0.00  0.00    +0.009 A 
ATOM     25  C   UNL     1      -2.097   6.843  -5.351  0.00  0.00    +0.008 A 
ATOM     26  C   UNL     1      -1.051   7.386  -4.682  0.00  0.00    +0.045 A 
ATOM     27  S   UNL     1       0.073   6.004  -4.569  0.00  0.00    -0.103 S 
ENDBRANCH  22  23
BRANCH  22  29
ATOM     28  C   UNL     1       1.649   3.900  -6.609  0.00  0.00    +0.006 C 
ATOM     29  C   UNL     1       0.296   3.267  -6.943  0.00  0.00    -0.027 C 
ATOM     30  C   UNL     1       0.501   1.800  -7.327  0.00  0.00    +0.006 C 
ENDBRANCH  22  29
ENDBRANCH  19  22
ENDBRANCH  18  19
ENDBRANCH   1  18
TORSDOF 6
