REMARK  Name = ZINC44164673
REMARK  9 active torsions:
REMARK  status: ('A' for Active; 'I' for Inactive)
REMARK    1  A    between atoms: C_1  and  C_2
REMARK    2  A    between atoms: C_2  and  C_34
REMARK    3  A    between atoms: C_5  and  C_32
REMARK    4  A    between atoms: C_5  and  C_33
REMARK    5  A    between atoms: C_10  and  C_12
REMARK    6  A    between atoms: C_17  and  C_20
REMARK    7  A    between atoms: N_22  and  C_23
REMARK    8  A    between atoms: C_23  and  C_24
REMARK    9  A    between atoms: C_24  and  C_25
REMARK                            x       y       z     vdW  Elec       q    Type
REMARK                         _______ _______ _______ _____ _____    ______ ____
ROOT
ATOM      1  C   UNL     1       2.965  -1.861   4.581  0.00  0.00    -0.030 C 
ATOM      2  C   UNL     1       3.364  -0.638   5.415  0.00  0.00    +0.058 C 
ATOM      3  S   UNL     1       4.243  -1.222   6.899  0.00  0.00    -0.163 S 
ATOM      4  C   UNL     1       5.480  -2.362   6.206  0.00  0.00    +0.062 C 
ATOM      5  C   UNL     1       4.764  -3.328   5.254  0.00  0.00    +0.027 C 
ATOM      6  N   UNL     1       4.165  -2.579   4.147  0.00  0.00    +0.392 N 
ATOM      7  H   UNL     1       3.917  -3.222   3.409  0.00  0.00    -0.084 HD
ATOM      8  H   UNL     1       4.837  -1.915   3.793  0.00  0.00    -0.084 HD
ENDROOT
BRANCH   1  18
ATOM      9  C   UNL     1      -0.015   1.420  -0.088  0.00  0.00    +0.016 C 
ATOM     10  C   UNL     1       0.018  -0.109  -0.078  0.00  0.00    -0.010 C 
ATOM     11  C   UNL     1      -1.412  -0.645  -0.100  0.00  0.00    +0.012 C 
ATOM     12  C   UNL     1      -2.070  -0.323   1.247  0.00  0.00    +0.012 C 
ATOM     13  C   UNL     1      -1.419  -1.192   2.321  0.00  0.00    -0.010 C 
ATOM     14  C   UNL     1       0.081  -1.075   2.259  0.00  0.00    -0.038 A 
ATOM     15  C   UNL     1       0.742  -0.582   1.156  0.00  0.00    -0.038 A 
ATOM     16  C   UNL     1       2.128  -0.506   1.162  0.00  0.00    +0.004 A 
ATOM     17  C   UNL     1       2.849  -0.919   2.264  0.00  0.00    +0.002 A 
ATOM     18  C   UNL     1       2.186  -1.411   3.372  0.00  0.00    -0.060 A 
ATOM     19  C   UNL     1       0.808  -1.488   3.368  0.00  0.00    +0.006 A 
ATOM     20  C   UNL     1      -1.905  -0.740   3.699  0.00  0.00    +0.016 C 
ATOM     21  C   UNL     1      -1.821  -2.652   2.100  0.00  0.00    +0.016 C 
ATOM     22  C   UNL     1       0.762  -0.606  -1.319  0.00  0.00    +0.016 C 
ENDBRANCH   1  18
BRANCH   5  23
ATOM     23  C   UNL     1       3.683  -4.062   6.005  0.00  0.00    +0.200 C 
ATOM     24  O   UNL     1       2.639  -4.335   5.451  0.00  0.00    -0.278 OA
ATOM     25  N   UNL     1       3.877  -4.415   7.291  0.00  0.00    -0.316 N 
ATOM     26  H   UNL     1       4.712  -4.196   7.733  0.00  0.00    +0.149 HD
BRANCH  25  27
ATOM     27  C   UNL     1       2.826  -5.128   8.021  0.00  0.00    +0.109 C 
BRANCH  27  28
ATOM     28  C   UNL     1       3.297  -5.407   9.449  0.00  0.00    +0.054 C 
BRANCH  28  29
ATOM     29  C   UNL     1       2.216  -6.142  10.200  0.00  0.00    -0.045 A 
ATOM     30  C   UNL     1       1.254  -5.433  10.896  0.00  0.00    +0.004 A 
ATOM     31  C   UNL     1       0.263  -6.106  11.585  0.00  0.00    +0.002 A 
ATOM     32  C   UNL     1       0.232  -7.488  11.579  0.00  0.00    +0.020 A 
ATOM     33  C   UNL     1       1.194  -8.197  10.882  0.00  0.00    +0.041 A 
ATOM     34  C   UNL     1       2.183  -7.523  10.188  0.00  0.00    +0.023 A 
ATOM     35 CL   UNL     1       1.156  -9.933  10.874  0.00  0.00    -0.084 Cl
ENDBRANCH  28  29
ENDBRANCH  27  28
ENDBRANCH  25  27
ENDBRANCH   5  23
TORSDOF 5
