REMARK  Name = ZINC63502492
REMARK  15 active torsions:
REMARK  status: ('A' for Active; 'I' for Inactive)
REMARK    1  A    between atoms: C_1  and  C_2
REMARK    2  A    between atoms: C_2  and  C_3
REMARK    3  A    between atoms: C_2  and  C_4
REMARK    4  A    between atoms: C_4  and  N_5
REMARK    5  A    between atoms: N_5  and  C_6
REMARK    6  A    between atoms: N_5  and  C_33
REMARK    7  A    between atoms: C_6  and  C_7
REMARK    8  A    between atoms: C_7  and  N_8
REMARK    9  A    between atoms: C_9  and  C_11
REMARK   10  A    between atoms: C_16  and  C_23
REMARK   11  A    between atoms: C_28  and  N_29
REMARK   12  A    between atoms: C_30  and  C_32
REMARK   13  A    between atoms: C_33  and  C_34
REMARK   14  A    between atoms: C_34  and  C_35
REMARK   15  A    between atoms: C_34  and  C_36
REMARK                            x       y       z     vdW  Elec       q    Type
REMARK                         _______ _______ _______ _____ _____    ______ ____
ROOT
ATOM      1  C   UNL     1      -4.021  -5.374  -1.913  0.00  0.00    +0.039 A 
ATOM      2  C   UNL     1      -5.086  -4.380  -1.965  0.00  0.00    +0.015 A 
ATOM      3  C   UNL     1      -6.330  -4.713  -2.366  0.00  0.00    +0.028 A 
ATOM      4  C   UNL     1      -6.615  -6.102  -2.759  0.00  0.00    +0.058 A 
ATOM      5  N   UNL     1      -7.813  -6.437  -3.150  0.00  0.00    -0.369 N 
ATOM      6  C   UNL     1      -8.062  -7.835  -3.534  0.00  0.00    +0.198 C 
ATOM      7  C   UNL     1      -6.907  -8.806  -3.454  0.00  0.00    +0.244 C 
ATOM      8  O   UNL     1      -7.059  -9.972  -3.760  0.00  0.00    -0.273 OA
ATOM      9  N   UNL     1      -5.715  -8.364  -3.040  0.00  0.00    -0.282 N 
ATOM     10  C   UNL     1      -5.521  -7.102  -2.701  0.00  0.00    +0.057 A 
ATOM     11  C   UNL     1      -4.238  -6.681  -2.275  0.00  0.00    +0.038 A 
ATOM     12  H   UNL     1      -8.525  -5.779  -3.185  0.00  0.00    +0.161 HD
ATOM     13  H   UNL     1      -4.973  -8.987  -2.988  0.00  0.00    +0.155 HD
ENDROOT
BRANCH   6  14
ATOM     14  C   UNL     1      -9.168  -8.363  -2.658  0.00  0.00    +0.005 A 
ATOM     15  C   UNL     1      -9.467  -7.732  -1.466  0.00  0.00    +0.008 A 
ATOM     16  C   UNL     1     -10.482  -8.216  -0.661  0.00  0.00    +0.000 A 
ATOM     17  C   UNL     1     -11.201  -9.332  -1.046  0.00  0.00    +0.002 A 
ATOM     18  C   UNL     1     -10.908  -9.968  -2.236  0.00  0.00    +0.023 A 
ATOM     19  C   UNL     1      -9.892  -9.481  -3.049  0.00  0.00    +0.039 A 
BRANCH  19  20
ATOM     20  N   UNL     1      -9.596 -10.120  -4.259  0.00  0.00    -0.285 N 
ATOM     21  C   UNL     1      -9.836 -11.438  -4.401  0.00  0.00    +0.214 C 
ATOM     22  O   UNL     1     -10.399 -12.051  -3.519  0.00  0.00    -0.276 OA
ATOM     23  C   UNL     1      -9.406 -12.151  -5.658  0.00  0.00    +0.109 C 
ATOM     24  H   UNL     1      -9.217  -9.613  -4.994  0.00  0.00    +0.155 HD
ENDBRANCH  19  20
ENDBRANCH   6  14
BRANCH   1  26
ATOM     25  N   UNL     1      -2.438  -3.685  -1.106  0.00  0.00    -0.313 N 
ATOM     26  C   UNL     1      -2.669  -4.963  -1.465  0.00  0.00    +0.244 C 
ATOM     27  O   UNL     1      -1.770  -5.779  -1.421  0.00  0.00    -0.270 OA
ATOM     28  H   UNL     1      -3.156  -3.034  -1.141  0.00  0.00    +0.149 HD
BRANCH  25  29
ATOM     29  C   UNL     1      -1.102  -3.278  -0.663  0.00  0.00    +0.086 C 
BRANCH  29  30
ATOM     30  C   UNL     1      -1.111  -1.788  -0.318  0.00  0.00    -0.060 C 
BRANCH  30  31
ATOM     31  N   UNL     1       0.190  -1.410   0.252  0.00  0.00    +0.381 N 
ATOM     32  H   UNL     1       0.641  -2.228   0.633  0.00  0.00    -0.082 HD
BRANCH  31  33
ATOM     33  C   UNL     1      -0.012  -0.420   1.318  0.00  0.00    -0.076 C 
BRANCH  33  35
ATOM     34  C   UNL     1       1.117   0.912   3.106  0.00  0.00    +0.005 C 
ATOM     35  C   UNL     1       1.321  -0.141   2.014  0.00  0.00    -0.034 C 
ATOM     36  C   UNL     1       1.848  -1.433   2.644  0.00  0.00    +0.005 C 
ENDBRANCH  33  35
ENDBRANCH  31  33
BRANCH  31  37
ATOM     37  C   UNL     1       1.035  -0.830  -0.801  0.00  0.00    -0.076 C 
BRANCH  37  38
ATOM     38  C   UNL     1       1.379  -1.909  -1.830  0.00  0.00    -0.034 C 
ATOM     39  C   UNL     1       2.260  -1.305  -2.925  0.00  0.00    +0.005 C 
ATOM     40  C   UNL     1       2.131  -3.049  -1.141  0.00  0.00    +0.005 C 
ENDBRANCH  37  38
ENDBRANCH  31  37
ENDBRANCH  30  31
ENDBRANCH  29  30
ENDBRANCH  25  29
ENDBRANCH   1  26
TORSDOF 10
