REMARK  Name = ZINC54267157
REMARK  6 active torsions:
REMARK  status: ('A' for Active; 'I' for Inactive)
REMARK    1  A    between atoms: C_5  and  S_6
REMARK    2  A    between atoms: S_6  and  N_9
REMARK    3  A    between atoms: N_9  and  C_10
REMARK    4  A    between atoms: C_10  and  C_11
REMARK    5  A    between atoms: C_11  and  N_12
REMARK    6  A    between atoms: N_12  and  C_13
REMARK                            x       y       z     vdW  Elec       q    Type
REMARK                         _______ _______ _______ _____ _____    ______ ____
ROOT
ATOM      1  N   UNL     1      -1.744  -1.437  -1.570  0.00  0.00    -0.191 NA
ATOM      2  H   UNL     1      -2.606  -1.159  -1.918  0.00  0.00    +0.148 HD
ENDROOT
BRANCH   1   3
ATOM      3  S   UNL     1      -1.352  -1.132   0.010  0.00  0.00    +0.065 S 
ATOM      4  O   UNL     1      -0.861  -2.352   0.549  0.00  0.00    -0.153 OA
ATOM      5  O   UNL     1      -2.455  -0.438   0.576  0.00  0.00    -0.153 OA
BRANCH   3  10
ATOM      6  C   UNL     1      -0.016   1.351   0.009  0.00  0.00    +0.037 A 
ATOM      7  C   UNL     1       1.183   2.038   0.002  0.00  0.00    +0.025 A 
ATOM      8  C   UNL     1       2.343   1.335  -0.013  0.00  0.00    +0.057 A 
ATOM      9  S   UNL     1       1.753  -0.350  -0.017  0.00  0.00    -0.062 S 
ATOM     10  C   UNL     1       0.002  -0.004   0.002  0.00  0.00    +0.143 A 
ATOM     11 BR   UNL     1       4.123   1.974  -0.027  0.00  0.00    -0.043 Br
ENDBRANCH   3  10
ENDBRANCH   1   3
BRANCH   1  12
ATOM     12  C   UNL     1      -0.789  -2.127  -2.442  0.00  0.00    +0.087 C 
BRANCH  12  13
ATOM     13  C   UNL     1      -1.509  -2.613  -3.701  0.00  0.00    -0.065 C 
BRANCH  13  14
ATOM     14  N   UNL     1      -0.552  -3.304  -4.576  0.00  0.00    +0.382 N 
ATOM     15  H   UNL     1       0.188  -2.668  -4.835  0.00  0.00    -0.085 HD
ATOM     16  H   UNL     1      -0.159  -4.094  -4.086  0.00  0.00    -0.085 HD
BRANCH  14  17
ATOM     17  C   UNL     1      -1.242  -3.771  -5.785  0.00  0.00    -0.072 C 
ATOM     18  C   UNL     1      -1.313  -5.281  -6.019  0.00  0.00    -0.017 C 
ATOM     19  C   UNL     1      -0.391  -4.416  -6.880  0.00  0.00    -0.017 C 
ENDBRANCH  14  17
ENDBRANCH  13  14
ENDBRANCH  12  13
ENDBRANCH   1  12
TORSDOF 6
