REMARK  Name = ZINC36897170
REMARK  5 active torsions:
REMARK  status: ('A' for Active; 'I' for Inactive)
REMARK    1  A    between atoms: C_1  and  C_2
REMARK    2  A    between atoms: C_2  and  C_4
REMARK    3  A    between atoms: C_2  and  N_18
REMARK    4  A    between atoms: C_4  and  C_6
REMARK    5  A    between atoms: C_4  and  O_17
REMARK                            x       y       z     vdW  Elec       q    Type
REMARK                         _______ _______ _______ _____ _____    ______ ____
ROOT
ATOM      1  C   UNL     1       0.870  -2.011   1.172  0.00  0.00    -0.016 A 
ATOM      2  C   UNL     1      -0.064  -2.813   1.800  0.00  0.00    +0.055 A 
ATOM      3  C   UNL     1       0.050  -4.194   1.738  0.00  0.00    +0.164 A 
ATOM      4  C   UNL     1       1.105  -4.769   1.040  0.00  0.00    +0.180 A 
ATOM      5  C   UNL     1       2.041  -3.959   0.413  0.00  0.00    +0.087 A 
ATOM      6  C   UNL     1       1.918  -2.582   0.475  0.00  0.00    +0.030 A 
ATOM      7 CL   UNL     1       3.363  -4.673  -0.457  0.00  0.00    -0.080 Cl
ATOM      8  O   UNL     1       1.232  -6.122   0.959  0.00  0.00    -0.483 OA
ATOM      9  C   UNL     1       0.490  -6.895   1.909  0.00  0.00    +0.270 C 
ATOM     10  C   UNL     1      -0.941  -6.343   1.965  0.00  0.00    +0.270 C 
ATOM     11  O   UNL     1      -0.876  -4.970   2.365  0.00  0.00    -0.485 OA
ENDROOT
BRANCH   1  12
ATOM     12  C   UNL     1       0.742  -0.511   1.242  0.00  0.00    +0.130 C 
BRANCH  12  14
ATOM     13  C   UNL     1      -0.019   1.526   0.010  0.00  0.00    -0.011 C 
ATOM     14  C   UNL     1       0.002  -0.004   0.002  0.00  0.00    -0.045 C 
BRANCH  14  15
ATOM     15  N   UNL     1       0.690  -0.478  -1.207  0.00  0.00    +0.382 N 
ATOM     16  H   UNL     1       1.636  -0.129  -1.214  0.00  0.00    -0.090 HD
ATOM     17  H   UNL     1       0.703  -1.487  -1.212  0.00  0.00    -0.090 HD
ATOM     18  H   UNL     1       0.202  -0.144  -2.024  0.00  0.00    -0.090 HD
ENDBRANCH  14  15
ENDBRANCH  12  14
BRANCH  12  19
ATOM     19  O   UNL     1       2.044   0.076   1.292  0.00  0.00    -0.389 OA
ATOM     20  H   UNL     1       2.598  -0.128   0.526  0.00  0.00    +0.210 HD
ENDBRANCH  12  19
ENDBRANCH   1  12
TORSDOF 4
