REMARK  Name = ZINC08324425
REMARK  6 active torsions:
REMARK  status: ('A' for Active; 'I' for Inactive)
REMARK    1  A    between atoms: C_1  and  C_2
REMARK    2  A    between atoms: C_2  and  O_3
REMARK    3  A    between atoms: O_3  and  C_4
REMARK    4  A    between atoms: C_7  and  C_10
REMARK    5  A    between atoms: C_25  and  C_27
REMARK    6  A    between atoms: C_25  and  C_28
REMARK                            x       y       z     vdW  Elec       q    Type
REMARK                         _______ _______ _______ _____ _____    ______ ____
ROOT
ATOM      1  C   UNL     1       1.144  -6.059   1.764  0.00  0.00    +0.090 C 
ATOM      2  C   UNL     1       2.596  -6.436   1.785  0.00  0.00    +0.042 A 
ATOM      3  C   UNL     1       3.331  -6.485   0.591  0.00  0.00    +0.126 A 
ATOM      4  N   UNL     1       4.618  -6.817   0.624  0.00  0.00    -0.208 NA
ATOM      5  C   UNL     1       5.222  -7.104   1.773  0.00  0.00    +0.180 A 
ATOM      6  S   UNL     1       6.882  -7.524   1.768  0.00  0.00    -0.011 S 
ATOM      7  N   UNL     1       4.553  -7.068   2.940  0.00  0.00    -0.322 N 
ATOM      8  C   UNL     1       3.226  -6.734   2.958  0.00  0.00    +0.110 A 
ATOM      9  N   UNL     1       2.530  -6.704   4.142  0.00  0.00    -0.304 N 
ATOM     10  C   UNL     1       1.163  -6.766   4.150  0.00  0.00    +0.017 C 
ATOM     11  C   UNL     1       0.455  -6.475   3.039  0.00  0.00    +0.024 C 
ATOM     12  C   UNL     1      -0.949  -6.553   3.036  0.00  0.00    +0.162 C 
ATOM     13  O   UNL     1      -1.558  -6.279   2.021  0.00  0.00    -0.292 OA
ATOM     14  C   UNL     1      -1.710  -6.968   4.264  0.00  0.00    +0.086 C 
ATOM     15  C   UNL     1      -0.829  -7.895   5.108  0.00  0.00    -0.023 C 
ATOM     16  C   UNL     1       0.471  -7.161   5.431  0.00  0.00    +0.058 C 
ATOM     17  C   UNL     1      -1.554  -8.252   6.407  0.00  0.00    +0.011 C 
ATOM     18  C   UNL     1      -0.520  -9.169   4.320  0.00  0.00    +0.011 C 
ATOM     19  N   UNL     1       2.722  -6.191  -0.610  0.00  0.00    -0.343 N 
ATOM     20  H   UNL     1       3.013  -6.638   4.981  0.00  0.00    +0.153 HD
ATOM     21  H   UNL     1       3.232  -6.226  -1.434  0.00  0.00    +0.144 HD
ATOM     22  H   UNL     1       1.783  -5.949  -0.631  0.00  0.00    +0.144 HD
ATOM     23  H   UNL     1       5.011  -7.279   3.769  0.00  0.00    +0.169 HD
ENDROOT
BRANCH   1  27
ATOM     24  C   UNL     1       0.802  -1.824   1.306  0.00  0.00    +0.121 A 
ATOM     25  C   UNL     1       0.260  -2.673   0.351  0.00  0.00    +0.046 A 
ATOM     26  C   UNL     1       0.372  -4.041   0.502  0.00  0.00    +0.008 A 
ATOM     27  C   UNL     1       1.024  -4.566   1.603  0.00  0.00    -0.035 A 
ATOM     28  C   UNL     1       1.565  -3.722   2.555  0.00  0.00    +0.008 A 
ATOM     29  C   UNL     1       1.460  -2.353   2.406  0.00  0.00    +0.046 A 
BRANCH  24  30
ATOM     30  O   UNL     1       0.693  -0.477   1.160  0.00  0.00    -0.492 OA
BRANCH  30  32
ATOM     31  C   UNL     1      -0.019   1.526   0.010  0.00  0.00    +0.048 C 
ATOM     32  C   UNL     1       0.002  -0.004   0.002  0.00  0.00    +0.225 C 
ENDBRANCH  30  32
ENDBRANCH  24  30
ENDBRANCH   1  27
TORSDOF 3
