REMARK  Name = ZINC04730164
REMARK  7 active torsions:
REMARK  status: ('A' for Active; 'I' for Inactive)
REMARK    1  A    between atoms: C_1  and  C_2
REMARK    2  A    between atoms: C_7  and  C_8
REMARK    3  A    between atoms: C_10  and  C_23
REMARK    4  A    between atoms: C_13  and  C_15
REMARK    5  A    between atoms: C_18  and  O_21
REMARK    6  A    between atoms: O_21  and  C_22
REMARK    7  A    between atoms: C_28  and  O_29
REMARK                            x       y       z     vdW  Elec       q    Type
REMARK                         _______ _______ _______ _____ _____    ______ ____
ROOT
ATOM      1  C   UNL     1      -0.113   0.970  -2.399  0.00  0.00    +0.081 C 
ATOM      2  C   UNL     1      -0.013   1.086   0.008  0.00  0.00    -0.028 C 
ATOM      3  C   UNL     1       1.422   1.622  -0.003  0.00  0.00    +0.044 C 
ATOM      4  C   UNL     1       2.030   1.401  -1.360  0.00  0.00    +0.040 C 
ATOM      5  N   UNL     1       1.336   1.120  -2.399  0.00  0.00    -0.299 NA
ATOM      6  N   UNL     1      -0.701   1.584  -1.199  0.00  0.00    +0.401 N 
ATOM      7  H   UNL     1      -1.698   1.342  -1.146  0.00  0.00    -0.081 HD
ATOM      8  H   UNL     1      -0.599   2.604  -1.253  0.00  0.00    -0.081 HD
ENDROOT
BRANCH   1  15
ATOM      9  C   UNL     1       1.538  -0.876  -3.887  0.00  0.00    +0.044 C 
ATOM     10  C   UNL     1       0.329  -1.379  -3.140  0.00  0.00    -0.047 A 
ATOM     11  C   UNL     1       0.013  -2.725  -3.164  0.00  0.00    +0.003 A 
ATOM     12  C   UNL     1      -1.098  -3.186  -2.484  0.00  0.00    +0.000 A 
ATOM     13  C   UNL     1      -1.891  -2.302  -1.776  0.00  0.00    +0.000 A 
ATOM     14  C   UNL     1      -1.573  -0.957  -1.749  0.00  0.00    +0.004 A 
ATOM     15  C   UNL     1      -0.461  -0.496  -2.429  0.00  0.00    -0.038 A 
ENDBRANCH   1  15
BRANCH   4  16
ATOM     16  C   UNL     1       3.493   1.512  -1.501  0.00  0.00    -0.004 A 
ATOM     17  C   UNL     1       4.283   1.823  -0.390  0.00  0.00    +0.013 A 
ATOM     18  C   UNL     1       5.650   1.921  -0.525  0.00  0.00    +0.046 A 
ATOM     19  C   UNL     1       6.243   1.722  -1.766  0.00  0.00    +0.120 A 
ATOM     20  C   UNL     1       5.462   1.419  -2.874  0.00  0.00    +0.046 A 
ATOM     21  C   UNL     1       4.094   1.314  -2.747  0.00  0.00    +0.013 A 
BRANCH  19  22
ATOM     22  O   UNL     1       7.591   1.825  -1.896  0.00  0.00    -0.495 OA
ATOM     23  C   UNL     1       8.334   2.140  -0.717  0.00  0.00    +0.277 C 
ENDBRANCH  19  22
ENDBRANCH   4  16
BRANCH   2  24
ATOM     24  C   UNL     1      -0.730   1.578   1.239  0.00  0.00    -0.019 A 
ATOM     25  C   UNL     1      -1.582   2.663   1.155  0.00  0.00    +0.005 A 
ATOM     26  C   UNL     1      -2.240   3.114   2.284  0.00  0.00    +0.000 A 
ATOM     27  C   UNL     1      -2.049   2.482   3.498  0.00  0.00    +0.004 A 
ATOM     28  C   UNL     1      -1.200   1.396   3.587  0.00  0.00    +0.045 A 
ATOM     29  C   UNL     1      -0.541   0.938   2.455  0.00  0.00    +0.118 A 
BRANCH  29  30
ATOM     30  O   UNL     1       0.292  -0.133   2.538  0.00  0.00    -0.507 OA
ATOM     31  H   UNL     1       1.209   0.097   2.741  0.00  0.00    +0.292 HD
ENDBRANCH  29  30
ENDBRANCH   2  24
TORSDOF 5
