REMARK  Name = ZINC32891651
REMARK  8 active torsions:
REMARK  status: ('A' for Active; 'I' for Inactive)
REMARK    1  A    between atoms: C_1  and  C_2
REMARK    2  A    between atoms: C_2  and  C_4
REMARK    3  A    between atoms: C_2  and  N_17
REMARK    4  A    between atoms: N_6  and  C_7
REMARK    5  A    between atoms: C_12  and  O_13
REMARK    6  A    between atoms: O_13  and  C_14
REMARK    7  A    between atoms: C_20  and  C_23
REMARK    8  A    between atoms: C_26  and  O_29
REMARK                            x       y       z     vdW  Elec       q    Type
REMARK                         _______ _______ _______ _____ _____    ______ ____
ROOT
ATOM      1  C   UNL     1       1.006  -2.310   0.270  0.00  0.00    -0.004 C 
ATOM      2  C   UNL     1       0.589  -1.933  -1.153  0.00  0.00    +0.016 C 
ENDROOT
BRANCH   2   3
ATOM      3  N   UNL     1       0.706  -0.479  -1.328  0.00  0.00    +0.387 N 
ATOM      4  C   UNL     1       0.075   0.238  -0.213  0.00  0.00    -0.077 C 
ATOM      5  C   UNL     1       0.088   1.741  -0.499  0.00  0.00    -0.011 C 
ATOM      6  C   UNL     1       1.534   2.210  -0.679  0.00  0.00    +0.016 C 
ATOM      7  C   UNL     1       2.183   1.414  -1.815  0.00  0.00    -0.011 C 
ATOM      8  C   UNL     1       2.110  -0.080  -1.490  0.00  0.00    -0.077 C 
ATOM      9  H   UNL     1       0.170  -0.204  -2.249  0.00  0.00    -0.081 HD
BRANCH   6  10
ATOM     10  C   UNL     1       1.549   3.678  -1.020  0.00  0.00    -0.044 A 
ATOM     11  C   UNL     1       0.912   4.127  -2.163  0.00  0.00    +0.007 A 
ATOM     12  C   UNL     1       0.920   5.473  -2.475  0.00  0.00    +0.045 A 
ATOM     13  C   UNL     1       1.577   6.372  -1.647  0.00  0.00    +0.117 A 
ATOM     14  C   UNL     1       2.220   5.918  -0.505  0.00  0.00    +0.045 A 
ATOM     15  C   UNL     1       2.204   4.572  -0.194  0.00  0.00    +0.007 A 
BRANCH  13  16
ATOM     16  O   UNL     1       1.591   7.696  -1.956  0.00  0.00    -0.507 OA
ATOM     17  H   UNL     1       2.112   8.408  -1.299  0.00  0.00    +0.292 HD
ENDBRANCH  13  16
ENDBRANCH   6  10
ENDBRANCH   2   3
BRANCH   2  18
ATOM     18  C   UNL     1      -0.840  -2.353  -1.385  0.00  0.00    +0.203 C 
ATOM     19  O   UNL     1      -1.719  -1.519  -1.419  0.00  0.00    -0.277 OA
ATOM     20  N   UNL     1      -1.139  -3.656  -1.556  0.00  0.00    -0.284 N 
ATOM     21  H   UNL     1      -0.353  -4.419  -1.456  0.00  0.00    +0.155 HD
BRANCH  20  22
ATOM     22  C   UNL     1      -2.452  -4.040  -1.859  0.00  0.00    +0.076 A 
ATOM     23  C   UNL     1      -3.519  -3.260  -1.437  0.00  0.00    +0.027 A 
ATOM     24  C   UNL     1      -4.813  -3.637  -1.742  0.00  0.00    +0.002 A 
ATOM     25  C   UNL     1      -5.049  -4.796  -2.458  0.00  0.00    +0.004 A 
ATOM     26  C   UNL     1      -3.991  -5.581  -2.878  0.00  0.00    +0.048 A 
ATOM     27  C   UNL     1      -2.690  -5.207  -2.580  0.00  0.00    +0.148 A 
BRANCH  27  28
ATOM     28  O   UNL     1      -1.649  -5.979  -2.991  0.00  0.00    -0.432 OA
BRANCH  28  29
ATOM     29  C   UNL     1      -1.968  -7.162  -3.726  0.00  0.00    +0.541 C 
ATOM     30  F   UNL     1      -2.767  -7.998  -2.940  0.00  0.00    -0.166 F 
ATOM     31  F   UNL     1      -2.661  -6.814  -4.891  0.00  0.00    -0.166 F 
ENDBRANCH  28  29
ENDBRANCH  27  28
ENDBRANCH  20  22
ENDBRANCH   2  18
TORSDOF 7
