REMARK  Name = ZINC61942447
REMARK  6 active torsions:
REMARK  status: ('A' for Active; 'I' for Inactive)
REMARK    1  A    between atoms: C_1  and  N_2
REMARK    2  A    between atoms: N_2  and  C_3
REMARK    3  A    between atoms: N_2  and  C_13
REMARK    4  A    between atoms: C_3  and  C_4
REMARK    5  A    between atoms: C_8  and  C_10
REMARK    6  A    between atoms: C_13  and  C_14
REMARK                            x       y       z     vdW  Elec       q    Type
REMARK                         _______ _______ _______ _____ _____    ______ ____
ROOT
ATOM      1  C   UNL     1      -1.376  -0.512   0.012  0.00  0.00    -0.043 C 
ENDROOT
BRANCH   1   2
ATOM      2  C   UNL     1      -2.067  -0.116  -1.267  0.00  0.00    -0.063 A 
ATOM      3  C   UNL     1      -2.751   1.085  -1.339  0.00  0.00    +0.002 A 
ATOM      4  C   UNL     1      -3.388   1.456  -2.509  0.00  0.00    +0.001 A 
ATOM      5  C   UNL     1      -3.346   0.629  -3.613  0.00  0.00    +0.011 A 
ATOM      6  C   UNL     1      -2.659  -0.583  -3.547  0.00  0.00    +0.012 A 
ATOM      7  C   UNL     1      -2.013  -0.949  -2.365  0.00  0.00    +0.013 A 
BRANCH   6   8
ATOM      8  C   UNL     1      -2.610  -1.475  -4.726  0.00  0.00    +0.094 C 
ATOM      9  N   UNL     1      -3.619  -1.485  -5.595  0.00  0.00    -0.387 N 
ATOM     10  N   UNL     1      -1.558  -2.267  -4.919  0.00  0.00    -0.345 N 
ATOM     11  H   UNL     1      -4.386  -0.908  -5.455  0.00  0.00    +0.157 HD
ATOM     12  H   UNL     1      -0.823  -2.260  -4.286  0.00  0.00    +0.144 HD
ATOM     13  H   UNL     1      -1.526  -2.852  -5.693  0.00  0.00    +0.144 HD
ATOM     14  H   UNL     1      -3.588  -2.070  -6.369  0.00  0.00    +0.157 HD
ENDBRANCH   6   8
ENDBRANCH   1   2
BRANCH   1  16
ATOM     15  C   UNL     1      -0.018   1.465   0.010  0.00  0.00    -0.095 C 
ATOM     16  N   UNL     1       0.002  -0.004   0.002  0.00  0.00    +0.383 N 
ATOM     17  H   UNL     1       0.474  -0.330  -0.828  0.00  0.00    -0.081 HD
BRANCH  16  18
ATOM     18  C   UNL     1       0.713  -0.491   1.192  0.00  0.00    -0.043 C 
BRANCH  18  19
ATOM     19  C   UNL     1       2.158  -0.072   1.120  0.00  0.00    -0.063 A 
ATOM     20  C   UNL     1       3.086  -0.894   0.508  0.00  0.00    +0.004 A 
ATOM     21  C   UNL     1       4.412  -0.512   0.441  0.00  0.00    +0.039 A 
ATOM     22  C   UNL     1       4.812   0.696   0.987  0.00  0.00    +0.137 A 
ATOM     23  C   UNL     1       3.883   1.519   1.600  0.00  0.00    +0.053 A 
ATOM     24  C   UNL     1       2.555   1.136   1.662  0.00  0.00    +0.020 A 
ATOM     25 BR   UNL     1       4.427   3.169   2.347  0.00  0.00    -0.047 Br
ATOM     26  F   UNL     1       6.109   1.071   0.922  0.00  0.00    -0.204 F 
ENDBRANCH  18  19
ENDBRANCH  16  18
ENDBRANCH   1  16
TORSDOF 5
