REMARK  Name = ZINC39227625
REMARK  12 active torsions:
REMARK  status: ('A' for Active; 'I' for Inactive)
REMARK    1  A    between atoms: C_1  and  C_2
REMARK    2  A    between atoms: C_2  and  C_4
REMARK    3  A    between atoms: C_2  and  O_37
REMARK    4  A    between atoms: C_4  and  N_5
REMARK    5  A    between atoms: N_5  and  C_6
REMARK    6  A    between atoms: C_6  and  C_7
REMARK    7  A    between atoms: C_7  and  C_9
REMARK    8  A    between atoms: C_7  and  O_10
REMARK    9  A    between atoms: C_11  and  C_13
REMARK   10  A    between atoms: C_16  and  C_19
REMARK   11  A    between atoms: C_25  and  O_36
REMARK   12  A    between atoms: N_32  and  C_35
REMARK                            x       y       z     vdW  Elec       q    Type
REMARK                         _______ _______ _______ _____ _____    ______ ____
ROOT
ATOM      1  C   UNL     1      -0.458  -4.447   1.553  0.00  0.00    +0.037 A 
ATOM      2  C   UNL     1       0.643  -5.036   0.927  0.00  0.00    +0.013 A 
ATOM      3  C   UNL     1       0.653  -6.391   0.684  0.00  0.00    +0.009 A 
ATOM      4  C   UNL     1      -0.437  -7.176   1.063  0.00  0.00    -0.018 A 
ATOM      5  C   UNL     1      -1.537  -6.588   1.689  0.00  0.00    +0.009 A 
ATOM      6  C   UNL     1      -1.547  -5.235   1.937  0.00  0.00    +0.013 A 
ENDROOT
BRANCH   4   7
ATOM      7  C   UNL     1      -0.425  -8.635   0.801  0.00  0.00    -0.017 A 
ATOM      8  C   UNL     1       0.675  -9.226   0.181  0.00  0.00    +0.012 A 
ATOM      9  C   UNL     1       0.679 -10.582  -0.058  0.00  0.00    +0.046 A 
ATOM     10  C   UNL     1      -0.409 -11.367   0.316  0.00  0.00    +0.127 A 
ATOM     11  C   UNL     1      -1.505 -10.781   0.928  0.00  0.00    +0.023 A 
ATOM     12  C   UNL     1      -1.511  -9.421   1.178  0.00  0.00    +0.018 A 
ATOM     13  C   UNL     1      -2.707 -11.596   1.335  0.00  0.00    +0.152 C 
ATOM     14  C   UNL     1      -2.331 -13.079   1.391  0.00  0.00    +0.084 C 
ATOM     15  C   UNL     1      -1.580 -13.436   0.104  0.00  0.00    +0.110 C 
ATOM     16  O   UNL     1      -0.358 -12.701   0.067  0.00  0.00    -0.485 OA
ATOM     17  C   UNL     1      -2.440 -13.075  -1.109  0.00  0.00    +0.029 C 
ATOM     18  C   UNL     1      -1.720 -13.510  -2.387  0.00  0.00    -0.075 C 
ATOM     19  N   UNL     1      -1.493 -14.960  -2.356  0.00  0.00    +0.378 N 
ATOM     20  C   UNL     1      -0.606 -15.302  -1.238  0.00  0.00    -0.075 C 
ATOM     21  C   UNL     1      -1.284 -14.937   0.085  0.00  0.00    +0.029 C 
ATOM     22  C   UNL     1      -0.873 -15.384  -3.618  0.00  0.00    -0.096 C 
ATOM     23  H   UNL     1      -2.376 -15.435  -2.241  0.00  0.00    -0.082 HD
BRANCH  13  24
ATOM     24  O   UNL     1      -3.156 -11.171   2.623  0.00  0.00    -0.387 OA
ATOM     25  H   UNL     1      -3.416 -10.241   2.662  0.00  0.00    +0.210 HD
ENDBRANCH  13  24
ENDBRANCH   4   7
BRANCH   1  27
ATOM     26  N   UNL     1       0.027  -2.140   0.897  0.00  0.00    -0.293 N 
ATOM     27  C   UNL     1      -0.470  -2.994   1.815  0.00  0.00    +0.247 C 
ATOM     28  O   UNL     1      -0.927  -2.567   2.857  0.00  0.00    -0.270 OA
BRANCH  26  29
ATOM     29  C   UNL     1       0.074  -0.704   1.183  0.00  0.00    +0.139 C 
BRANCH  29  31
ATOM     30  C   UNL     1      -1.177   1.452   1.013  0.00  0.00    +0.039 C 
ATOM     31  C   UNL     1      -1.226  -0.048   0.715  0.00  0.00    +0.129 C 
BRANCH  31  32
ATOM     32  O   UNL     1      -1.382  -0.249  -0.691  0.00  0.00    -0.391 OA
ATOM     33  H   UNL     1      -2.187   0.142  -1.058  0.00  0.00    +0.210 HD
ENDBRANCH  31  32
ENDBRANCH  29  31
ENDBRANCH  26  29
BRANCH  26  34
ATOM     34  C   UNL     1       0.520  -2.648  -0.385  0.00  0.00    +0.139 C 
BRANCH  34  35
ATOM     35  C   UNL     1       2.050  -2.633  -0.386  0.00  0.00    +0.129 C 
ATOM     36  C   UNL     1       2.566  -3.329  -1.647  0.00  0.00    +0.039 C 
BRANCH  35  37
ATOM     37  O   UNL     1       2.512  -1.281  -0.365  0.00  0.00    -0.391 OA
ATOM     38  H   UNL     1       2.221  -0.754  -1.121  0.00  0.00    +0.210 HD
ENDBRANCH  35  37
ENDBRANCH  34  35
ENDBRANCH  26  34
ENDBRANCH   1  27
TORSDOF 9
