REMARK  Name = ZINC43223302
REMARK  8 active torsions:
REMARK  status: ('A' for Active; 'I' for Inactive)
REMARK    1  A    between atoms: C_2  and  C_15
REMARK    2  A    between atoms: C_4  and  C_11
REMARK    3  A    between atoms: C_6  and  C_7
REMARK    4  A    between atoms: C_15  and  N_16
REMARK    5  A    between atoms: C_17  and  C_19
REMARK    6  A    between atoms: C_24  and  C_26
REMARK    7  A    between atoms: N_28  and  C_29
REMARK    8  A    between atoms: C_29  and  C_30
REMARK                            x       y       z     vdW  Elec       q    Type
REMARK                         _______ _______ _______ _____ _____    ______ ____
ROOT
ATOM      1  N   UNL     1       1.157   4.074   1.393  0.00  0.00    -0.311 N 
ATOM      2  C   UNL     1       1.141   5.397   1.647  0.00  0.00    +0.215 C 
ATOM      3  O   UNL     1       1.122   6.190   0.729  0.00  0.00    -0.276 OA
ATOM      4  H   UNL     1       1.172   3.440   2.127  0.00  0.00    +0.149 HD
ENDROOT
BRANCH   2   5
ATOM      5  C   UNL     1       1.147   5.893   3.070  0.00  0.00    +0.068 C 
ATOM      6  C   UNL     1       2.448   5.462   3.781  0.00  0.00    -0.069 C 
ATOM      7  N   UNL     1       3.358   6.627   3.635  0.00  0.00    +0.380 N 
ATOM      8  C   UNL     1       2.475   7.806   3.828  0.00  0.00    -0.069 C 
ATOM      9  C   UNL     1       1.163   7.435   3.100  0.00  0.00    +0.068 C 
ATOM     10  H   UNL     1       4.077   6.604   4.343  0.00  0.00    -0.086 HD
ATOM     11  H   UNL     1       3.769   6.641   2.714  0.00  0.00    -0.086 HD
BRANCH   9  12
ATOM     12  C   UNL     1      -0.027   7.955   3.865  0.00  0.00    +0.215 C 
ATOM     13  O   UNL     1      -0.824   7.179   4.348  0.00  0.00    -0.276 OA
ATOM     14  N   UNL     1      -0.205   9.283   4.013  0.00  0.00    -0.313 N 
ATOM     15  H   UNL     1       0.432   9.903   3.626  0.00  0.00    +0.149 HD
BRANCH  14  16
ATOM     16  C   UNL     1      -1.362   9.788   4.756  0.00  0.00    +0.135 C 
BRANCH  16  17
ATOM     17  C   UNL     1      -1.328  11.318   4.774  0.00  0.00    +0.135 C 
ATOM     18  C   UNL     1      -2.474  11.857   5.657  0.00  0.00    +0.035 C 
ATOM     19  C   UNL     1      -2.953  13.097   4.853  0.00  0.00    +0.031 C 
ATOM     20  C   UNL     1      -2.727  12.611   3.400  0.00  0.00    +0.160 C 
ATOM     21  O   UNL     1      -1.524  11.824   3.449  0.00  0.00    -0.375 OA
ENDBRANCH  16  17
ENDBRANCH  14  16
ENDBRANCH   9  12
ENDBRANCH   2   5
BRANCH   1  22
ATOM     22  C   UNL     1       1.151   3.592   0.010  0.00  0.00    +0.139 C 
BRANCH  22  24
ATOM     23  C   UNL     1      -0.017   1.378   0.010  0.00  0.00    +0.017 A 
ATOM     24  C   UNL     1       1.171   2.086   0.002  0.00  0.00    -0.029 A 
ATOM     25  C   UNL     1       2.377   1.411  -0.013  0.00  0.00    +0.017 A 
ATOM     26  C   UNL     1       2.396   0.029  -0.020  0.00  0.00    +0.056 A 
ATOM     27  C   UNL     1       1.208  -0.679  -0.012  0.00  0.00    +0.024 A 
ATOM     28  C   UNL     1       0.002  -0.004   0.002  0.00  0.00    +0.056 A 
BRANCH  28  29
ATOM     29  C   UNL     1      -1.293  -0.775   0.011  0.00  0.00    +0.417 C 
ATOM     30  F   UNL     1      -1.706  -1.007  -1.306  0.00  0.00    -0.166 F 
ATOM     31  F   UNL     1      -1.102  -1.999   0.662  0.00  0.00    -0.166 F 
ATOM     32  F   UNL     1      -2.271  -0.036   0.684  0.00  0.00    -0.166 F 
ENDBRANCH  28  29
BRANCH  26  33
ATOM     33  C   UNL     1       3.711  -0.707  -0.038  0.00  0.00    +0.417 C 
ATOM     34  F   UNL     1       4.132  -0.941   1.276  0.00  0.00    -0.166 F 
ATOM     35  F   UNL     1       3.554  -1.928  -0.702  0.00  0.00    -0.166 F 
ATOM     36  F   UNL     1       4.669   0.065  -0.703  0.00  0.00    -0.166 F 
ENDBRANCH  26  33
ENDBRANCH  22  24
ENDBRANCH   1  22
TORSDOF 8
