REMARK  Name = ZINC39916193
REMARK  14 active torsions:
REMARK  status: ('A' for Active; 'I' for Inactive)
REMARK    1  A    between atoms: C_1  and  C_2
REMARK    2  A    between atoms: C_2  and  C_29
REMARK    3  A    between atoms: C_4  and  O_28
REMARK    4  A    between atoms: C_6  and  C_26
REMARK    5  A    between atoms: C_6  and  C_27
REMARK    6  A    between atoms: N_7  and  C_8
REMARK    7  A    between atoms: C_8  and  C_9
REMARK    8  A    between atoms: C_9  and  C_11
REMARK    9  A    between atoms: C_9  and  O_25
REMARK   10  A    between atoms: C_11  and  O_12
REMARK   11  A    between atoms: O_12  and  C_13
REMARK   12  A    between atoms: C_13  and  C_14
REMARK   13  A    between atoms: C_14  and  O_15
REMARK   14  A    between atoms: O_15  and  C_16
REMARK                            x       y       z     vdW  Elec       q    Type
REMARK                         _______ _______ _______ _____ _____    ______ ____
ROOT
ATOM      1  C   UNL     1       2.620  -1.486   0.388  0.00  0.00    +0.124 C 
ENDROOT
BRANCH   1   2
ATOM      2  O   UNL     1       2.220  -2.797  -0.016  0.00  0.00    -0.391 OA
ATOM      3  H   UNL     1       2.209  -3.444   0.703  0.00  0.00    +0.210 HD
ENDBRANCH   1   2
BRANCH   1   4
ATOM      4  C   UNL     1       1.718  -1.005   1.527  0.00  0.00    -0.043 C 
BRANCH   4  11
ATOM      5  C   UNL     1       0.439   1.234   0.746  0.00  0.00    -0.010 C 
ATOM      6  C   UNL     1      -0.092  -0.117   0.256  0.00  0.00    -0.068 C 
ATOM      7  C   UNL     1      -1.599  -0.032   0.038  0.00  0.00    +0.019 C 
ATOM      8  C   UNL     1      -2.331  -0.021   1.381  0.00  0.00    +0.112 C 
ATOM      9  C   UNL     1      -1.985  -1.312   2.123  0.00  0.00    +0.019 C 
ATOM     10  C   UNL     1      -0.481  -1.406   2.354  0.00  0.00    -0.068 C 
ATOM     11  N   UNL     1       0.302  -1.196   1.147  0.00  0.00    +0.388 N 
ATOM     12  C   UNL     1      -0.181  -2.836   2.863  0.00  0.00    -0.010 C 
ATOM     13  C   UNL     1      -0.064  -0.438   3.465  0.00  0.00    -0.010 C 
ATOM     14  C   UNL     1       0.558  -0.387  -1.121  0.00  0.00    -0.010 C 
ATOM     15  H   UNL     1       0.269  -2.070   0.604  0.00  0.00    -0.080 HD
BRANCH   8  16
ATOM     16  O   UNL     1      -3.743   0.026   1.147  0.00  0.00    -0.392 OA
ATOM     17  H   UNL     1      -4.275   0.036   1.955  0.00  0.00    +0.210 HD
ENDBRANCH   8  16
ENDBRANCH   4  11
ENDBRANCH   1   4
BRANCH   1  18
ATOM     18  C   UNL     1       4.072  -1.523   0.869  0.00  0.00    +0.189 C 
BRANCH  18  19
ATOM     19  O   UNL     1       4.928  -1.859  -0.225  0.00  0.00    -0.374 OA
BRANCH  19  20
ATOM     20  C   UNL     1       6.314  -1.920   0.119  0.00  0.00    +0.201 C 
BRANCH  20  21
ATOM     21  C   UNL     1       7.131  -2.287  -1.122  0.00  0.00    +0.257 C 
BRANCH  21  22
ATOM     22  O   UNL     1       7.027  -1.238  -2.087  0.00  0.00    -0.484 OA
BRANCH  22  23
ATOM     23  C   UNL     1       7.700  -1.407  -3.257  0.00  0.00    +0.191 A 
ATOM     24  C   UNL     1       9.010  -0.964  -3.376  0.00  0.00    +0.169 A 
ATOM     25  C   UNL     1       9.692  -1.137  -4.567  0.00  0.00    +0.057 A 
ATOM     26  C   UNL     1       9.070  -1.753  -5.639  0.00  0.00    +0.024 A 
ATOM     27  C   UNL     1       7.765  -2.195  -5.523  0.00  0.00    +0.057 A 
ATOM     28  C   UNL     1       7.080  -2.029  -4.332  0.00  0.00    +0.169 A 
ATOM     29  F   UNL     1       5.807  -2.467  -4.218  0.00  0.00    -0.202 F 
ATOM     30 BR   UNL     1      10.006  -1.988  -7.265  0.00  0.00    -0.050 Br
ATOM     31  F   UNL     1       9.618  -0.362  -2.330  0.00  0.00    -0.202 F 
ENDBRANCH  22  23
ENDBRANCH  21  22
ENDBRANCH  20  21
ENDBRANCH  19  20
ENDBRANCH  18  19
ENDBRANCH   1  18
TORSDOF 10
