REMARK  Name = ZINC09264454
REMARK  5 active torsions:
REMARK  status: ('A' for Active; 'I' for Inactive)
REMARK    1  A    between atoms: C_1  and  C_2
REMARK    2  A    between atoms: C_7  and  N_8
REMARK    3  A    between atoms: C_17  and  C_19
REMARK    4  A    between atoms: C_19  and  S_20
REMARK    5  A    between atoms: S_20  and  C_21
REMARK                            x       y       z     vdW  Elec       q    Type
REMARK                         _______ _______ _______ _____ _____    ______ ____
ROOT
ATOM      1  N   UNL     1      -2.982  -0.989   0.256  0.00  0.00    -0.327 N 
ATOM      2  C   UNL     1      -2.159   0.027   0.686  0.00  0.00    +0.180 C 
ATOM      3  N   UNL     1      -1.021  -0.265   1.409  0.00  0.00    -0.298 N 
ATOM      4  C   UNL     1      -0.143   0.737   1.743  0.00  0.00    +0.211 A 
ATOM      5  N   UNL     1       0.976   0.435   2.455  0.00  0.00    -0.293 N 
ATOM      6  H   UNL     1       1.150  -0.481   2.723  0.00  0.00    +0.172 HD
ATOM      7  C   UNL     1       1.844   1.414   2.787  0.00  0.00    +0.253 A 
ATOM      8  O   UNL     1       2.853   1.161   3.425  0.00  0.00    -0.268 OA
ATOM      9  C   UNL     1       1.564   2.732   2.382  0.00  0.00    +0.094 A 
ATOM     10  C   UNL     1       0.426   2.974   1.669  0.00  0.00    +0.060 A 
ATOM     11  N   UNL     1      -0.398   1.973   1.367  0.00  0.00    -0.218 NA
ATOM     12  H   UNL     1      -3.827  -0.781  -0.172  0.00  0.00    +0.169 HD
ATOM     13  H   UNL     1      -3.267   1.577  -0.031  0.00  0.00    +0.159 HD
ATOM     14  H   UNL     1      -0.841  -1.179   1.681  0.00  0.00    +0.172 HD
ATOM     15  N   UNL     1      -2.401   1.304   0.434  0.00  0.00    -0.371 N 
ATOM     16  H   UNL     1      -1.718   2.020   0.707  0.00  0.00    +0.159 HD
ENDROOT
BRANCH   1  23
ATOM     17  C   UNL     1      -5.025  -2.944   0.570  0.00  0.00    +0.046 C 
ATOM     18  C   UNL     1      -3.563  -3.308   0.592  0.00  0.00    -0.027 A 
ATOM     19  C   UNL     1      -3.182  -4.624   0.769  0.00  0.00    +0.005 A 
ATOM     20  C   UNL     1      -1.840  -4.960   0.789  0.00  0.00    +0.000 A 
ATOM     21  C   UNL     1      -0.877  -3.980   0.633  0.00  0.00    +0.002 A 
ATOM     22  C   UNL     1      -1.252  -2.663   0.451  0.00  0.00    +0.026 A 
ATOM     23  C   UNL     1      -2.599  -2.322   0.435  0.00  0.00    +0.045 A 
ENDBRANCH   1  23
BRANCH  10  24
ATOM     24  C   UNL     1       0.102   4.376   1.223  0.00  0.00    +0.132 C 
BRANCH  24  25
ATOM     25  S   UNL     1       0.427   4.536  -0.550  0.00  0.00    -0.093 S 
BRANCH  25  26
ATOM     26  C   UNL     1      -0.024   6.221  -0.794  0.00  0.00    +0.136 A 
ATOM     27  N   UNL     1      -0.002   6.929  -1.901  0.00  0.00    -0.233 NA
ATOM     28  C   UNL     1      -0.381   8.225  -1.941  0.00  0.00    +0.079 A 
ATOM     29  C   UNL     1      -0.406   9.093  -3.057  0.00  0.00    +0.029 A 
ATOM     30  C   UNL     1      -0.822  10.392  -2.925  0.00  0.00    +0.002 A 
ATOM     31  C   UNL     1      -1.232  10.901  -1.701  0.00  0.00    +0.001 A 
ATOM     32  C   UNL     1      -1.220  10.080  -0.588  0.00  0.00    +0.017 A 
ATOM     33  C   UNL     1      -0.805   8.778  -0.711  0.00  0.00    +0.040 A 
ATOM     34  S   UNL     1      -0.635   7.402   0.400  0.00  0.00    -0.061 S 
ENDBRANCH  25  26
ENDBRANCH  24  25
ENDBRANCH  10  24
TORSDOF 4
