REMARK  Name = ZINC33260625
REMARK  13 active torsions:
REMARK  status: ('A' for Active; 'I' for Inactive)
REMARK    1  A    between atoms: C_1  and  C_2
REMARK    2  A    between atoms: C_2  and  C_3
REMARK    3  A    between atoms: C_3  and  C_4
REMARK    4  A    between atoms: N_6  and  C_7
REMARK    5  A    between atoms: C_13  and  C_32
REMARK    6  A    between atoms: C_15  and  N_17
REMARK    7  A    between atoms: N_20  and  C_23
REMARK    8  A    between atoms: C_23  and  C_24
REMARK    9  A    between atoms: N_26  and  C_27
REMARK   10  A    between atoms: C_27  and  C_28
REMARK   11  A    between atoms: C_28  and  N_29
REMARK   12  A    between atoms: N_29  and  C_30
REMARK   13  A    between atoms: N_29  and  C_31
REMARK                            x       y       z     vdW  Elec       q    Type
REMARK                         _______ _______ _______ _____ _____    ______ ____
ROOT
ATOM      1  C   UNL     1      -5.546  -4.526   0.061  0.00  0.00    +0.034 A 
ATOM      2  C   UNL     1      -6.516  -5.534   0.041  0.00  0.00    +0.025 A 
ATOM      3  C   UNL     1      -6.165  -6.845   0.128  0.00  0.00    +0.028 A 
ATOM      4  C   UNL     1      -4.810  -7.204   0.241  0.00  0.00    +0.049 A 
ATOM      5  C   UNL     1      -3.825  -6.184   0.262  0.00  0.00    +0.014 A 
ATOM      6  C   UNL     1      -4.207  -4.844   0.166  0.00  0.00    +0.034 A 
ATOM      7  C   UNL     1      -2.417  -6.571   0.381  0.00  0.00    +0.075 A 
ATOM      8  C   UNL     1      -2.135  -7.928   0.465  0.00  0.00    +0.057 A 
ATOM      9  C   UNL     1      -3.187  -8.853   0.435  0.00  0.00    +0.100 A 
ATOM     10  N   UNL     1      -4.444  -8.485   0.328  0.00  0.00    -0.343 N 
ATOM     11  H   UNL     1      -5.131  -9.169   0.312  0.00  0.00    +0.167 HD
ENDROOT
BRANCH   9  12
ATOM     12  N   UNL     1      -2.891 -10.207   0.520  0.00  0.00    -0.314 N 
ATOM     13  C   UNL     1      -1.497 -10.676   0.520  0.00  0.00    +0.122 C 
ATOM     14  C   UNL     1      -1.299 -11.615   1.714  0.00  0.00    +0.104 C 
ATOM     15  N   UNL     1      -2.312 -12.678   1.670  0.00  0.00    -0.291 NA
ATOM     16  C   UNL     1      -3.668 -12.128   1.804  0.00  0.00    +0.104 C 
ATOM     17  C   UNL     1      -3.962 -11.209   0.619  0.00  0.00    +0.122 C 
BRANCH  15  18
ATOM     18  C   UNL     1      -2.053 -13.695   2.697  0.00  0.00    +0.180 C 
BRANCH  18  19
ATOM     19  C   UNL     1      -2.954 -14.882   2.468  0.00  0.00    +0.227 C 
ATOM     20  O   UNL     1      -3.734 -14.880   1.540  0.00  0.00    -0.274 OA
ATOM     21  N   UNL     1      -2.891 -15.945   3.294  0.00  0.00    -0.316 N 
ATOM     22  H   UNL     1      -2.267 -15.946   4.036  0.00  0.00    +0.149 HD
BRANCH  21  23
ATOM     23  C   UNL     1      -3.767 -17.098   3.071  0.00  0.00    +0.085 C 
BRANCH  23  24
ATOM     24  C   UNL     1      -3.497 -18.158   4.141  0.00  0.00    -0.061 C 
BRANCH  24  25
ATOM     25  N   UNL     1      -4.375 -19.314   3.918  0.00  0.00    +0.377 N 
ATOM     26  C   UNL     1      -4.034 -20.379   4.870  0.00  0.00    -0.097 C 
ATOM     27  C   UNL     1      -5.774 -18.912   4.113  0.00  0.00    -0.097 C 
ATOM     28  H   UNL     1      -4.251 -19.653   2.975  0.00  0.00    -0.083 HD
ENDBRANCH  24  25
ENDBRANCH  23  24
ENDBRANCH  21  23
ENDBRANCH  18  19
ENDBRANCH  15  18
ENDBRANCH   9  12
BRANCH   1  31
ATOM     29  C   UNL     1      -7.082  -2.777   0.550  0.00  0.00    +0.217 C 
ATOM     30  O   UNL     1      -7.812  -3.583   1.085  0.00  0.00    -0.275 OA
ATOM     31  N   UNL     1      -5.936  -3.186  -0.030  0.00  0.00    -0.285 N 
ATOM     32  H   UNL     1      -5.382  -2.552  -0.512  0.00  0.00    +0.155 HD
BRANCH  29  33
ATOM     33  C   UNL     1      -7.454  -1.317   0.533  0.00  0.00    +0.096 C 
BRANCH  33  35
ATOM     34  C   UNL     1      -9.168   0.359   1.237  0.00  0.00    +0.004 C 
ATOM     35  C   UNL     1      -8.790  -1.123   1.254  0.00  0.00    +0.006 C 
ENDBRANCH  33  35
ENDBRANCH  29  33
ENDBRANCH   1  31
BRANCH   7  36
ATOM     36  C   UNL     1      -1.343  -5.559   0.408  0.00  0.00    +0.387 C 
ATOM     37  O   UNL     1      -0.172  -5.911   0.406  0.00  0.00    -0.241 OA
ATOM     38  O   UNL     1      -1.624  -4.369   0.432  0.00  0.00    -0.241 OA
ENDBRANCH   7  36
TORSDOF 10
