REMARK  Name = ZINC08579694
REMARK  5 active torsions:
REMARK  status: ('A' for Active; 'I' for Inactive)
REMARK    1  A    between atoms: C_2  and  C_21
REMARK    2  A    between atoms: N_7  and  C_8
REMARK    3  A    between atoms: C_8  and  C_9
REMARK    4  A    between atoms: C_12  and  C_15
REMARK    5  A    between atoms: N_19  and  O_20
REMARK                            x       y       z     vdW  Elec       q    Type
REMARK                         _______ _______ _______ _____ _____    ______ ____
ROOT
ATOM      1  C   UNL     1       7.130  -1.934   5.695  0.00  0.00    +0.037 A 
ATOM      2  C   UNL     1       6.632  -0.981   6.573  0.00  0.00    +0.072 A 
ATOM      3  C   UNL     1       5.856   0.050   6.084  0.00  0.00    +0.096 A 
ATOM      4  C   UNL     1       6.038  -0.748   3.926  0.00  0.00    +0.115 A 
ATOM      5  C   UNL     1       6.823  -1.817   4.350  0.00  0.00    +0.079 A 
ATOM      6 CL   UNL     1       7.413  -2.984   3.208  0.00  0.00    -0.080 Cl
ATOM      7  N   UNL     1       5.726  -0.615   2.577  0.00  0.00    -0.326 N 
ATOM      8  H   UNL     1       6.058  -1.263   1.936  0.00  0.00    +0.148 HD
ATOM      9  N   UNL     1       5.538   0.199   4.770  0.00  0.00    -0.348 N 
ATOM     10  H   UNL     1       4.958   0.977   4.434  0.00  0.00    +0.167 HD
ENDROOT
BRANCH   2  11
ATOM     11  C   UNL     1       6.935  -1.072   8.047  0.00  0.00    +0.419 C 
ATOM     12  F   UNL     1       6.325  -0.005   8.715  0.00  0.00    -0.166 F 
ATOM     13  F   UNL     1       6.443  -2.280   8.551  0.00  0.00    -0.166 F 
ATOM     14  F   UNL     1       8.319  -1.014   8.242  0.00  0.00    -0.166 F 
ENDBRANCH   2  11
BRANCH   7  15
ATOM     15  C   UNL     1       4.896   0.504   2.125  0.00  0.00    +0.150 C 
BRANCH  15  16
ATOM     16  C   UNL     1       4.705   0.417   0.609  0.00  0.00    +0.227 C 
ATOM     17  C   UNL     1       3.807   1.568   0.091  0.00  0.00    +0.113 C 
ATOM     18  C   UNL     1       2.429   0.935   0.093  0.00  0.00    +0.145 C 
ATOM     19  N   UNL     1       2.571  -0.344   0.186  0.00  0.00    -0.084 NA
ATOM     20  O   UNL     1       3.926  -0.743   0.253  0.00  0.00    -0.388 OA
BRANCH  18  21
ATOM     21  C   UNL     1       1.146   1.657  -0.001  0.00  0.00    +0.266 C 
ATOM     22  O   UNL     1       1.136   2.869  -0.085  0.00  0.00    -0.268 OA
ATOM     23  N   UNL     1      -0.015   0.972   0.006  0.00  0.00    -0.269 N 
ATOM     24  C   UNL     1      -1.217   1.651   0.017  0.00  0.00    +0.230 C 
ATOM     25  N   UNL     1      -2.326   0.999   0.122  0.00  0.00    -0.080 NA
ATOM     26  H   UNL     1      -0.006   0.002  -0.000  0.00  0.00    +0.156 HD
BRANCH  25  27
ATOM     27  O   UNL     1      -2.307  -0.401   0.333  0.00  0.00    -0.408 OA
ATOM     28  H   UNL     1      -3.185  -0.801   0.399  0.00  0.00    +0.328 HD
ENDBRANCH  25  27
ENDBRANCH  18  21
ENDBRANCH  15  16
ENDBRANCH   7  15
TORSDOF 5
