REMARK  Name = ZINC16654770
REMARK  12 active torsions:
REMARK  status: ('A' for Active; 'I' for Inactive)
REMARK    1  A    between atoms: C_1  and  C_2
REMARK    2  A    between atoms: C_3  and  C_33
REMARK    3  A    between atoms: N_9  and  N_12
REMARK    4  A    between atoms: C_13  and  C_15
REMARK    5  A    between atoms: C_15  and  S_16
REMARK    6  A    between atoms: S_16  and  C_17
REMARK    7  A    between atoms: C_20  and  C_23
REMARK    8  A    between atoms: N_21  and  C_22
REMARK    9  A    between atoms: C_23  and  O_24
REMARK   10  A    between atoms: O_24  and  C_25
REMARK   11  A    between atoms: C_28  and  O_31
REMARK   12  A    between atoms: O_31  and  C_32
REMARK                            x       y       z     vdW  Elec       q    Type
REMARK                         _______ _______ _______ _____ _____    ______ ____
ROOT
ATOM      1  C   UNL     1       4.394   0.427  -1.165  0.00  0.00    +0.174 C 
ENDROOT
BRANCH   1   3
ATOM      2  N   UNL     1       2.357   1.227  -0.014  0.00  0.00    -0.218 N 
ATOM      3  C   UNL     1       3.081   1.166  -1.149  0.00  0.00    +0.241 C 
ATOM      4  O   UNL     1       2.676   1.706  -2.156  0.00  0.00    -0.273 OA
ATOM      5  H   UNL     1       2.680   0.795   0.792  0.00  0.00    +0.176 HD
BRANCH   2  14
ATOM      6  C   UNL     1      -2.863  -0.078   0.016  0.00  0.00    +0.045 C 
ATOM      7  C   UNL     1      -2.614   1.409   0.022  0.00  0.00    -0.026 A 
ATOM      8  C   UNL     1      -3.644   2.270   0.031  0.00  0.00    -0.008 A 
ATOM      9  S   UNL     1      -2.848   3.865   0.049  0.00  0.00    -0.073 S 
ATOM     10  C   UNL     1      -1.157   3.329   0.030  0.00  0.00    +0.116 A 
ATOM     11  C   UNL     1      -1.259   1.926   0.018  0.00  0.00    +0.077 A 
ATOM     12  C   UNL     1      -0.015   1.215   0.009  0.00  0.00    +0.280 A 
ATOM     13  O   UNL     1       0.002  -0.004   0.002  0.00  0.00    -0.265 OA
ATOM     14  N   UNL     1       1.136   1.914   0.002  0.00  0.00    -0.212 N 
ATOM     15  C   UNL     1       1.137   3.272   0.008  0.00  0.00    +0.223 A 
ATOM     16  N   UNL     1       0.019   3.949   0.022  0.00  0.00    -0.228 NA
ATOM     17  C   UNL     1      -5.120   1.962   0.035  0.00  0.00    +0.052 C 
ENDBRANCH   2  14
ENDBRANCH   1   3
BRANCH   1  18
ATOM     18  S   UNL     1       5.121   0.525  -2.820  0.00  0.00    -0.077 S 
BRANCH  18  19
ATOM     19  C   UNL     1       6.601  -0.394  -2.559  0.00  0.00    +0.192 A 
ATOM     20  N   UNL     1       6.983  -0.957  -1.436  0.00  0.00    -0.122 NA
ATOM     21  N   UNL     1       8.113  -1.545  -1.604  0.00  0.00    -0.130 NA
ATOM     22  C   UNL     1       8.517  -1.395  -2.834  0.00  0.00    +0.172 A 
ATOM     23  N   UNL     1       7.566  -0.661  -3.488  0.00  0.00    -0.306 N 
ATOM     24  C   UNL     1       7.580  -0.245  -4.893  0.00  0.00    +0.153 C 
BRANCH  22  25
ATOM     25  C   UNL     1       9.793  -1.934  -3.428  0.00  0.00    +0.305 C 
BRANCH  25  26
ATOM     26  O   UNL     1       9.555  -3.237  -3.964  0.00  0.00    -0.484 OA
BRANCH  26  27
ATOM     27  C   UNL     1      10.611  -3.870  -4.541  0.00  0.00    +0.121 A 
ATOM     28  C   UNL     1      11.849  -3.245  -4.594  0.00  0.00    +0.049 A 
ATOM     29  C   UNL     1      12.923  -3.889  -5.176  0.00  0.00    +0.049 A 
ATOM     30  C   UNL     1      12.762  -5.157  -5.717  0.00  0.00    +0.120 A 
ATOM     31  C   UNL     1      11.523  -5.779  -5.668  0.00  0.00    +0.049 A 
ATOM     32  C   UNL     1      10.450  -5.137  -5.082  0.00  0.00    +0.049 A 
BRANCH  30  33
ATOM     33  O   UNL     1      13.818  -5.789  -6.294  0.00  0.00    -0.495 OA
ATOM     34  C   UNL     1      15.064  -5.089  -6.309  0.00  0.00    +0.277 C 
ENDBRANCH  30  33
ENDBRANCH  26  27
ENDBRANCH  25  26
ENDBRANCH  22  25
ENDBRANCH  18  19
ENDBRANCH   1  18
TORSDOF 8
