REMARK  Name = ZINC43093098
REMARK  8 active torsions:
REMARK  status: ('A' for Active; 'I' for Inactive)
REMARK    1  A    between atoms: C_1  and  C_2
REMARK    2  A    between atoms: C_2  and  C_4
REMARK    3  A    between atoms: C_2  and  N_22
REMARK    4  A    between atoms: C_4  and  C_6
REMARK    5  A    between atoms: C_4  and  N_13
REMARK    6  A    between atoms: N_13  and  C_14
REMARK    7  A    between atoms: N_13  and  C_15
REMARK    8  A    between atoms: C_15  and  C_16
REMARK                            x       y       z     vdW  Elec       q    Type
REMARK                         _______ _______ _______ _____ _____    ______ ____
ROOT
ATOM      1  C   UNL     1       0.602  -0.853   1.278  0.00  0.00    +0.073 C 
ENDROOT
BRANCH   1   2
ATOM      2  C   UNL     1       0.120  -2.280   1.325  0.00  0.00    -0.018 A 
ATOM      3  C   UNL     1      -1.045  -2.595   1.998  0.00  0.00    +0.006 A 
ATOM      4  C   UNL     1      -1.488  -3.904   2.040  0.00  0.00    +0.000 A 
ATOM      5  C   UNL     1      -0.765  -4.899   1.408  0.00  0.00    +0.001 A 
ATOM      6  C   UNL     1       0.401  -4.585   0.735  0.00  0.00    +0.015 A 
ATOM      7  C   UNL     1       0.841  -3.275   0.688  0.00  0.00    +0.022 A 
ATOM      8 BR   UNL     1       2.432  -2.844  -0.239  0.00  0.00    -0.050 Br
ENDBRANCH   1   2
BRANCH   1  10
ATOM      9  C   UNL     1       0.673   1.224  -0.108  0.00  0.00    -0.012 C 
ATOM     10  C   UNL     1       0.065  -0.174   0.017  0.00  0.00    -0.056 C 
BRANCH  10  11
ATOM     11  N   UNL     1       0.426  -0.973  -1.161  0.00  0.00    +0.381 N 
ATOM     12  H   UNL     1       1.431  -1.047  -1.222  0.00  0.00    -0.090 HD
ATOM     13  H   UNL     1       0.025  -1.895  -1.079  0.00  0.00    -0.090 HD
ATOM     14  H   UNL     1       0.072  -0.524  -1.993  0.00  0.00    -0.090 HD
ENDBRANCH  10  11
ENDBRANCH   1  10
BRANCH   1  15
ATOM     15  N   UNL     1       0.119  -0.135   2.465  0.00  0.00    -0.295 NA
ATOM     16  C   UNL     1      -1.228   0.406   2.242  0.00  0.00    +0.105 C 
BRANCH  15  17
ATOM     17  C   UNL     1       1.056   0.928   2.854  0.00  0.00    +0.127 C 
BRANCH  17  18
ATOM     18  C   UNL     1       0.760   1.367   4.265  0.00  0.00    +0.005 A 
ATOM     19  C   UNL     1       1.268   0.894   5.430  0.00  0.00    +0.027 A 
ATOM     20  C   UNL     1       0.846   1.455   6.622  0.00  0.00    +0.025 A 
ATOM     21  C   UNL     1      -0.063   2.461   6.589  0.00  0.00    +0.060 A 
ATOM     22  S   UNL     1      -0.344   2.648   4.836  0.00  0.00    -0.099 S 
ATOM     23 BR   UNL     1       1.526   0.828   8.271  0.00  0.00    -0.050 Br
ENDBRANCH  17  18
ENDBRANCH  15  17
ENDBRANCH   1  15
TORSDOF 6
