REMARK  Name = ZINC05723504
REMARK  10 active torsions:
REMARK  status: ('A' for Active; 'I' for Inactive)
REMARK    1  A    between atoms: C_1  and  C_2
REMARK    2  A    between atoms: C_4  and  C_22
REMARK    3  A    between atoms: C_6  and  C_13
REMARK    4  A    between atoms: C_8  and  C_12
REMARK    5  A    between atoms: C_16  and  O_21
REMARK    6  A    between atoms: C_17  and  O_19
REMARK    7  A    between atoms: O_19  and  C_20
REMARK    8  A    between atoms: C_25  and  O_30
REMARK    9  A    between atoms: C_26  and  O_28
REMARK   10  A    between atoms: O_28  and  C_29
REMARK                            x       y       z     vdW  Elec       q    Type
REMARK                         _______ _______ _______ _____ _____    ______ ____
ROOT
ATOM      1  C   UNL     1       3.092   1.771   2.303  0.00  0.00    +0.014 C 
ATOM      2  C   UNL     1       2.825   0.565   1.401  0.00  0.00    +0.043 C 
ATOM      3  C   UNL     1       2.489   1.043  -0.017  0.00  0.00    -0.030 C 
ATOM      4  C   UNL     1       3.679  -0.799  -1.061  0.00  0.00    -0.030 C 
ATOM      5  C   UNL     1       4.096  -1.402   0.285  0.00  0.00    +0.043 C 
ATOM      6  C   UNL     1       4.064  -0.303   1.327  0.00  0.00    +0.136 C 
ATOM      7  O   UNL     1       4.996  -0.125   2.074  0.00  0.00    -0.297 OA
ATOM      8  C   UNL     1       3.119  -2.513   0.677  0.00  0.00    +0.014 C 
ATOM      9  N   UNL     1       2.375  -0.121  -0.918  0.00  0.00    +0.389 N 
ATOM     10  H   UNL     1       2.057   0.197  -1.841  0.00  0.00    -0.084 HD
ATOM     11  H   UNL     1       1.692  -0.782  -0.530  0.00  0.00    -0.084 HD
ENDROOT
BRANCH   4  12
ATOM     12  C   UNL     1       3.553  -1.896  -2.086  0.00  0.00    -0.057 A 
ATOM     13  C   UNL     1       2.416  -2.682  -2.119  0.00  0.00    +0.006 A 
ATOM     14  C   UNL     1       2.292  -3.686  -3.061  0.00  0.00    +0.049 A 
ATOM     15  C   UNL     1       3.315  -3.915  -3.967  0.00  0.00    +0.158 A 
ATOM     16  C   UNL     1       4.462  -3.127  -3.931  0.00  0.00    +0.161 A 
ATOM     17  C   UNL     1       4.576  -2.119  -2.988  0.00  0.00    +0.051 A 
BRANCH  16  18
ATOM     18  O   UNL     1       5.468  -3.348  -4.819  0.00  0.00    -0.491 OA
ATOM     19  C   UNL     1       6.616  -2.502  -4.722  0.00  0.00    +0.277 C 
ENDBRANCH  16  18
BRANCH  15  20
ATOM     20  O   UNL     1       3.198  -4.906  -4.891  0.00  0.00    -0.503 OA
ATOM     21  H   UNL     1       3.537  -5.762  -4.594  0.00  0.00    +0.292 HD
ENDBRANCH  15  20
ENDBRANCH   4  12
BRANCH   3  22
ATOM     22  C   UNL     1       1.176   1.782   0.000  0.00  0.00    -0.057 A 
ATOM     23  C   UNL     1      -0.013   1.076   0.008  0.00  0.00    +0.006 A 
ATOM     24  C   UNL     1      -1.220   1.749   0.017  0.00  0.00    +0.049 A 
ATOM     25  C   UNL     1      -1.240   3.135   0.031  0.00  0.00    +0.158 A 
ATOM     26  C   UNL     1      -0.044   3.845   0.023  0.00  0.00    +0.161 A 
ATOM     27  C   UNL     1       1.163   3.164   0.008  0.00  0.00    +0.051 A 
BRANCH  26  28
ATOM     28  O   UNL     1      -0.059   5.205   0.031  0.00  0.00    -0.491 OA
ATOM     29  C   UNL     1       1.207   5.868   0.023  0.00  0.00    +0.277 C 
ENDBRANCH  26  28
BRANCH  25  30
ATOM     30  O   UNL     1      -2.427   3.799   0.046  0.00  0.00    -0.503 OA
ATOM     31  H   UNL     1      -2.779   3.995  -0.833  0.00  0.00    +0.292 HD
ENDBRANCH  25  30
ENDBRANCH   3  22
TORSDOF 6
