REMARK  Name = ZINC46011100
REMARK  7 active torsions:
REMARK  status: ('A' for Active; 'I' for Inactive)
REMARK    1  A    between atoms: C_1  and  C_2
REMARK    2  A    between atoms: C_7  and  C_10
REMARK    3  A    between atoms: C_14  and  C_17
REMARK    4  A    between atoms: C_17  and  N_18
REMARK    5  A    between atoms: N_21  and  C_22
REMARK    6  A    between atoms: C_27  and  C_28
REMARK    7  A    between atoms: C_28  and  C_29
REMARK                            x       y       z     vdW  Elec       q    Type
REMARK                         _______ _______ _______ _____ _____    ______ ____
ROOT
ATOM      1  N   UNL     1      -3.364  -5.803  -4.364  0.00  0.00    -0.295 N 
ATOM      2  C   UNL     1      -3.831  -6.636  -5.316  0.00  0.00    +0.304 C 
ATOM      3  O   UNL     1      -4.933  -7.136  -5.198  0.00  0.00    -0.252 OA
ATOM      4  N   UNL     1      -3.077  -6.914  -6.397  0.00  0.00    -0.269 N 
ATOM      5  H   UNL     1      -2.485  -5.404  -4.458  0.00  0.00    +0.151 HD
ATOM      6  H   UNL     1      -2.176  -6.561  -6.464  0.00  0.00    +0.156 HD
ENDROOT
BRANCH   4   7
ATOM      7  C   UNL     1      -3.594  -7.712  -7.424  0.00  0.00    +0.038 A 
ATOM      8  C   UNL     1      -4.600  -8.631  -7.152  0.00  0.00    +0.023 A 
ATOM      9  C   UNL     1      -5.108  -9.416  -8.168  0.00  0.00    +0.002 A 
ATOM     10  C   UNL     1      -4.617  -9.290  -9.454  0.00  0.00    +0.000 A 
ATOM     11  C   UNL     1      -3.615  -8.377  -9.728  0.00  0.00    +0.006 A 
ATOM     12  C   UNL     1      -3.107  -7.584  -8.718  0.00  0.00    -0.017 A 
BRANCH  12  13
ATOM     13  C   UNL     1      -2.019  -6.584  -9.018  0.00  0.00    +0.132 C 
BRANCH  13  14
ATOM     14  C   UNL     1      -0.676  -7.202  -8.728  0.00  0.00    +0.215 C 
ATOM     15  O   UNL     1      -0.608  -8.341  -8.318  0.00  0.00    -0.276 OA
ATOM     16  N   UNL     1       0.451  -6.488  -8.924  0.00  0.00    -0.329 N 
ATOM     17  H   UNL     1       0.396  -5.577  -9.253  0.00  0.00    +0.145 HD
ATOM     18  H   UNL     1       1.315  -6.885  -8.738  0.00  0.00    +0.145 HD
ENDBRANCH  13  14
ENDBRANCH  12  13
ENDBRANCH   4   7
BRANCH   1  19
ATOM     19  C   UNL     1      -4.184  -5.500  -3.188  0.00  0.00    +0.142 C 
BRANCH  19  31
ATOM     20  C   UNL     1      -0.010  -2.315   3.777  0.00  0.00    +0.039 C 
ATOM     21  C   UNL     1      -0.944  -1.891   2.641  0.00  0.00    +0.133 C 
ATOM     22  C   UNL     1      -0.560  -2.637   1.358  0.00  0.00    +0.137 C 
ATOM     23  N   UNL     1      -1.343  -2.078   0.245  0.00  0.00    -0.312 N 
ATOM     24  C   UNL     1      -1.350  -0.617   0.069  0.00  0.00    +0.137 C 
ATOM     25  C   UNL     1      -1.695   0.030   1.415  0.00  0.00    +0.133 C 
ATOM     26  O   UNL     1      -0.822  -0.484   2.424  0.00  0.00    -0.371 OA
ATOM     27  C   UNL     1      -3.145  -0.294   1.782  0.00  0.00    +0.039 C 
ATOM     28  C   UNL     1      -2.055  -2.905  -0.616  0.00  0.00    +0.099 A 
ATOM     29  C   UNL     1      -2.871  -2.344  -1.594  0.00  0.00    +0.042 A 
ATOM     30  C   UNL     1      -3.573  -3.179  -2.443  0.00  0.00    +0.010 A 
ATOM     31  C   UNL     1      -3.437  -4.553  -2.286  0.00  0.00    -0.014 A 
ATOM     32  C   UNL     1      -2.610  -5.040  -1.294  0.00  0.00    +0.089 A 
ATOM     33  N   UNL     1      -1.947  -4.220  -0.501  0.00  0.00    -0.349 N 
ATOM     34  H   UNL     1      -1.370  -4.589   0.186  0.00  0.00    +0.167 HD
ENDBRANCH  19  31
ENDBRANCH   1  19
TORSDOF 5
