REMARK  Name = ZINC39560344
REMARK  5 active torsions:
REMARK  status: ('A' for Active; 'I' for Inactive)
REMARK    1  A    between atoms: C_1  and  C_2
REMARK    2  A    between atoms: C_7  and  N_8
REMARK    3  A    between atoms: N_8  and  S_9
REMARK    4  A    between atoms: S_9  and  C_12
REMARK    5  A    between atoms: CA_15  and  C_18
REMARK                            x       y       z     vdW  Elec       q    Type
REMARK                         _______ _______ _______ _____ _____    ______ ____
ROOT
ATOM      1  S   UNL     1       0.051  -0.854   3.843  0.00  0.00    +0.074 S 
ATOM      2  O   UNL     1      -1.175  -1.573   3.863  0.00  0.00    -0.153 OA
ATOM      3  O   UNL     1       1.294  -1.541   3.839  0.00  0.00    -0.153 OA
ENDROOT
BRANCH   1   4
ATOM      4  C   UNL     1       0.046   0.422   5.133  0.00  0.00    +0.219 C 
ATOM      5  C   UNL     1       0.009  -0.209   6.512  0.00  0.00    +0.041 C 
ATOM      6  CA  UNL     1      -1.139   0.227   7.064  0.00  0.00    +0.150 C 
ATOM      7  N   UNL     1      -1.827   1.046   6.219  0.00  0.00    -0.251 NA
ATOM      8  C   UNL     1      -1.237   1.228   5.085  0.00  0.00    +0.116 C 
BRANCH   6   9
ATOM      9  C   UNL     1      -1.596  -0.137   8.418  0.00  0.00    +0.404 C 
ATOM     10  O   UNL     1      -0.918  -0.879   9.114  0.00  0.00    -0.239 OA
ATOM     11  OXT UNL     1      -2.655   0.304   8.845  0.00  0.00    -0.239 OA
ENDBRANCH   6   9
ENDBRANCH   1   4
BRANCH   1  12
ATOM     12  N   UNL     1       0.026  -0.016   2.415  0.00  0.00    -0.101 NA
BRANCH  12  19
ATOM     13  C   UNL     1      -0.018   1.503   0.010  0.00  0.00    +0.046 C 
ATOM     14  C   UNL     1       0.002  -0.004   0.002  0.00  0.00    -0.026 A 
ATOM     15  C   UNL     1       0.006  -0.689  -1.198  0.00  0.00    +0.007 A 
ATOM     16  C   UNL     1       0.024  -2.071  -1.207  0.00  0.00    +0.020 A 
ATOM     17  C   UNL     1       0.040  -2.774  -0.014  0.00  0.00    +0.043 A 
ATOM     18  C   UNL     1       0.035  -2.095   1.189  0.00  0.00    +0.047 A 
ATOM     19  C   UNL     1       0.023  -0.706   1.201  0.00  0.00    +0.078 A 
ATOM     20 CL   UNL     1       0.063  -4.509  -0.031  0.00  0.00    -0.083 Cl
ENDBRANCH  12  19
ENDBRANCH   1  12
TORSDOF 4
