REMARK  Name = ZINC66977758
REMARK  8 active torsions:
REMARK  status: ('A' for Active; 'I' for Inactive)
REMARK    1  A    between atoms: C_1  and  C_2
REMARK    2  A    between atoms: C_2  and  C_3
REMARK    3  A    between atoms: C_2  and  N_4
REMARK    4  A    between atoms: C_7  and  C_10
REMARK    5  A    between atoms: C_10  and  N_11
REMARK    6  A    between atoms: N_14  and  N_15
REMARK    7  A    between atoms: C_16  and  C_18
REMARK    8  A    between atoms: C_18  and  C_19
REMARK                            x       y       z     vdW  Elec       q    Type
REMARK                         _______ _______ _______ _____ _____    ______ ____
ROOT
ATOM      1  N   UNL     1      -4.674  -3.702  -0.826  0.00  0.00    -0.298 N 
ATOM      2  C   UNL     1      -5.669  -4.432  -0.284  0.00  0.00    +0.316 C 
ATOM      3  O   UNL     1      -5.645  -4.707   0.900  0.00  0.00    -0.251 OA
ATOM      4  N   UNL     1      -6.690  -4.856  -1.054  0.00  0.00    -0.218 N 
ATOM      5  H   UNL     1      -4.693  -3.482  -1.771  0.00  0.00    +0.150 HD
ATOM      6  H   UNL     1      -7.406  -5.382  -0.664  0.00  0.00    +0.174 HD
ENDROOT
BRANCH   4   7
ATOM      7  N   UNL     1      -6.717  -4.539  -2.418  0.00  0.00    -0.233 N 
ATOM      8  C   UNL     1      -7.739  -4.963  -3.189  0.00  0.00    +0.234 C 
ATOM      9  O   UNL     1      -8.634  -5.620  -2.701  0.00  0.00    -0.274 OA
ATOM     10  H   UNL     1      -6.001  -4.013  -2.809  0.00  0.00    +0.173 HD
BRANCH   8  11
ATOM     11  C   UNL     1      -7.768  -4.622  -4.656  0.00  0.00    +0.135 C 
BRANCH  11  12
ATOM     12  C   UNL     1      -9.005  -5.210  -5.284  0.00  0.00    -0.003 A 
ATOM     13  C   UNL     1      -8.945  -6.444  -5.904  0.00  0.00    +0.007 A 
ATOM     14  C   UNL     1     -10.080  -6.984  -6.481  0.00  0.00    +0.000 A 
ATOM     15  C   UNL     1     -11.276  -6.292  -6.437  0.00  0.00    +0.003 A 
ATOM     16  C   UNL     1     -11.338  -5.058  -5.817  0.00  0.00    +0.038 A 
ATOM     17  C   UNL     1     -10.203  -4.518  -5.235  0.00  0.00    +0.127 A 
ATOM     18  F   UNL     1     -10.264  -3.315  -4.624  0.00  0.00    -0.205 F 
ENDBRANCH  11  12
ENDBRANCH   8  11
ENDBRANCH   4   7
BRANCH   1  19
ATOM     19  C   UNL     1      -3.564  -3.241   0.011  0.00  0.00    +0.107 C 
BRANCH  19  23
ATOM     20  N   UNL     1      -1.376  -0.512   0.012  0.00  0.00    +0.381 N 
ATOM     21  C   UNL     1      -2.083  -0.102  -1.228  0.00  0.00    -0.078 C 
ATOM     22  C   UNL     1      -3.236  -1.131  -1.335  0.00  0.00    -0.015 C 
ATOM     23  C   UNL     1      -2.579  -2.440  -0.843  0.00  0.00    -0.012 C 
ATOM     24  C   UNL     1      -1.374  -1.992   0.004  0.00  0.00    -0.074 C 
ATOM     25  H   UNL     1      -1.868  -0.170   0.824  0.00  0.00    -0.081 HD
BRANCH  20  27
ATOM     26  C   UNL     1      -0.019   1.526   0.010  0.00  0.00    -0.014 C 
ATOM     27  C   UNL     1       0.002  -0.004   0.002  0.00  0.00    -0.075 C 
ATOM     28  C   UNL     1       0.742  -0.511   1.242  0.00  0.00    -0.014 C 
ENDBRANCH  20  27
ENDBRANCH  19  23
ENDBRANCH   1  19
TORSDOF 6
