REMARK  Name = ZINC39660245
REMARK  8 active torsions:
REMARK  status: ('A' for Active; 'I' for Inactive)
REMARK    1  A    between atoms: C_1  and  C_2
REMARK    2  A    between atoms: C_2  and  C_3
REMARK    3  A    between atoms: C_3  and  C_4
REMARK    4  A    between atoms: C_4  and  C_5
REMARK    5  A    between atoms: C_5  and  C_6
REMARK    6  A    between atoms: C_6  and  N_7
REMARK    7  A    between atoms: C_8  and  C_10
REMARK    8  A    between atoms: C_21  and  C_23
REMARK                            x       y       z     vdW  Elec       q    Type
REMARK                         _______ _______ _______ _____ _____    ______ ____
ROOT
ATOM      1  C   UNL     1       3.006  -6.331  -5.199  0.00  0.00    +0.100 C 
ATOM      2  C   UNL     1       2.171  -6.002  -6.457  0.00  0.00    +0.121 C 
ATOM      3  N   UNL     1       2.360  -7.171  -7.348  0.00  0.00    -0.296 N 
ATOM      4  C   UNL     1       2.341  -8.338  -6.434  0.00  0.00    +0.115 C 
ATOM      5  C   UNL     1       3.115  -7.865  -5.187  0.00  0.00    -0.004 C 
ATOM      6  C   UNL     1       2.474  -8.430  -3.923  0.00  0.00    -0.010 C 
ATOM      7  C   UNL     1       2.646  -9.952  -3.905  0.00  0.00    -0.082 C 
ATOM      8  N   UNL     1       4.075 -10.285  -3.945  0.00  0.00    +0.379 N 
ATOM      9  C   UNL     1       4.663  -9.819  -5.206  0.00  0.00    -0.082 C 
ATOM     10  C   UNL     1       4.576  -8.292  -5.279  0.00  0.00    -0.010 C 
ATOM     11  C   UNL     1       2.514  -7.173  -8.687  0.00  0.00    +0.249 C 
ATOM     12  O   UNL     1       2.660  -8.224  -9.280  0.00  0.00    -0.270 OA
ATOM     13  H   UNL     1       4.544  -9.839  -3.171  0.00  0.00    -0.086 HD
ATOM     14  H   UNL     1       4.188 -11.285  -3.871  0.00  0.00    -0.086 HD
ENDROOT
BRANCH  11  15
ATOM     15  C   UNL     1       2.507  -5.899  -9.433  0.00  0.00    +0.073 A 
ATOM     16  C   UNL     1       3.701  -5.208  -9.655  0.00  0.00    +0.054 A 
ATOM     17  C   UNL     1       3.687  -4.017 -10.353  0.00  0.00    +0.021 A 
ATOM     18  C   UNL     1       2.493  -3.507 -10.833  0.00  0.00    +0.003 A 
ATOM     19  C   UNL     1       1.307  -4.185 -10.617  0.00  0.00    +0.021 A 
ATOM     20  C   UNL     1       1.306  -5.380  -9.926  0.00  0.00    +0.054 A 
ATOM     21 CL   UNL     1      -0.182  -6.233  -9.663  0.00  0.00    -0.083 Cl
ATOM     22 CL   UNL     1       5.200  -5.845  -9.052  0.00  0.00    -0.083 Cl
ENDBRANCH  11  15
BRANCH   1  24
ATOM     23  N   UNL     1       3.015  -5.493  -2.872  0.00  0.00    -0.315 N 
ATOM     24  C   UNL     1       2.301  -5.845  -3.959  0.00  0.00    +0.218 C 
ATOM     25  O   UNL     1       1.090  -5.771  -3.940  0.00  0.00    -0.275 OA
ATOM     26  H   UNL     1       3.983  -5.552  -2.888  0.00  0.00    +0.149 HD
BRANCH  23  27
ATOM     27  C   UNL     1       2.329  -5.020  -1.667  0.00  0.00    +0.104 C 
BRANCH  27  28
ATOM     28  C   UNL     1       3.363  -4.689  -0.589  0.00  0.00    +0.019 C 
BRANCH  28  29
ATOM     29  C   UNL     1       2.647  -4.195   0.670  0.00  0.00    +0.002 C 
BRANCH  29  30
ATOM     30  C   UNL     1       3.681  -3.864   1.748  0.00  0.00    -0.000 C 
BRANCH  30  32
ATOM     31  C   UNL     1       3.998  -3.039   4.085  0.00  0.00    +0.004 C 
ATOM     32  C   UNL     1       2.965  -3.371   3.007  0.00  0.00    -0.003 C 
ENDBRANCH  30  32
ENDBRANCH  29  30
ENDBRANCH  28  29
ENDBRANCH  27  28
ENDBRANCH  23  27
ENDBRANCH   1  24
TORSDOF 7
