REMARK  Name = ZINC54805068
REMARK  10 active torsions:
REMARK  status: ('A' for Active; 'I' for Inactive)
REMARK    1  A    between atoms: C_1  and  C_2
REMARK    2  A    between atoms: N_7  and  C_9
REMARK    3  A    between atoms: C_9  and  C_10
REMARK    4  A    between atoms: C_9  and  C_11
REMARK    5  A    between atoms: C_9  and  C_12
REMARK    6  A    between atoms: C_12  and  N_13
REMARK    7  A    between atoms: N_16  and  C_17
REMARK    8  A    between atoms: C_17  and  C_18
REMARK    9  A    between atoms: N_20  and  C_21
REMARK   10  A    between atoms: C_21  and  C_22
REMARK                            x       y       z     vdW  Elec       q    Type
REMARK                         _______ _______ _______ _____ _____    ______ ____
ROOT
ATOM      1  N   UNL     1       2.186  -4.461   1.142  0.00  0.00    -0.301 N 
ATOM      2  C   UNL     1       2.321  -5.782   0.914  0.00  0.00    +0.300 C 
ATOM      3  O   UNL     1       1.924  -6.584   1.738  0.00  0.00    -0.253 OA
ATOM      4  N   UNL     1       2.894  -6.215  -0.226  0.00  0.00    -0.291 N 
ATOM      5  H   UNL     1       2.502  -3.821   0.485  0.00  0.00    +0.150 HD
ATOM      6  H   UNL     1       3.210  -5.575  -0.883  0.00  0.00    +0.151 HD
ENDROOT
BRANCH   1   7
ATOM      7  C   UNL     1       1.562  -3.991   2.382  0.00  0.00    +0.093 C 
BRANCH   7   8
ATOM      8  C   UNL     1       1.534  -2.461   2.390  0.00  0.00    -0.055 C 
ATOM      9  C   UNL     1       2.963  -1.924   2.303  0.00  0.00    -0.008 C 
ATOM     10  C   UNL     1       0.882  -1.970   3.685  0.00  0.00    -0.008 C 
BRANCH   8  16
ATOM     11  C   UNL     1      -0.019   1.526   0.010  0.00  0.00    +0.005 C 
ATOM     12  C   UNL     1       0.002  -0.004   0.002  0.00  0.00    -0.031 C 
ATOM     13  C   UNL     1      -1.434  -0.535   0.015  0.00  0.00    -0.001 C 
ATOM     14  C   UNL     1      -1.402  -2.064   0.086  0.00  0.00    -0.018 C 
ATOM     15  C   UNL     1      -0.613  -2.496   1.324  0.00  0.00    -0.078 C 
ATOM     16  N   UNL     1       0.758  -1.980   1.239  0.00  0.00    +0.384 N 
ATOM     17  C   UNL     1       0.740  -0.512   1.242  0.00  0.00    -0.075 C 
ATOM     18  H   UNL     1       1.188  -2.307   0.386  0.00  0.00    -0.081 HD
ENDBRANCH   8  16
ENDBRANCH   7   8
ENDBRANCH   1   7
BRANCH   4  19
ATOM     19  C   UNL     1       3.041  -7.651  -0.473  0.00  0.00    +0.201 C 
BRANCH  19  20
ATOM     20  C   UNL     1       3.707  -7.865  -1.808  0.00  0.00    +0.231 C 
ATOM     21  O   UNL     1       4.029  -6.912  -2.485  0.00  0.00    -0.274 OA
ATOM     22  N   UNL     1       3.946  -9.117  -2.248  0.00  0.00    -0.307 N 
ATOM     23  H   UNL     1       3.689  -9.879  -1.706  0.00  0.00    +0.149 HD
BRANCH  22  24
ATOM     24  C   UNL     1       4.595  -9.325  -3.546  0.00  0.00    +0.178 C 
BRANCH  24  25
ATOM     25  C   UNL     1       4.745 -10.803  -3.800  0.00  0.00    +0.122 A 
ATOM     26  C   UNL     1       3.849 -11.589  -4.423  0.00  0.00    +0.046 A 
ATOM     27  C   UNL     1       4.392 -12.894  -4.443  0.00  0.00    +0.041 A 
ATOM     28  C   UNL     1       5.588 -12.827  -3.831  0.00  0.00    +0.195 A 
ATOM     29  O   UNL     1       5.799 -11.557  -3.448  0.00  0.00    -0.466 OA
ENDBRANCH  24  25
ENDBRANCH  22  24
ENDBRANCH  19  20
ENDBRANCH   4  19
TORSDOF 7
