REMARK  Name = ZINC46585951
REMARK  10 active torsions:
REMARK  status: ('A' for Active; 'I' for Inactive)
REMARK    1  A    between atoms: C_1  and  C_2
REMARK    2  A    between atoms: C_4  and  C_31
REMARK    3  A    between atoms: C_8  and  N_30
REMARK    4  A    between atoms: C_9  and  C_11
REMARK    5  A    between atoms: C_11  and  O_13
REMARK    6  A    between atoms: O_13  and  C_14
REMARK    7  A    between atoms: C_14  and  C_15
REMARK    8  A    between atoms: C_18  and  C_20
REMARK    9  A    between atoms: C_23  and  O_26
REMARK   10  A    between atoms: O_26  and  C_27
REMARK                            x       y       z     vdW  Elec       q    Type
REMARK                         _______ _______ _______ _____ _____    ______ ____
ROOT
ATOM      1  O   UNL     1       2.697  -1.721   4.914  0.00  0.00    -0.451 OA
ENDROOT
BRANCH   1   2
ATOM      2  C   UNL     1       1.979  -0.745   4.319  0.00  0.00    +0.348 C 
ATOM      3  O   UNL     1       2.116   0.412   4.672  0.00  0.00    -0.244 OA
BRANCH   2  12
ATOM      4  C   UNL     1      -1.696   1.372   0.766  0.00  0.00    +0.044 C 
ATOM      5  C   UNL     1      -1.521  -0.123   0.688  0.00  0.00    -0.037 A 
ATOM      6  C   UNL     1      -2.240  -0.864  -0.221  0.00  0.00    +0.025 A 
ATOM      7  C   UNL     1      -2.078  -2.239  -0.290  0.00  0.00    +0.014 A 
ATOM      8  N   UNL     1      -1.231  -2.853   0.513  0.00  0.00    -0.353 N 
ATOM      9  C   UNL     1      -0.520  -2.189   1.399  0.00  0.00    +0.088 A 
ATOM     10  C   UNL     1      -0.609  -0.786   1.546  0.00  0.00    +0.030 A 
ATOM     11  C   UNL     1       0.254  -0.216   2.569  0.00  0.00    +0.055 A 
ATOM     12  C   UNL     1       1.067  -1.067   3.287  0.00  0.00    +0.119 A 
ATOM     13  S   UNL     1       0.683  -2.671   2.612  0.00  0.00    -0.062 S 
ATOM     14  C   UNL     1      -2.873  -3.037  -1.291  0.00  0.00    +0.063 C 
ATOM     15  H   UNL     1      -1.131  -3.816   0.450  0.00  0.00    +0.166 HD
BRANCH  11  16
ATOM     16  N   UNL     1       0.258   1.149   2.816  0.00  0.00    -0.356 N 
ATOM     17  H   UNL     1       0.106   1.774   2.090  0.00  0.00    +0.142 HD
ATOM     18  H   UNL     1       0.414   1.479   3.715  0.00  0.00    +0.142 HD
ENDBRANCH  11  16
ENDBRANCH   2  12
ENDBRANCH   1   2
BRANCH   1  19
ATOM     19  C   UNL     1       3.599  -1.324   5.949  0.00  0.00    +0.328 C 
BRANCH  19  20
ATOM     20  C   UNL     1       4.308  -2.539   6.491  0.00  0.00    +0.257 C 
ATOM     21  O   UNL     1       4.064  -3.636   6.035  0.00  0.00    -0.272 OA
ATOM     22  N   UNL     1       5.212  -2.406   7.481  0.00  0.00    -0.250 N 
ATOM     23  C   UNL     1       5.846  -3.492   7.966  0.00  0.00    +0.250 C 
ATOM     24  O   UNL     1       5.602  -4.592   7.509  0.00  0.00    -0.270 OA
ATOM     25  H   UNL     1       5.407  -1.528   7.845  0.00  0.00    +0.158 HD
BRANCH  23  26
ATOM     26  C   UNL     1       6.835  -3.346   9.050  0.00  0.00    +0.037 A 
ATOM     27  C   UNL     1       7.113  -2.083   9.580  0.00  0.00    +0.016 A 
ATOM     28  C   UNL     1       8.037  -1.951  10.592  0.00  0.00    +0.046 A 
ATOM     29  C   UNL     1       8.694  -3.072  11.086  0.00  0.00    +0.127 A 
ATOM     30  C   UNL     1       8.421  -4.330  10.561  0.00  0.00    +0.046 A 
ATOM     31  C   UNL     1       7.494  -4.472   9.554  0.00  0.00    +0.016 A 
BRANCH  29  32
ATOM     32  O   UNL     1       9.605  -2.938  12.083  0.00  0.00    -0.434 OA
BRANCH  32  33
ATOM     33  C   UNL     1      10.243  -4.131  12.543  0.00  0.00    +0.541 C 
ATOM     34  F   UNL     1       9.278  -5.017  13.033  0.00  0.00    -0.166 F 
ATOM     35  F   UNL     1      10.932  -4.731  11.483  0.00  0.00    -0.166 F 
ENDBRANCH  32  33
ENDBRANCH  29  32
ENDBRANCH  23  26
ENDBRANCH  19  20
ENDBRANCH   1  19
TORSDOF 8
