REMARK  Name = ZINC67175123
REMARK  5 active torsions:
REMARK  status: ('A' for Active; 'I' for Inactive)
REMARK    1  A    between atoms: C_3  and  C_9
REMARK    2  A    between atoms: N_11  and  C_12
REMARK    3  A    between atoms: C_15  and  N_18
REMARK    4  A    between atoms: C_19  and  C_21
REMARK    5  A    between atoms: C_21  and  N_22
REMARK                            x       y       z     vdW  Elec       q    Type
REMARK                         _______ _______ _______ _____ _____    ______ ____
ROOT
ATOM      1  C   UNL     1       5.988   2.180   0.179  0.00  0.00    +0.034 A 
ATOM      2  C   UNL     1       6.123   3.350  -0.557  0.00  0.00    +0.025 A 
ATOM      3  C   UNL     1       7.297   4.074  -0.495  0.00  0.00    +0.025 A 
ATOM      4  C   UNL     1       8.344   3.632   0.304  0.00  0.00    +0.033 A 
ATOM      5  C   UNL     1       8.209   2.462   1.040  0.00  0.00    +0.025 A 
ATOM      6  C   UNL     1       7.033   1.742   0.983  0.00  0.00    +0.025 A 
ENDROOT
BRANCH   1   9
ATOM      7  C   UNL     1       4.088   1.410  -1.029  0.00  0.00    +0.251 C 
ATOM      8  O   UNL     1       4.540   1.913  -2.041  0.00  0.00    -0.270 OA
ATOM      9  N   UNL     1       4.798   1.446   0.116  0.00  0.00    -0.281 N 
ATOM     10  H   UNL     1       4.484   0.964   0.897  0.00  0.00    +0.155 HD
BRANCH   7  13
ATOM     11  C   UNL     1       0.934  -0.322   0.053  0.00  0.00    +0.018 A 
ATOM     12  C   UNL     1       2.188   0.287   0.117  0.00  0.00    +0.017 A 
ATOM     13  C   UNL     1       2.768   0.762  -1.056  0.00  0.00    +0.068 A 
ATOM     14  C   UNL     1       2.064   0.612  -2.278  0.00  0.00    +0.096 A 
ATOM     15  S   UNL     1       2.747   1.184  -3.740  0.00  0.00    -0.032 S 
ATOM     16  N   UNL     1       0.856   0.017  -2.285  0.00  0.00    -0.355 N 
ATOM     17  H   UNL     1       0.378  -0.084  -3.123  0.00  0.00    +0.166 HD
ATOM     18  C   UNL     1       0.297  -0.444  -1.140  0.00  0.00    +0.083 A 
ENDBRANCH   7  13
ENDBRANCH   1   9
BRANCH   4  19
ATOM     19  N   UNL     1       9.535   4.366   0.366  0.00  0.00    -0.287 N 
ATOM     20  C   UNL     1      10.718   3.724   0.440  0.00  0.00    +0.201 C 
ATOM     21  O   UNL     1      10.760   2.516   0.347  0.00  0.00    -0.278 OA
ATOM     22  H   UNL     1       9.509   5.335   0.356  0.00  0.00    +0.155 HD
BRANCH  20  23
ATOM     23  C   UNL     1      11.989   4.509   0.638  0.00  0.00    +0.019 C 
BRANCH  23  24
ATOM     24  N   UNL     1      13.132   3.587   0.685  0.00  0.00    +0.385 N 
ATOM     25  C   UNL     1      13.274   2.920  -0.616  0.00  0.00    -0.078 C 
ATOM     26  C   UNL     1      14.646   2.257  -0.726  0.00  0.00    -0.019 C 
ATOM     27  C   UNL     1      14.651   0.957   0.086  0.00  0.00    -0.002 C 
ATOM     28  C   UNL     1      14.724   1.310   1.573  0.00  0.00    -0.000 C 
ATOM     29  C   UNL     1      15.754   2.422   1.773  0.00  0.00    -0.002 C 
ATOM     30  C   UNL     1      15.047   3.703   2.209  0.00  0.00    -0.019 C 
ATOM     31  C   UNL     1      14.354   4.340   0.998  0.00  0.00    -0.078 C 
ATOM     32  H   UNL     1      12.974   2.893   1.400  0.00  0.00    -0.081 HD
ENDBRANCH  23  24
ENDBRANCH  20  23
ENDBRANCH   4  19
TORSDOF 5
