REMARK  Name = ZINC21775570
REMARK  11 active torsions:
REMARK  status: ('A' for Active; 'I' for Inactive)
REMARK    1  A    between atoms: C_1  and  C_2
REMARK    2  A    between atoms: C_2  and  C_3
REMARK    3  A    between atoms: N_5  and  C_6
REMARK    4  A    between atoms: C_9  and  S_12
REMARK    5  A    between atoms: S_12  and  N_15
REMARK    6  A    between atoms: N_15  and  C_16
REMARK    7  A    between atoms: C_16  and  C_17
REMARK    8  A    between atoms: C_17  and  C_19
REMARK    9  A    between atoms: C_17  and  N_30
REMARK   10  A    between atoms: N_28  and  C_29
REMARK   11  A    between atoms: N_33  and  C_36
REMARK                            x       y       z     vdW  Elec       q    Type
REMARK                         _______ _______ _______ _____ _____    ______ ____
ROOT
ATOM      1  C   UNL     1       3.758   6.130   4.839  0.00  0.00    +0.102 C 
ENDROOT
BRANCH   1   2
ATOM      2  C   UNL     1       5.123   5.688   5.300  0.00  0.00    -0.029 A 
ATOM      3  C   UNL     1       6.115   5.423   4.373  0.00  0.00    +0.007 A 
ATOM      4  C   UNL     1       7.364   5.022   4.796  0.00  0.00    +0.024 A 
ATOM      5  C   UNL     1       7.633   4.869   6.158  0.00  0.00    +0.033 A 
ATOM      6  C   UNL     1       6.636   5.134   7.081  0.00  0.00    -0.026 A 
ATOM      7  C   UNL     1       5.384   5.542   6.647  0.00  0.00    +0.010 A 
ATOM      8  C   UNL     1       6.865   4.998   8.565  0.00  0.00    +0.038 C 
ATOM      9  C   UNL     1       8.140   4.190   8.818  0.00  0.00    +0.024 C 
ATOM     10  C   UNL     1       9.243   4.754   7.914  0.00  0.00    +0.105 C 
ATOM     11  N   UNL     1       8.910   4.446   6.521  0.00  0.00    -0.333 N 
ATOM     12  C   UNL     1       9.924   4.987   5.606  0.00  0.00    +0.129 C 
ENDBRANCH   1   2
BRANCH   1  13
ATOM     13  N   UNL     1       3.837   7.502   4.319  0.00  0.00    -0.298 NA
ATOM     14  C   UNL     1       4.820   7.596   3.230  0.00  0.00    +0.066 C 
ATOM     15  C   UNL     1       4.815   9.018   2.664  0.00  0.00    -0.064 C 
ATOM     16  N   UNL     1       5.129   9.971   3.737  0.00  0.00    +0.379 N 
ATOM     17  C   UNL     1       4.146   9.877   4.826  0.00  0.00    -0.064 C 
ATOM     18  C   UNL     1       4.151   8.455   5.392  0.00  0.00    +0.066 C 
ATOM     19  C   UNL     1       5.208  11.343   3.217  0.00  0.00    -0.096 C 
ATOM     20  H   UNL     1       6.115   9.709   4.147  0.00  0.00    -0.082 HD
ENDBRANCH   1  13
BRANCH   1  21
ATOM     21  C   UNL     1       3.264   5.193   3.735  0.00  0.00    +0.129 C 
BRANCH  21  22
ATOM     22  N   UNL     1       1.993   5.691   3.204  0.00  0.00    -0.188 NA
ATOM     23  H   UNL     1       1.347   6.325   3.829  0.00  0.00    +0.148 HD
BRANCH  22  24
ATOM     24  S   UNL     1       1.409   5.107   1.769  0.00  0.00    +0.058 S 
ATOM     25  O   UNL     1       2.481   5.170   0.839  0.00  0.00    -0.153 OA
ATOM     26  O   UNL     1       0.165   5.756   1.542  0.00  0.00    -0.153 OA
BRANCH  24  30
ATOM     27  C   UNL     1       0.486   0.717   2.386  0.00  0.00    +0.033 A 
ATOM     28  C   UNL     1      -0.490   1.674   2.631  0.00  0.00    +0.025 A 
ATOM     29  C   UNL     1      -0.205   3.012   2.441  0.00  0.00    +0.030 A 
ATOM     30  C   UNL     1       1.050   3.399   2.009  0.00  0.00    +0.105 A 
ATOM     31  C   UNL     1       2.024   2.448   1.764  0.00  0.00    +0.030 A 
ATOM     32  C   UNL     1       1.745   1.108   1.951  0.00  0.00    +0.025 A 
BRANCH  27  35
ATOM     33  C   UNL     1      -1.035  -1.112   2.317  0.00  0.00    +0.217 C 
ATOM     34  O   UNL     1      -1.871  -0.384   1.825  0.00  0.00    -0.275 OA
ATOM     35  N   UNL     1       0.201  -0.640   2.577  0.00  0.00    -0.286 N 
ATOM     36  H   UNL     1       0.985  -1.321   2.939  0.00  0.00    +0.155 HD
BRANCH  33  38
ATOM     37  C   UNL     1      -2.831  -2.820   2.250  0.00  0.00    +0.013 C 
ATOM     38  C   UNL     1      -1.377  -2.544   2.639  0.00  0.00    +0.093 C 
ENDBRANCH  33  38
ENDBRANCH  27  35
ENDBRANCH  24  30
ENDBRANCH  22  24
ENDBRANCH  21  22
ENDBRANCH   1  21
TORSDOF 8
