REMARK  Name = ZINC35544589
REMARK  3 active torsions:
REMARK  status: ('A' for Active; 'I' for Inactive)
REMARK    1  A    between atoms: C_5  and  N_7
REMARK    2  A    between atoms: C_13  and  C_15
REMARK    3  A    between atoms: C_20  and  N_37
REMARK                            x       y       z     vdW  Elec       q    Type
REMARK                         _______ _______ _______ _____ _____    ______ ____
ROOT
ATOM      1  C   UNL     1      -0.034  -6.681  -1.377  0.00  0.00    +0.101 C 
ATOM      2  C   UNL     1      -1.304  -6.243  -2.104  0.00  0.00    +0.051 C 
ATOM      3  C   UNL     1      -2.497  -6.608  -1.258  0.00  0.00    -0.023 A 
ATOM      4  C   UNL     1      -3.649  -5.848  -1.339  0.00  0.00    +0.038 A 
ATOM      5  C   UNL     1      -4.745  -6.168  -0.559  0.00  0.00    +0.127 A 
ATOM      6  C   UNL     1      -4.690  -7.246   0.305  0.00  0.00    +0.034 A 
ATOM      7  C   UNL     1      -3.543  -8.010   0.386  0.00  0.00    +0.025 A 
ATOM      8  C   UNL     1      -2.440  -7.693  -0.403  0.00  0.00    +0.033 A 
ATOM      9  N   UNL     1      -1.296  -8.506  -0.316  0.00  0.00    -0.323 N 
ATOM     10  C   UNL     1      -0.100  -8.181  -1.070  0.00  0.00    +0.103 C 
ATOM     11  C   UNL     1       1.184  -8.581  -0.362  0.00  0.00    +0.129 C 
ATOM     12  N   UNL     1       1.036  -9.774   0.447  0.00  0.00    -0.313 N 
ATOM     13  C   UNL     1      -0.139 -10.025   1.265  0.00  0.00    +0.125 C 
ATOM     14  C   UNL     1      -1.408  -9.701   0.517  0.00  0.00    +0.124 C 
ATOM     15  C   UNL     1       2.059 -10.716   0.442  0.00  0.00    +0.099 A 
ATOM     16  C   UNL     1       1.883 -11.929   1.100  0.00  0.00    +0.042 A 
ATOM     17  C   UNL     1       2.909 -12.857   1.086  0.00  0.00    +0.005 A 
ATOM     18  C   UNL     1       4.080 -12.539   0.412  0.00  0.00    +0.018 A 
ATOM     19  C   UNL     1       4.187 -11.317  -0.221  0.00  0.00    +0.084 A 
ATOM     20  N   UNL     1       3.190 -10.453  -0.195  0.00  0.00    -0.350 N 
ATOM     21  H   UNL     1       3.289  -9.602  -0.651  0.00  0.00    +0.166 HD
ENDROOT
BRANCH   1  28
ATOM     22  N   UNL     1       1.965  -2.389  -0.086  0.00  0.00    -0.325 N 
ATOM     23  C   UNL     1       1.751  -3.083   1.191  0.00  0.00    +0.124 C 
ATOM     24  C   UNL     1       0.402  -3.812   1.133  0.00  0.00    +0.126 C 
ATOM     25  N   UNL     1       0.342  -4.588  -0.114  0.00  0.00    -0.298 N 
ATOM     26  C   UNL     1       0.556  -3.893  -1.391  0.00  0.00    +0.126 C 
ATOM     27  C   UNL     1       1.899  -3.163  -1.333  0.00  0.00    +0.124 C 
ATOM     28  C   UNL     1       0.094  -5.912  -0.087  0.00  0.00    +0.221 C 
ATOM     29  O   UNL     1      -0.025  -6.485   0.975  0.00  0.00    -0.275 OA
BRANCH  22  34
ATOM     30  C   UNL     1       1.427   1.245  -0.230  0.00  0.00    +0.002 A 
ATOM     31  C   UNL     1       2.729   1.706  -0.171  0.00  0.00    +0.003 A 
ATOM     32  C   UNL     1       3.780   0.811  -0.084  0.00  0.00    +0.040 A 
ATOM     33  C   UNL     1       3.531  -0.548  -0.055  0.00  0.00    +0.144 A 
ATOM     34  C   UNL     1       2.222  -1.014  -0.114  0.00  0.00    +0.065 A 
ATOM     35  C   UNL     1       1.170  -0.112  -0.202  0.00  0.00    +0.026 A 
ATOM     36  F   UNL     1       4.557  -1.423   0.030  0.00  0.00    -0.204 F 
ENDBRANCH  22  34
ENDBRANCH   1  28
BRANCH   5  37
ATOM     37  N   UNL     1      -5.978  -5.354  -0.648  0.00  0.00    +0.056 N 
ATOM     38  O   UNL     1      -6.027  -4.411  -1.403  0.00  0.00    -0.126 OA
ATOM     39  O   UNL     1      -6.937  -5.633   0.034  0.00  0.00    -0.126 OA
ENDBRANCH   5  37
TORSDOF 3
