REMARK  Name = ZINC01408225
REMARK  2 active torsions:
REMARK  status: ('A' for Active; 'I' for Inactive)
REMARK    1  A    between atoms: C_4  and  C_22
REMARK    2  A    between atoms: C_5  and  C_7
REMARK                            x       y       z     vdW  Elec       q    Type
REMARK                         _______ _______ _______ _____ _____    ______ ____
ROOT
ATOM      1  C   UNL     1       1.153  -2.185   0.075  0.00  0.00    +0.209 C 
ATOM      2  N   UNL     1      -0.188  -2.656   0.467  0.00  0.00    -0.294 N 
ATOM      3  C   UNL     1      -1.170  -2.704  -0.513  0.00  0.00    +0.159 C 
ATOM      4  N   UNL     1      -0.842  -3.380  -1.688  0.00  0.00    -0.259 N 
ATOM      5  C   UNL     1       0.490  -3.276  -2.079  0.00  0.00    +0.205 A 
ATOM      6  N   UNL     1       1.448  -2.722  -1.258  0.00  0.00    -0.288 N 
ATOM      7  C   UNL     1       2.638  -2.782  -1.925  0.00  0.00    +0.072 A 
ATOM      8  C   UNL     1       3.929  -2.387  -1.595  0.00  0.00    +0.028 A 
ATOM      9  C   UNL     1       4.918  -2.605  -2.540  0.00  0.00    +0.002 A 
ATOM     10  C   UNL     1       4.646  -3.191  -3.764  0.00  0.00    +0.002 A 
ATOM     11  C   UNL     1       3.370  -3.593  -4.118  0.00  0.00    +0.030 A 
ATOM     12  C   UNL     1       2.355  -3.383  -3.178  0.00  0.00    +0.091 A 
ATOM     13  N   UNL     1       1.032  -3.654  -3.205  0.00  0.00    -0.214 NA
ATOM     14  N   UNL     1      -2.335  -2.146  -0.344  0.00  0.00    -0.375 N 
ATOM     15  H   UNL     1      -1.495  -3.887  -2.196  0.00  0.00    +0.158 HD
ATOM     16  H   UNL     1      -2.536  -1.683   0.485  0.00  0.00    +0.158 HD
ATOM     17  H   UNL     1      -0.378  -2.925   1.379  0.00  0.00    +0.151 HD
ATOM     18  H   UNL     1      -3.003  -2.195  -1.046  0.00  0.00    +0.158 HD
ENDROOT
BRANCH   1  23
ATOM     19  C   UNL     1       1.101   1.363  -1.216  0.00  0.00    +0.000 A 
ATOM     20  C   UNL     1       1.210   2.085  -0.042  0.00  0.00    +0.001 A 
ATOM     21  C   UNL     1       1.300   1.425   1.170  0.00  0.00    +0.013 A 
ATOM     22  C   UNL     1       1.282   0.044   1.208  0.00  0.00    +0.062 A 
ATOM     23  C   UNL     1       1.172  -0.678   0.034  0.00  0.00    +0.005 A 
ATOM     24  C   UNL     1       1.083  -0.019  -1.178  0.00  0.00    +0.008 A 
BRANCH  22  25
ATOM     25  C   UNL     1       1.381  -0.675   2.528  0.00  0.00    +0.418 C 
ATOM     26  F   UNL     1       1.550   0.259   3.556  0.00  0.00    -0.166 F 
ATOM     27  F   UNL     1       0.210  -1.407   2.750  0.00  0.00    -0.166 F 
ATOM     28  F   UNL     1       2.477  -1.545   2.504  0.00  0.00    -0.166 F 
ENDBRANCH  22  25
ENDBRANCH   1  23
TORSDOF 2
