REMARK  Name = ZINC16250138
REMARK  10 active torsions:
REMARK  status: ('A' for Active; 'I' for Inactive)
REMARK    1  A    between atoms: C_1  and  C_2
REMARK    2  A    between atoms: C_3  and  C_11
REMARK    3  A    between atoms: C_7  and  N_8
REMARK    4  A    between atoms: N_13  and  C_14
REMARK    5  A    between atoms: C_14  and  N_16
REMARK    6  A    between atoms: N_16  and  C_17
REMARK    7  A    between atoms: C_20  and  N_25
REMARK    8  A    between atoms: C_21  and  O_23
REMARK    9  A    between atoms: O_23  and  C_24
REMARK   10  A    between atoms: C_26  and  C_28
REMARK                            x       y       z     vdW  Elec       q    Type
REMARK                         _______ _______ _______ _____ _____    ______ ____
ROOT
ATOM      1  C   UNL     1      -9.509   4.385   0.226  0.00  0.00    +0.036 A 
ATOM      2  C   UNL     1      -8.925   3.298   0.863  0.00  0.00    +0.025 A 
ATOM      3  C   UNL     1      -7.555   3.245   1.028  0.00  0.00    +0.029 A 
ATOM      4  C   UNL     1      -6.758   4.279   0.556  0.00  0.00    +0.076 A 
ATOM      5  C   UNL     1      -7.342   5.373  -0.080  0.00  0.00    +0.143 A 
ATOM      6  C   UNL     1      -8.716   5.421  -0.248  0.00  0.00    +0.070 A 
ENDROOT
BRANCH   4   7
ATOM      7  N   UNL     1      -5.368   4.225   0.723  0.00  0.00    -0.276 N 
ATOM      8  C   UNL     1      -4.738   3.034   0.755  0.00  0.00    +0.284 C 
ATOM      9  O   UNL     1      -5.384   2.003   0.718  0.00  0.00    -0.266 OA
ATOM     10  H   UNL     1      -4.858   5.045   0.816  0.00  0.00    +0.155 HD
BRANCH   8  11
ATOM     11  C   UNL     1      -3.272   2.979   0.835  0.00  0.00    +0.191 A 
ATOM     12  C   UNL     1      -2.533   1.841   0.873  0.00  0.00    +0.063 A 
ATOM     13  C   UNL     1      -1.136   2.267   0.950  0.00  0.00    +0.021 A 
ATOM     14  C   UNL     1       0.086   1.592   1.015  0.00  0.00    +0.011 A 
ATOM     15  C   UNL     1       1.250   2.304   1.074  0.00  0.00    +0.001 A 
ATOM     16  C   UNL     1       1.227   3.692   1.076  0.00  0.00    +0.004 A 
ATOM     17  C   UNL     1       0.032   4.376   1.018  0.00  0.00    +0.047 A 
ATOM     18  C   UNL     1      -1.166   3.674   0.957  0.00  0.00    +0.136 A 
ATOM     19  O   UNL     1      -2.457   4.054   0.893  0.00  0.00    -0.450 OA
ENDBRANCH   8  11
ENDBRANCH   4   7
BRANCH   1  20
ATOM     20  N   UNL     1     -10.899   4.435   0.061  0.00  0.00    -0.296 N 
ATOM     21  H   UNL     1     -11.276   4.726  -0.784  0.00  0.00    +0.154 HD
BRANCH  20  22
ATOM     22  C   UNL     1     -11.711   4.080   1.075  0.00  0.00    +0.141 C 
ATOM     23  S   UNL     1     -11.047   3.485   2.536  0.00  0.00    -0.018 S 
BRANCH  22  26
ATOM     24  C   UNL     1     -13.860   3.838   1.954  0.00  0.00    +0.250 C 
ATOM     25  O   UNL     1     -13.388   3.416   2.992  0.00  0.00    -0.270 OA
ATOM     26  N   UNL     1     -13.048   4.193   0.940  0.00  0.00    -0.264 N 
ATOM     27  H   UNL     1     -13.424   4.531   0.112  0.00  0.00    +0.157 HD
BRANCH  24  30
ATOM     28  C   UNL     1     -15.600   2.819   4.030  0.00  0.00    +0.047 C 
ATOM     29  C   UNL     1     -16.175   3.474   2.801  0.00  0.00    -0.008 A 
ATOM     30  C   UNL     1     -15.325   3.962   1.806  0.00  0.00    +0.042 A 
ATOM     31  C   UNL     1     -15.866   4.563   0.668  0.00  0.00    +0.013 A 
ATOM     32  C   UNL     1     -17.235   4.675   0.535  0.00  0.00    +0.003 A 
ATOM     33  C   UNL     1     -18.071   4.194   1.527  0.00  0.00    +0.033 A 
ATOM     34  C   UNL     1     -17.541   3.597   2.658  0.00  0.00    +0.130 A 
BRANCH  34  35
ATOM     35  N   UNL     1     -18.443   3.086   3.714  0.00  0.00    +0.057 N 
ATOM     36  O   UNL     1     -19.645   3.044   3.521  0.00  0.00    -0.126 OA
ATOM     37  O   UNL     1     -17.984   2.707   4.776  0.00  0.00    -0.126 OA
ENDBRANCH  34  35
ENDBRANCH  24  30
ENDBRANCH  22  26
ENDBRANCH  20  22
ENDBRANCH   1  20
BRANCH   5  38
ATOM     38  O   UNL     1      -6.564   6.389  -0.538  0.00  0.00    -0.493 OA
ATOM     39  C   UNL     1      -7.231   7.478  -1.179  0.00  0.00    +0.277 C 
ENDBRANCH   5  38
TORSDOF 8
