REMARK  Name = ZINC37984638
REMARK  10 active torsions:
REMARK  status: ('A' for Active; 'I' for Inactive)
REMARK    1  A    between atoms: C_1  and  C_2
REMARK    2  A    between atoms: C_2  and  C_4
REMARK    3  A    between atoms: C_2  and  N_11
REMARK    4  A    between atoms: N_11  and  C_12
REMARK    5  A    between atoms: C_12  and  C_13
REMARK    6  A    between atoms: C_13  and  C_15
REMARK    7  A    between atoms: C_13  and  O_23
REMARK    8  A    between atoms: C_15  and  O_16
REMARK    9  A    between atoms: O_16  and  C_17
REMARK   10  A    between atoms: C_17  and  C_18
REMARK                            x       y       z     vdW  Elec       q    Type
REMARK                         _______ _______ _______ _____ _____    ______ ____
ROOT
ATOM      1  N   UNL     1       0.713  -0.491   1.192  0.00  0.00    +0.385 N 
ATOM      2  H   UNL     1       0.290  -0.099   2.020  0.00  0.00    -0.085 HD
ATOM      3  H   UNL     1       0.655  -1.497   1.230  0.00  0.00    -0.085 HD
ENDROOT
BRANCH   1   5
ATOM      4  C   UNL     1      -0.019   1.526   0.010  0.00  0.00    -0.009 C 
ATOM      5  C   UNL     1       0.002  -0.004   0.002  0.00  0.00    -0.044 C 
BRANCH   5   6
ATOM      6  C   UNL     1      -1.412  -0.526   0.013  0.00  0.00    -0.061 A 
ATOM      7  C   UNL     1      -2.123  -0.571   1.198  0.00  0.00    +0.002 A 
ATOM      8  C   UNL     1      -3.420  -1.049   1.208  0.00  0.00    +0.001 A 
ATOM      9  C   UNL     1      -4.006  -1.483   0.034  0.00  0.00    +0.015 A 
ATOM     10  C   UNL     1      -3.295  -1.437  -1.152  0.00  0.00    +0.018 A 
ATOM     11  C   UNL     1      -1.999  -0.954  -1.163  0.00  0.00    +0.017 A 
ATOM     12 BR   UNL     1      -4.097  -2.031  -2.759  0.00  0.00    -0.050 Br
ENDBRANCH   5   6
ENDBRANCH   1   5
BRANCH   1  13
ATOM     13  C   UNL     1       2.122  -0.083   1.122  0.00  0.00    -0.048 C 
BRANCH  13  14
ATOM     14  C   UNL     1       2.862  -0.589   2.361  0.00  0.00    +0.123 C 
BRANCH  14  15
ATOM     15  O   UNL     1       2.263  -0.034   3.534  0.00  0.00    -0.391 OA
ATOM     16  H   UNL     1       2.282   0.932   3.566  0.00  0.00    +0.210 HD
ENDBRANCH  14  15
BRANCH  14  17
ATOM     17  C   UNL     1       4.330  -0.164   2.288  0.00  0.00    +0.189 C 
BRANCH  17  18
ATOM     18  O   UNL     1       5.046  -0.735   3.385  0.00  0.00    -0.372 OA
BRANCH  18  19
ATOM     19  C   UNL     1       6.435  -0.398   3.411  0.00  0.00    +0.202 C 
BRANCH  19  20
ATOM     20  C   UNL     1       7.088  -1.050   4.603  0.00  0.00    +0.015 A 
ATOM     21  C   UNL     1       7.679  -2.266   4.693  0.00  0.00    +0.013 A 
ATOM     22  C   UNL     1       8.219  -2.661   5.902  0.00  0.00    +0.008 A 
ATOM     23  C   UNL     1       8.141  -1.821   6.963  0.00  0.00    +0.045 A 
ATOM     24  S   UNL     1       7.290  -0.418   6.260  0.00  0.00    -0.099 S 
ENDBRANCH  19  20
ENDBRANCH  18  19
ENDBRANCH  17  18
ENDBRANCH  14  17
ENDBRANCH  13  14
ENDBRANCH   1  13
TORSDOF 9
