REMARK  Name = ZINC13758877
REMARK  11 active torsions:
REMARK  status: ('A' for Active; 'I' for Inactive)
REMARK    1  A    between atoms: C_1  and  C_2
REMARK    2  A    between atoms: C_2  and  C_3
REMARK    3  A    between atoms: C_3  and  C_4
REMARK    4  A    between atoms: C_4  and  C_5
REMARK    5  A    between atoms: C_5  and  O_6
REMARK    6  A    between atoms: O_6  and  C_7
REMARK    7  A    between atoms: C_10  and  C_13
REMARK    8  A    between atoms: C_16  and  O_34
REMARK    9  A    between atoms: N_18  and  C_25
REMARK   10  A    between atoms: C_30  and  C_32
REMARK   11  A    between atoms: C_30  and  C_33
REMARK                            x       y       z     vdW  Elec       q    Type
REMARK                         _______ _______ _______ _____ _____    ______ ____
ROOT
ATOM      1  C   UNL     1      -7.812  -6.647   0.040  0.00  0.00    +0.115 C 
ATOM      2  C   UNL     1      -7.916  -7.464   1.290  0.00  0.00    +0.072 A 
ATOM      3  C   UNL     1      -7.185  -7.144   2.458  0.00  0.00    +0.238 A 
ATOM      4  N   UNL     1      -7.467  -8.022   3.381  0.00  0.00    -0.131 NA
ATOM      5  N   UNL     1      -8.380  -8.932   2.850  0.00  0.00    -0.243 N 
ATOM      6  C   UNL     1      -8.649  -8.568   1.552  0.00  0.00    +0.132 A 
ATOM      7  N   UNL     1      -9.530  -9.288   0.781  0.00  0.00    -0.270 N 
ATOM      8  C   UNL     1      -9.937  -9.222  -0.451  0.00  0.00    +0.228 C 
ATOM      9  O   UNL     1     -10.665 -10.129  -0.796  0.00  0.00    -0.275 OA
ATOM     10  C   UNL     1      -9.655  -8.218  -1.498  0.00  0.00    +0.166 C 
ATOM     11  S   UNL     1      -7.958  -7.624  -1.458  0.00  0.00    -0.138 S 
ATOM     12  H   UNL     1      -9.944 -10.015   1.271  0.00  0.00    +0.156 HD
ENDROOT
BRANCH   5  13
ATOM     13  C   UNL     1      -8.956 -10.080   3.555  0.00  0.00    +0.114 C 
ATOM     14  C   UNL     1      -9.720  -9.593   4.790  0.00  0.00    +0.055 C 
ATOM     15  C   UNL     1     -10.251 -10.803   5.563  0.00  0.00    +0.162 C 
ATOM     16  O   UNL     1      -9.159 -11.653   5.921  0.00  0.00    -0.374 OA
ATOM     17  C   UNL     1      -8.437 -12.178   4.805  0.00  0.00    +0.066 C 
ATOM     18  C   UNL     1      -7.834 -11.024   4.000  0.00  0.00    +0.061 C 
ATOM     19  C   UNL     1      -7.316 -13.091   5.306  0.00  0.00    +0.041 C 
ATOM     20  C   UNL     1      -9.388 -12.978   3.913  0.00  0.00    +0.041 C 
ENDBRANCH   5  13
BRANCH   1  24
ATOM     21  C   UNL     1      -4.031  -4.655   0.015  0.00  0.00    +0.121 A 
ATOM     22  C   UNL     1      -5.205  -3.917   0.025  0.00  0.00    +0.046 A 
ATOM     23  C   UNL     1      -6.426  -4.563   0.033  0.00  0.00    +0.008 A 
ATOM     24  C   UNL     1      -6.479  -5.945   0.032  0.00  0.00    -0.030 A 
ATOM     25  C   UNL     1      -5.309  -6.683   0.023  0.00  0.00    +0.008 A 
ATOM     26  C   UNL     1      -4.086  -6.042   0.009  0.00  0.00    +0.046 A 
BRANCH  21  27
ATOM     27  O   UNL     1      -2.829  -4.022   0.007  0.00  0.00    -0.492 OA
BRANCH  27  28
ATOM     28  C   UNL     1      -2.848  -2.593   0.015  0.00  0.00    +0.229 C 
BRANCH  28  29
ATOM     29  C   UNL     1      -1.413  -2.063   0.004  0.00  0.00    +0.041 C 
BRANCH  29  30
ATOM     30  C   UNL     1      -1.433  -0.534   0.013  0.00  0.00    +0.003 C 
BRANCH  30  32
ATOM     31  C   UNL     1      -0.019   1.526   0.010  0.00  0.00    +0.004 C 
ATOM     32  C   UNL     1       0.002  -0.004   0.002  0.00  0.00    -0.003 C 
ENDBRANCH  30  32
ENDBRANCH  29  30
ENDBRANCH  28  29
ENDBRANCH  27  28
ENDBRANCH  21  27
ENDBRANCH   1  24
BRANCH   3  33
ATOM     33  O   UNL     1      -6.329  -6.096   2.596  0.00  0.00    -0.491 OA
ATOM     34  H   UNL     1      -6.749  -5.285   2.914  0.00  0.00    +0.294 HD
ENDBRANCH   3  33
TORSDOF 8
