REMARK  Name = ZINC10784709
REMARK  9 active torsions:
REMARK  status: ('A' for Active; 'I' for Inactive)
REMARK    1  A    between atoms: C_1  and  C_2
REMARK    2  A    between atoms: C_2  and  O_3
REMARK    3  A    between atoms: O_3  and  C_4
REMARK    4  A    between atoms: C_4  and  C_6
REMARK    5  A    between atoms: C_8  and  N_29
REMARK    6  A    between atoms: C_10  and  N_11
REMARK    7  A    between atoms: C_12  and  C_14
REMARK    8  A    between atoms: N_20  and  S_21
REMARK    9  A    between atoms: S_21  and  C_24
REMARK                            x       y       z     vdW  Elec       q    Type
REMARK                         _______ _______ _______ _____ _____    ______ ____
ROOT
ATOM      1  N   UNL     1      -1.492   4.106   3.193  0.00  0.00    -0.278 N 
ATOM      2  C   UNL     1      -1.821   3.388   2.101  0.00  0.00    +0.236 C 
ATOM      3  O   UNL     1      -2.938   2.930   1.991  0.00  0.00    -0.274 OA
ATOM      4  H   UNL     1      -0.599   4.473   3.282  0.00  0.00    +0.155 HD
ENDROOT
BRANCH   2   5
ATOM      5  C   UNL     1      -0.800   3.155   1.018  0.00  0.00    +0.166 C 
ATOM      6  C   UNL     1      -0.584   1.650   0.831  0.00  0.00    +0.030 C 
ATOM      7  C   UNL     1       0.347   1.416  -0.361  0.00  0.00    +0.003 C 
ATOM      8  C   UNL     1      -0.300   1.971  -1.632  0.00  0.00    +0.017 C 
ATOM      9  C   UNL     1      -0.513   3.480  -1.474  0.00  0.00    +0.110 C 
ATOM     10  N   UNL     1      -1.286   3.723  -0.247  0.00  0.00    -0.164 NA
BRANCH  10  11
ATOM     11  S   UNL     1      -2.678   4.618  -0.290  0.00  0.00    +0.068 S 
ATOM     12  O   UNL     1      -2.863   5.144   1.016  0.00  0.00    -0.152 OA
ATOM     13  O   UNL     1      -2.591   5.449  -1.441  0.00  0.00    -0.152 OA
BRANCH  11  14
ATOM     14  C   UNL     1      -4.009   3.499  -0.576  0.00  0.00    +0.143 A 
ATOM     15  C   UNL     1      -4.871   2.953   0.316  0.00  0.00    +0.036 A 
ATOM     16  C   UNL     1      -5.852   2.093  -0.141  0.00  0.00    +0.010 A 
ATOM     17  C   UNL     1      -5.916   1.812  -1.465  0.00  0.00    +0.047 A 
ATOM     18  S   UNL     1      -4.567   2.785  -2.114  0.00  0.00    -0.077 S 
ENDBRANCH  11  14
ENDBRANCH  10  11
ENDBRANCH   2   5
BRANCH   1  23
ATOM     19  C   UNL     1      -2.283   5.028   5.379  0.00  0.00    +0.090 A 
ATOM     20  C   UNL     1      -3.439   5.093   6.242  0.00  0.00    +0.057 A 
ATOM     21  C   UNL     1      -4.554   4.468   5.825  0.00  0.00    +0.166 A 
ATOM     22  S   UNL     1      -4.075   3.780   4.254  0.00  0.00    -0.049 S 
ATOM     23  C   UNL     1      -2.431   4.321   4.190  0.00  0.00    +0.088 A 
BRANCH  21  24
ATOM     24  N   UNL     1      -5.865   4.377   6.506  0.00  0.00    +0.063 N 
ATOM     25  O   UNL     1      -6.029   4.914   7.587  0.00  0.00    -0.126 OA
ATOM     26  O   UNL     1      -6.781   3.765   5.986  0.00  0.00    -0.126 OA
ENDBRANCH  21  24
BRANCH  19  27
ATOM     27  C   UNL     1      -1.019   5.674   5.737  0.00  0.00    +0.342 C 
ATOM     28  O   UNL     1      -0.064   5.599   4.987  0.00  0.00    -0.245 OA
BRANCH  27  29
ATOM     29  O   UNL     1      -0.912   6.351   6.898  0.00  0.00    -0.461 OA
BRANCH  29  31
ATOM     30  C   UNL     1       0.300   7.683   8.537  0.00  0.00    +0.048 C 
ATOM     31  C   UNL     1       0.371   6.966   7.188  0.00  0.00    +0.229 C 
ENDBRANCH  29  31
ENDBRANCH  27  29
ENDBRANCH  19  27
ENDBRANCH   1  23
TORSDOF 8
