REMARK  Name = ZINC63899644
REMARK  7 active torsions:
REMARK  status: ('A' for Active; 'I' for Inactive)
REMARK    1  A    between atoms: C_1  and  C_2
REMARK    2  A    between atoms: C_5  and  C_8
REMARK    3  A    between atoms: C_10  and  C_22
REMARK    4  A    between atoms: N_13  and  C_14
REMARK    5  A    between atoms: N_24  and  C_25
REMARK    6  A    between atoms: C_25  and  C_26
REMARK    7  A    between atoms: C_26  and  C_27
REMARK                            x       y       z     vdW  Elec       q    Type
REMARK                         _______ _______ _______ _____ _____    ______ ____
ROOT
ATOM      1  C   UNL     1      -0.143  -4.274   0.004  0.00  0.00    +0.050 C 
ATOM      2  C   UNL     1      -0.175  -5.014  -1.103  0.00  0.00    +0.027 C 
ATOM      3  C   UNL     1       0.154  -6.431  -0.687  0.00  0.00    +0.183 C 
ATOM      4  N   UNL     1       0.362  -6.349   0.772  0.00  0.00    -0.224 NA
ATOM      5  N   UNL     1       0.177  -5.041   1.115  0.00  0.00    -0.261 N 
ATOM      6  H   UNL     1      -0.281  -6.950   1.264  0.00  0.00    +0.146 HD
ENDROOT
BRANCH   1  11
ATOM      7  C   UNL     1      -1.177   1.388   0.156  0.00  0.00    +0.044 C 
ATOM      8  C   UNL     1      -0.906  -0.094   0.117  0.00  0.00    -0.050 A 
ATOM      9  C   UNL     1      -1.521  -0.932   1.030  0.00  0.00    +0.004 A 
ATOM     10  C   UNL     1      -1.278  -2.290   0.998  0.00  0.00    +0.010 A 
ATOM     11  C   UNL     1      -0.409  -2.817   0.043  0.00  0.00    -0.003 A 
ATOM     12  C   UNL     1       0.208  -1.968  -0.875  0.00  0.00    +0.010 A 
ATOM     13  C   UNL     1      -0.047  -0.613  -0.836  0.00  0.00    +0.004 A 
ENDBRANCH   1  11
BRANCH   5  14
ATOM     14  C   UNL     1       0.296  -4.517   2.478  0.00  0.00    +0.113 C 
ATOM     15  C   UNL     1       1.659  -4.913   3.070  0.00  0.00    +0.048 C 
ATOM     16  C   UNL     1       1.669  -4.649   4.595  0.00  0.00    +0.168 C 
ATOM     17  S   UNL     1      -0.105  -4.832   5.048  0.00  0.00    -0.029 S 
ATOM     18  O   UNL     1      -0.586  -3.589   5.542  0.00  0.00    -0.174 OA
ATOM     19  O   UNL     1      -0.263  -6.005   5.834  0.00  0.00    -0.174 OA
ATOM     20  C   UNL     1      -0.818  -5.129   3.375  0.00  0.00    +0.189 C 
ENDBRANCH   5  14
BRANCH   3  21
ATOM     21  C   UNL     1      -0.996  -7.353  -1.006  0.00  0.00    +0.236 C 
ATOM     22  O   UNL     1      -1.559  -7.950  -0.113  0.00  0.00    -0.274 OA
ATOM     23  N   UNL     1      -1.397  -7.513  -2.282  0.00  0.00    -0.313 N 
ATOM     24  H   UNL     1      -0.946  -7.036  -2.996  0.00  0.00    +0.149 HD
BRANCH  23  25
ATOM     25  C   UNL     1      -2.514  -8.409  -2.592  0.00  0.00    +0.108 C 
BRANCH  25  26
ATOM     26  C   UNL     1      -2.764  -8.410  -4.101  0.00  0.00    +0.052 C 
BRANCH  26  27
ATOM     27  C   UNL     1      -3.913  -9.331  -4.420  0.00  0.00    -0.040 C 
ATOM     28  C   UNL     1      -5.212  -8.988  -4.575  0.00  0.00    -0.001 A 
ATOM     29  C   UNL     1      -5.917  -7.702  -4.496  0.00  0.00    +0.010 A 
ATOM     30  C   UNL     1      -7.253  -7.673  -4.703  0.00  0.00    +0.001 A 
ATOM     31  C   UNL     1      -7.980  -8.837  -4.990  0.00  0.00    +0.002 A 
ATOM     32  C   UNL     1      -7.402 -10.054  -5.080  0.00  0.00    +0.026 A 
ATOM     33  C   UNL     1      -6.002 -10.201  -4.880  0.00  0.00    +0.043 A 
ATOM     34  N   UNL     1      -5.222 -11.255  -4.913  0.00  0.00    -0.380 N 
ATOM     35  C   UNL     1      -3.846 -10.826  -4.637  0.00  0.00    +0.144 C 
ATOM     36  H   UNL     1      -5.506 -12.164  -5.093  0.00  0.00    +0.160 HD
ENDBRANCH  26  27
ENDBRANCH  25  26
ENDBRANCH  23  25
ENDBRANCH   3  21
TORSDOF 6
