REMARK  Name = ZINC45589609
REMARK  13 active torsions:
REMARK  status: ('A' for Active; 'I' for Inactive)
REMARK    1  A    between atoms: C_1  and  C_2
REMARK    2  A    between atoms: C_2  and  N_3
REMARK    3  A    between atoms: N_3  and  C_4
REMARK    4  A    between atoms: C_4  and  C_5
REMARK    5  A    between atoms: C_4  and  C_6
REMARK    6  A    between atoms: C_4  and  C_19
REMARK    7  A    between atoms: C_6  and  C_7
REMARK    8  A    between atoms: C_7  and  S_8
REMARK    9  A    between atoms: S_8  and  C_9
REMARK   10  A    between atoms: C_12  and  C_15
REMARK   11  A    between atoms: C_15  and  C_16
REMARK   12  A    between atoms: C_15  and  C_17
REMARK   13  A    between atoms: C_15  and  C_18
REMARK                            x       y       z     vdW  Elec       q    Type
REMARK                         _______ _______ _______ _____ _____    ______ ____
ROOT
ATOM      1  C   UNL     1       1.472  -2.466   2.424  0.00  0.00    +0.007 C 
ENDROOT
BRANCH   1   2
ATOM      2  C   UNL     1       0.733  -1.960   1.184  0.00  0.00    +0.008 C 
ATOM      3  C   UNL     1       1.449  -2.453  -0.075  0.00  0.00    -0.001 C 
BRANCH   2   4
ATOM      4  C   UNL     1      -0.681  -2.481   1.195  0.00  0.00    +0.199 C 
ATOM      5  O   UNL     1      -0.958  -3.495   0.590  0.00  0.00    -0.278 OA
ATOM      6  N   UNL     1      -1.638  -1.821   1.877  0.00  0.00    -0.330 N 
ATOM      7  H   UNL     1      -1.417  -1.010   2.361  0.00  0.00    +0.145 HD
ATOM      8  H   UNL     1      -2.548  -2.157   1.884  0.00  0.00    +0.145 HD
ENDBRANCH   2   4
BRANCH   2   9
ATOM      9  N   UNL     1       0.713  -0.491   1.192  0.00  0.00    +0.388 N 
ATOM     10  H   UNL     1       1.659  -0.141   1.185  0.00  0.00    -0.084 HD
ATOM     11  H   UNL     1       0.240  -0.165   2.022  0.00  0.00    -0.084 HD
BRANCH   9  13
ATOM     12  C   UNL     1      -0.019   1.526   0.010  0.00  0.00    -0.017 C 
ATOM     13  C   UNL     1       0.002  -0.004   0.002  0.00  0.00    -0.085 C 
ENDBRANCH   9  13
ENDBRANCH   2   9
ENDBRANCH   1   2
BRANCH   1  14
ATOM     14  C   UNL     1       1.493  -3.996   2.415  0.00  0.00    +0.073 C 
BRANCH  14  15
ATOM     15  S   UNL     1       2.371  -4.597   3.885  0.00  0.00    -0.125 S 
BRANCH  15  16
ATOM     16  C   UNL     1       2.309  -6.351   3.730  0.00  0.00    +0.008 A 
ATOM     17  C   UNL     1       1.680  -6.933   2.636  0.00  0.00    +0.015 A 
ATOM     18  C   UNL     1       1.633  -8.308   2.519  0.00  0.00    +0.005 A 
ATOM     19  C   UNL     1       2.212  -9.106   3.488  0.00  0.00    -0.042 A 
ATOM     20  C   UNL     1       2.839  -8.531   4.579  0.00  0.00    +0.005 A 
ATOM     21  C   UNL     1       2.895  -7.157   4.700  0.00  0.00    +0.015 A 
BRANCH  19  22
ATOM     22  C   UNL     1       2.159 -10.606   3.356  0.00  0.00    -0.013 C 
ATOM     23  C   UNL     1       2.858 -11.029   2.062  0.00  0.00    +0.015 C 
ATOM     24  C   UNL     1       2.867 -11.249   4.551  0.00  0.00    +0.015 C 
ATOM     25  C   UNL     1       0.700 -11.064   3.321  0.00  0.00    +0.015 C 
ENDBRANCH  19  22
ENDBRANCH  15  16
ENDBRANCH  14  15
ENDBRANCH   1  14
TORSDOF 8
