REMARK  Name = ZINC08919164
REMARK  9 active torsions:
REMARK  status: ('A' for Active; 'I' for Inactive)
REMARK    1  A    between atoms: C_1  and  C_2
REMARK    2  A    between atoms: C_9  and  N_21
REMARK    3  A    between atoms: C_10  and  C_11
REMARK    4  A    between atoms: N_13  and  C_14
REMARK    5  A    between atoms: C_22  and  C_24
REMARK    6  A    between atoms: C_24  and  N_60
REMARK    7  A    between atoms: C_25  and  C_26
REMARK    8  A    between atoms: C_25  and  N_60
REMARK    9  A    between atoms: C_26  and  C_27
REMARK                            x       y       z     vdW  Elec       q    Type
REMARK                         _______ _______ _______ _____ _____    ______ ____
ROOT
ATOM      1  C   UNL     1       0.469  -6.450  -0.129  0.00  0.00    +0.008 C 
ATOM      2  C   UNL     1      -0.009  -5.023  -0.404  0.00  0.00    -0.009 C 
ATOM      3  C   UNL     1      -1.247  -4.724   0.447  0.00  0.00    +0.008 C 
ATOM      4  C   UNL     1      -1.875  -3.401   0.004  0.00  0.00    +0.037 C 
ATOM      5  C   UNL     1      -0.798  -2.324  -0.003  0.00  0.00    -0.023 A 
ATOM      6  C   UNL     1       0.512  -2.651  -0.018  0.00  0.00    -0.004 A 
ATOM      7  S   UNL     1       1.366  -1.100  -0.019  0.00  0.00    -0.077 S 
ATOM      8  C   UNL     1       0.002  -0.030  -0.001  0.00  0.00    +0.084 A 
ATOM      9  C   UNL     1      -1.080  -0.899   0.012  0.00  0.00    +0.069 A 
ATOM     10  C   UNL     1       1.100  -4.029  -0.031  0.00  0.00    +0.046 C 
ENDROOT
BRANCH   9  11
ATOM     11  C   UNL     1      -2.458  -0.397   0.036  0.00  0.00    +0.251 C 
ATOM     12  O   UNL     1      -3.046  -0.184  -1.008  0.00  0.00    -0.270 OA
ATOM     13  N   UNL     1      -3.072  -0.170   1.214  0.00  0.00    -0.279 N 
ATOM     14  H   UNL     1      -2.628  -0.400   2.045  0.00  0.00    +0.155 HD
BRANCH  13  15
ATOM     15  C   UNL     1      -4.352   0.397   1.238  0.00  0.00    +0.069 A 
ATOM     16  C   UNL     1      -5.266   0.094   0.238  0.00  0.00    +0.026 A 
ATOM     17  C   UNL     1      -6.529   0.652   0.266  0.00  0.00    +0.002 A 
ATOM     18  C   UNL     1      -6.882   1.519   1.284  0.00  0.00    +0.003 A 
ATOM     19  C   UNL     1      -5.974   1.828   2.280  0.00  0.00    +0.040 A 
ATOM     20  C   UNL     1      -4.709   1.269   2.260  0.00  0.00    +0.144 A 
ATOM     21  F   UNL     1      -3.821   1.571   3.233  0.00  0.00    -0.204 F 
ENDBRANCH  13  15
ENDBRANCH   9  11
BRANCH   8  22
ATOM     22  N   UNL     1      -0.005   1.356   0.005  0.00  0.00    -0.281 N 
ATOM     23  C   UNL     1       1.158   2.036  -0.004  0.00  0.00    +0.201 C 
ATOM     24  O   UNL     1       2.212   1.436  -0.018  0.00  0.00    -0.278 OA
ATOM     25  H   UNL     1      -0.848   1.837   0.012  0.00  0.00    +0.155 HD
BRANCH  23  26
ATOM     26  C   UNL     1       1.150   3.543   0.002  0.00  0.00    +0.015 C 
BRANCH  26  27
ATOM     27  N   UNL     1       2.541   4.034  -0.010  0.00  0.00    +0.385 N 
ATOM     28  H   UNL     1       3.014   3.692  -0.855  0.00  0.00    -0.085 HD
ATOM     29  H   UNL     1       3.031   3.685   0.822  0.00  0.00    -0.085 HD
BRANCH  27  30
ATOM     30  C   UNL     1       2.563   5.509  -0.004  0.00  0.00    -0.077 C 
BRANCH  30  31
ATOM     31  C   UNL     1       4.016   5.989  -0.017  0.00  0.00    +0.016 C 
BRANCH  31  32
ATOM     32  C   UNL     1       4.048   7.495  -0.011  0.00  0.00    -0.049 A 
ATOM     33  C   UNL     1       4.056   8.191  -1.205  0.00  0.00    +0.003 A 
ATOM     34  C   UNL     1       4.080   9.573  -1.200  0.00  0.00    +0.000 A 
ATOM     35  C   UNL     1       4.107  10.259   0.000  0.00  0.00    +0.000 A 
ATOM     36  C   UNL     1       4.105   9.563   1.194  0.00  0.00    +0.000 A 
ATOM     37  C   UNL     1       4.075   8.181   1.189  0.00  0.00    +0.003 A 
ENDBRANCH  31  32
ENDBRANCH  30  31
ENDBRANCH  27  30
ENDBRANCH  26  27
ENDBRANCH  23  26
ENDBRANCH   8  22
TORSDOF 8
