REMARK  Name = ZINC39623825
REMARK  10 active torsions:
REMARK  status: ('A' for Active; 'I' for Inactive)
REMARK    1  A    between atoms: C_1  and  C_2
REMARK    2  A    between atoms: C_2  and  C_3
REMARK    3  A    between atoms: C_3  and  C_4
REMARK    4  A    between atoms: C_4  and  N_5
REMARK    5  A    between atoms: C_6  and  C_8
REMARK    6  A    between atoms: C_19  and  C_21
REMARK    7  A    between atoms: C_21  and  C_23
REMARK    8  A    between atoms: C_21  and  C_24
REMARK    9  A    between atoms: C_24  and  C_25
REMARK   10  A    between atoms: C_25  and  C_26
REMARK                            x       y       z     vdW  Elec       q    Type
REMARK                         _______ _______ _______ _____ _____    ______ ____
ROOT
ATOM      1  C   UNL     1      -3.111  -4.955  -0.170  0.00  0.00    +0.100 C 
ATOM      2  C   UNL     1      -4.391  -4.491  -0.900  0.00  0.00    +0.121 C 
ATOM      3  N   UNL     1      -4.456  -5.336  -2.115  0.00  0.00    -0.300 N 
ATOM      4  C   UNL     1      -4.019  -6.676  -1.657  0.00  0.00    +0.115 C 
ATOM      5  C   UNL     1      -2.872  -6.391  -0.666  0.00  0.00    -0.004 C 
ATOM      6  C   UNL     1      -1.526  -6.487  -1.378  0.00  0.00    -0.010 C 
ATOM      7  C   UNL     1      -1.285  -7.935  -1.813  0.00  0.00    -0.082 C 
ATOM      8  N   UNL     1      -1.302  -8.810  -0.634  0.00  0.00    +0.379 N 
ATOM      9  C   UNL     1      -2.629  -8.783  -0.009  0.00  0.00    -0.082 C 
ATOM     10  C   UNL     1      -2.927  -7.371   0.502  0.00  0.00    -0.010 C 
ATOM     11  C   UNL     1      -4.829  -4.969  -3.357  0.00  0.00    +0.218 C 
ATOM     12  O   UNL     1      -5.088  -3.808  -3.595  0.00  0.00    -0.275 OA
ATOM     13  H   UNL     1      -1.083  -9.754  -0.915  0.00  0.00    -0.086 HD
ATOM     14  H   UNL     1      -0.612  -8.491   0.029  0.00  0.00    -0.086 HD
ENDROOT
BRANCH   1  16
ATOM     15  N   UNL     1      -0.948  -3.870   0.344  0.00  0.00    -0.315 N 
ATOM     16  C   UNL     1      -1.947  -4.072  -0.538  0.00  0.00    +0.218 C 
ATOM     17  O   UNL     1      -1.909  -3.542  -1.629  0.00  0.00    -0.275 OA
ATOM     18  H   UNL     1      -0.979  -4.293   1.216  0.00  0.00    +0.149 HD
BRANCH  15  19
ATOM     19  C   UNL     1       0.184  -3.011  -0.014  0.00  0.00    +0.104 C 
BRANCH  19  20
ATOM     20  C   UNL     1       1.169  -2.951   1.155  0.00  0.00    +0.018 C 
BRANCH  20  22
ATOM     21  C   UNL     1       3.335  -1.994   1.950  0.00  0.00    +0.004 C 
ATOM     22  C   UNL     1       2.350  -2.054   0.781  0.00  0.00    -0.002 C 
ENDBRANCH  20  22
ENDBRANCH  19  20
ENDBRANCH  15  19
ENDBRANCH   1  16
BRANCH  11  23
ATOM     23  C   UNL     1      -4.925  -6.002  -4.451  0.00  0.00    +0.072 C 
ATOM     24  C   UNL     1      -6.318  -6.634  -4.434  0.00  0.00    +0.017 C 
BRANCH  23  25
ATOM     25  C   UNL     1      -4.685  -5.333  -5.806  0.00  0.00    +0.012 C 
BRANCH  25  26
ATOM     26  C   UNL     1      -4.659  -6.399  -6.903  0.00  0.00    -0.003 C 
ATOM     27  C   UNL     1      -4.418  -5.731  -8.258  0.00  0.00    +0.004 C 
ENDBRANCH  25  26
ENDBRANCH  23  25
ENDBRANCH  11  23
TORSDOF 7
