REMARK  Name = ZINC63619741
REMARK  5 active torsions:
REMARK  status: ('A' for Active; 'I' for Inactive)
REMARK    1  A    between atoms: C_1  and  C_2
REMARK    2  A    between atoms: C_5  and  N_8
REMARK    3  A    between atoms: C_9  and  S_25
REMARK    4  A    between atoms: S_25  and  C_26
REMARK    5  A    between atoms: C_26  and  C_27
REMARK                            x       y       z     vdW  Elec       q    Type
REMARK                         _______ _______ _______ _____ _____    ______ ____
ROOT
ATOM      1  N   UNL     1       0.029  -4.187  -0.055  0.00  0.00    -0.246 N 
ATOM      2  C   UNL     1       0.164  -4.798   1.258  0.00  0.00    +0.210 C 
ATOM      3  N   UNL     1       1.018  -5.987   1.331  0.00  0.00    -0.277 NA
ATOM      4  C   UNL     1       1.583  -6.321   0.034  0.00  0.00    +0.135 C 
ATOM      5  C   UNL     1       0.373  -6.362  -0.948  0.00  0.00    +0.130 C 
ATOM      6  C   UNL     1       0.014  -4.936  -1.202  0.00  0.00    +0.231 C 
ATOM      7  O   UNL     1      -0.258  -4.491  -2.298  0.00  0.00    -0.274 OA
ATOM      8  C   UNL     1       0.607  -7.292  -2.075  0.00  0.00    -0.046 C 
ATOM      9  C   UNL     1       1.455  -8.300  -1.826  0.00  0.00    -0.013 C 
ATOM     10  S   UNL     1       2.073  -8.079  -0.135  0.00  0.00    -0.110 S 
ATOM     11  C   UNL     1       1.834  -9.409  -2.762  0.00  0.00    +0.042 C 
ATOM     12  C   UNL     1       0.856  -9.420  -3.943  0.00  0.00    +0.005 C 
ATOM     13  C   UNL     1       0.710  -7.987  -4.464  0.00  0.00    +0.005 C 
ATOM     14  C   UNL     1      -0.056  -7.149  -3.442  0.00  0.00    +0.032 C 
ATOM     15  H   UNL     1       1.744  -5.869   2.022  0.00  0.00    +0.126 HD
ENDROOT
BRANCH   1  20
ATOM     16  C   UNL     1      -0.473   1.451  -0.438  0.00  0.00    +0.044 C 
ATOM     17  C   UNL     1      -0.340  -0.046  -0.336  0.00  0.00    -0.050 A 
ATOM     18  C   UNL     1       0.915  -0.626  -0.296  0.00  0.00    +0.005 A 
ATOM     19  C   UNL     1       1.041  -1.998  -0.203  0.00  0.00    +0.024 A 
ATOM     20  C   UNL     1      -0.095  -2.796  -0.149  0.00  0.00    +0.039 A 
ATOM     21  C   UNL     1      -1.354  -2.211  -0.189  0.00  0.00    +0.024 A 
ATOM     22  C   UNL     1      -1.472  -0.837  -0.277  0.00  0.00    +0.005 A 
ENDBRANCH   1  20
BRANCH   2  23
ATOM     23  S   UNL     1      -1.491  -5.259   1.839  0.00  0.00    -0.119 S 
BRANCH  23  24
ATOM     24  C   UNL     1      -1.263  -5.567   3.612  0.00  0.00    +0.119 C 
BRANCH  24  25
ATOM     25  C   UNL     1      -2.589  -6.023   4.225  0.00  0.00    +0.184 C 
ATOM     26  N   UNL     1      -3.083  -7.217   3.528  0.00  0.00    -0.363 N 
ATOM     27  C   UNL     1      -4.238  -6.916   3.009  0.00  0.00    +0.060 A 
ATOM     28  C   UNL     1      -5.204  -7.682   2.209  0.00  0.00    +0.027 A 
ATOM     29  C   UNL     1      -6.346  -7.093   1.801  0.00  0.00    +0.002 A 
ATOM     30  C   UNL     1      -6.662  -5.757   2.109  0.00  0.00    +0.002 A 
ATOM     31  C   UNL     1      -5.846  -4.967   2.836  0.00  0.00    +0.027 A 
ATOM     32  C   UNL     1      -4.573  -5.503   3.335  0.00  0.00    +0.060 A 
ATOM     33  N   UNL     1      -3.611  -4.985   4.043  0.00  0.00    -0.363 N 
ATOM     34  H   UNL     1      -2.631  -8.073   3.465  0.00  0.00    +0.162 HD
ATOM     35  H   UNL     1      -3.577  -4.079   4.388  0.00  0.00    +0.162 HD
ENDBRANCH  24  25
ENDBRANCH  23  24
ENDBRANCH   2  23
TORSDOF 4
