REMARK  Name = ZINC39923403
REMARK  9 active torsions:
REMARK  status: ('A' for Active; 'I' for Inactive)
REMARK    1  A    between atoms: C_1  and  O_2
REMARK    2  A    between atoms: O_2  and  C_3
REMARK    3  A    between atoms: C_6  and  C_9
REMARK    4  A    between atoms: C_13  and  S_21
REMARK    5  A    between atoms: N_14  and  C_15
REMARK    6  A    between atoms: S_21  and  C_22
REMARK    7  A    between atoms: C_22  and  C_23
REMARK    8  A    between atoms: N_25  and  N_26
REMARK    9  A    between atoms: C_27  and  C_28
REMARK                            x       y       z     vdW  Elec       q    Type
REMARK                         _______ _______ _______ _____ _____    ______ ____
ROOT
ATOM      1  C   UNL     1       2.506  -2.504  -4.382  0.00  0.00    +0.213 C 
ATOM      2  N   UNL     1       2.223  -1.768  -5.627  0.00  0.00    -0.242 N 
ATOM      3  N   UNL     1       1.536  -2.659  -6.459  0.00  0.00    -0.162 NA
ATOM      4  C   UNL     1       1.373  -3.807  -5.891  0.00  0.00    +0.180 C 
ATOM      5  N   UNL     1       1.925  -3.837  -4.616  0.00  0.00    -0.254 N 
ATOM      6  H   UNL     1       2.464  -0.851  -5.829  0.00  0.00    +0.170 HD
ENDROOT
BRANCH   1  10
ATOM      7  C   UNL     1       0.613  -0.606  -1.054  0.00  0.00    +0.120 A 
ATOM      8  C   UNL     1       0.972   0.140  -2.168  0.00  0.00    +0.046 A 
ATOM      9  C   UNL     1       1.584  -0.476  -3.242  0.00  0.00    +0.011 A 
ATOM     10  C   UNL     1       1.839  -1.835  -3.208  0.00  0.00    -0.008 A 
ATOM     11  C   UNL     1       1.482  -2.580  -2.100  0.00  0.00    +0.011 A 
ATOM     12  C   UNL     1       0.875  -1.968  -1.021  0.00  0.00    +0.046 A 
BRANCH   7  14
ATOM     13  C   UNL     1      -0.228   1.403  -0.100  0.00  0.00    +0.277 C 
ATOM     14  O   UNL     1       0.011  -0.002   0.004  0.00  0.00    -0.495 OA
ENDBRANCH   7  14
ENDBRANCH   1  10
BRANCH   5  15
ATOM     15  C   UNL     1       1.930  -4.917  -3.729  0.00  0.00    +0.038 A 
ATOM     16  C   UNL     1       0.736  -5.534  -3.378  0.00  0.00    +0.023 A 
ATOM     17  C   UNL     1       0.744  -6.602  -2.502  0.00  0.00    +0.002 A 
ATOM     18  C   UNL     1       1.938  -7.056  -1.974  0.00  0.00    +0.000 A 
ATOM     19  C   UNL     1       3.129  -6.444  -2.321  0.00  0.00    +0.002 A 
ATOM     20  C   UNL     1       3.129  -5.380  -3.201  0.00  0.00    +0.023 A 
ENDBRANCH   5  15
BRANCH   4  21
ATOM     21  S   UNL     1       0.550  -5.172  -6.643  0.00  0.00    -0.079 S 
BRANCH  21  22
ATOM     22  C   UNL     1       0.059  -4.545  -8.273  0.00  0.00    +0.174 C 
BRANCH  22  23
ATOM     23  C   UNL     1      -0.664  -5.629  -9.030  0.00  0.00    +0.242 C 
ATOM     24  O   UNL     1      -0.832  -6.716  -8.521  0.00  0.00    -0.273 OA
ATOM     25  N   UNL     1      -1.125  -5.389 -10.274  0.00  0.00    -0.206 N 
ATOM     26  H   UNL     1      -0.991  -4.519 -10.681  0.00  0.00    +0.177 HD
BRANCH  25  27
ATOM     27  N   UNL     1      -1.798  -6.396 -10.978  0.00  0.00    -0.188 NA
ATOM     28  C   UNL     1      -2.245  -6.164 -12.186  0.00  0.00    +0.136 C 
BRANCH  28  29
ATOM     29  C   UNL     1      -2.918  -7.172 -12.891  0.00  0.00    +0.000 C 
ATOM     30  C   UNL     1      -3.448  -7.090 -14.176  0.00  0.00    +0.004 A 
ATOM     31  C   UNL     1      -3.485  -6.049 -15.130  0.00  0.00    +0.010 A 
ATOM     32  C   UNL     1      -4.083  -6.256 -16.330  0.00  0.00    +0.001 A 
ATOM     33  C   UNL     1      -4.670  -7.482 -16.654  0.00  0.00    +0.002 A 
ATOM     34  C   UNL     1      -4.672  -8.525 -15.790  0.00  0.00    +0.026 A 
ATOM     35  C   UNL     1      -4.066  -8.385 -14.513  0.00  0.00    +0.043 A 
ATOM     36  N   UNL     1      -3.937  -9.231 -13.512  0.00  0.00    -0.380 N 
ATOM     37  C   UNL     1      -3.215  -8.577 -12.416  0.00  0.00    +0.150 C 
ATOM     38  H   UNL     1      -4.266 -10.143 -13.503  0.00  0.00    +0.160 HD
ENDBRANCH  28  29
ENDBRANCH  25  27
ENDBRANCH  22  23
ENDBRANCH  21  22
ENDBRANCH   4  21
TORSDOF 8
