REMARK  Name = ZINC44782776
REMARK  6 active torsions:
REMARK  status: ('A' for Active; 'I' for Inactive)
REMARK    1  A    between atoms: C_1  and  N_2
REMARK    2  A    between atoms: C_6  and  C_9
REMARK    3  A    between atoms: C_9  and  N_10
REMARK    4  A    between atoms: C_11  and  C_13
REMARK    5  A    between atoms: C_13  and  C_20
REMARK    6  A    between atoms: C_20  and  N_22
REMARK                            x       y       z     vdW  Elec       q    Type
REMARK                         _______ _______ _______ _____ _____    ______ ____
ROOT
ATOM      1  N   UNL     1       1.255  -3.967   2.586  0.00  0.00    -0.314 N 
ATOM      2  C   UNL     1       1.843  -4.642   3.593  0.00  0.00    +0.225 C 
ATOM      3  O   UNL     1       2.568  -4.060   4.372  0.00  0.00    -0.275 OA
ATOM      4  H   UNL     1       0.730  -4.444   1.924  0.00  0.00    +0.149 HD
ENDROOT
BRANCH   2   5
ATOM      5  C   UNL     1       1.601  -6.121   3.751  0.00  0.00    +0.091 C 
ATOM      6  C   UNL     1       2.759  -6.748   4.480  0.00  0.00    +0.023 C 
ATOM      7  C   UNL     1       4.065  -5.950   4.309  0.00  0.00    +0.001 C 
ATOM      8  C   UNL     1       4.271  -5.443   2.868  0.00  0.00    +0.000 C 
ATOM      9  C   UNL     1       3.900  -6.474   1.837  0.00  0.00    +0.000 C 
ATOM     10  C   UNL     1       2.438  -6.234   1.407  0.00  0.00    +0.001 C 
ATOM     11  C   UNL     1       1.483  -6.779   2.361  0.00  0.00    +0.023 C 
BRANCH   5  12
ATOM     12  C   UNL     1       0.328  -6.345   4.527  0.00  0.00    +0.061 C 
ATOM     13  S   UNL     1      -0.830  -7.262   3.914  0.00  0.00    -0.040 S 
BRANCH  12  14
ATOM     14  N   UNL     1       0.166  -5.773   5.736  0.00  0.00    -0.355 N 
ATOM     15  H   UNL     1       0.896  -5.277   6.140  0.00  0.00    +0.143 HD
ATOM     16  H   UNL     1      -0.680  -5.857   6.203  0.00  0.00    +0.143 HD
ENDBRANCH  12  14
ENDBRANCH   5  12
ENDBRANCH   2   5
BRANCH   1  17
ATOM     17  C   UNL     1       1.410  -2.513   2.490  0.00  0.00    +0.106 C 
BRANCH  17  23
ATOM     18  C   UNL     1      -0.025   1.494   0.069  0.00  0.00    -0.096 C 
ATOM     19  N   UNL     1      -0.019   0.025   0.057  0.00  0.00    +0.378 N 
ATOM     20  C   UNL     1       0.633  -0.450  -1.170  0.00  0.00    -0.079 C 
ATOM     21  C   UNL     1       0.570  -1.978  -1.227  0.00  0.00    -0.018 C 
ATOM     22  C   UNL     1       1.290  -2.559  -0.007  0.00  0.00    +0.001 C 
ATOM     23  C   UNL     1       0.649  -1.999   1.266  0.00  0.00    -0.011 C 
ATOM     24  C   UNL     1       0.709  -0.471   1.231  0.00  0.00    -0.074 C 
ATOM     25  H   UNL     1      -0.969  -0.315   0.083  0.00  0.00    -0.082 HD
ENDBRANCH  17  23
ENDBRANCH   1  17
TORSDOF 5
