REMARK  Name = ZINC37581322
REMARK  8 active torsions:
REMARK  status: ('A' for Active; 'I' for Inactive)
REMARK    1  A    between atoms: C_1  and  C_2
REMARK    2  A    between atoms: C_2  and  C_4
REMARK    3  A    between atoms: C_2  and  N_9
REMARK    4  A    between atoms: N_9  and  S_10
REMARK    5  A    between atoms: S_10  and  C_13
REMARK    6  A    between atoms: C_17  and  C_19
REMARK    7  A    between atoms: C_20  and  C_21
REMARK    8  A    between atoms: C_21  and  N_22
REMARK                            x       y       z     vdW  Elec       q    Type
REMARK                         _______ _______ _______ _____ _____    ______ ____
ROOT
ATOM      1  C   UNL     1      -0.951   0.603  -3.133  0.00  0.00    +0.106 A 
ATOM      2  C   UNL     1      -2.204   0.962  -2.669  0.00  0.00    +0.028 A 
ATOM      3  C   UNL     1      -2.810   2.120  -3.120  0.00  0.00    +0.003 A 
ATOM      4  C   UNL     1      -2.167   2.927  -4.037  0.00  0.00    +0.017 A 
ATOM      5  C   UNL     1      -0.902   2.571  -4.508  0.00  0.00    +0.027 A 
ATOM      6  C   UNL     1      -0.295   1.403  -4.045  0.00  0.00    +0.045 A 
ENDROOT
BRANCH   1   7
ATOM      7  S   UNL     1      -0.188  -0.875  -2.551  0.00  0.00    +0.059 S 
ATOM      8  O   UNL     1       0.751  -1.265  -3.545  0.00  0.00    -0.153 OA
ATOM      9  O   UNL     1      -1.236  -1.730  -2.117  0.00  0.00    -0.153 OA
BRANCH   7  10
ATOM     10  N   UNL     1       0.688  -0.476  -1.203  0.00  0.00    -0.182 NA
ATOM     11  H   UNL     1       1.655  -0.556  -1.212  0.00  0.00    +0.149 HD
BRANCH  10  13
ATOM     12  C   UNL     1      -0.019   1.526   0.010  0.00  0.00    +0.031 C 
ATOM     13  C   UNL     1       0.002  -0.004   0.002  0.00  0.00    +0.110 C 
BRANCH  13  14
ATOM     14  C   UNL     1       0.731  -0.503   1.223  0.00  0.00    +0.008 A 
ATOM     15  C   UNL     1       0.222  -0.979   2.386  0.00  0.00    +0.013 A 
ATOM     16  C   UNL     1       1.091  -1.386   3.381  0.00  0.00    +0.008 A 
ATOM     17  C   UNL     1       2.426  -1.298   3.164  0.00  0.00    +0.045 A 
ATOM     18  S   UNL     1       2.489  -0.629   1.510  0.00  0.00    -0.100 S 
ENDBRANCH  13  14
ENDBRANCH  10  13
ENDBRANCH   7  10
ENDBRANCH   1   7
BRANCH   5  19
ATOM     19  C   UNL     1      -0.230   3.404  -5.460  0.00  0.00    -0.068 C 
ATOM     20  C   UNL     1       0.322   4.086  -6.239  0.00  0.00    -0.117 C 
BRANCH  20  21
ATOM     21  C   UNL     1       1.014   4.941  -7.218  0.00  0.00    +0.005 C 
BRANCH  21  22
ATOM     22  N   UNL     1       2.317   4.351  -7.550  0.00  0.00    +0.385 N 
ATOM     23  H   UNL     1       2.876   4.277  -6.713  0.00  0.00    -0.089 HD
ATOM     24  H   UNL     1       2.179   3.432  -7.944  0.00  0.00    -0.089 HD
ATOM     25  H   UNL     1       2.791   4.937  -8.220  0.00  0.00    -0.089 HD
ENDBRANCH  21  22
ENDBRANCH  20  21
ENDBRANCH   5  19
TORSDOF 7
