REMARK  Name = ZINC14955376
REMARK  11 active torsions:
REMARK  status: ('A' for Active; 'I' for Inactive)
REMARK    1  A    between atoms: C_1  and  C_2
REMARK    2  A    between atoms: C_2  and  N_3
REMARK    3  A    between atoms: N_3  and  C_4
REMARK    4  A    between atoms: C_4  and  C_5
REMARK    5  A    between atoms: C_6  and  C_8
REMARK    6  A    between atoms: N_13  and  C_15
REMARK    7  A    between atoms: C_15  and  C_16
REMARK    8  A    between atoms: N_23  and  C_27
REMARK    9  A    between atoms: C_27  and  C_28
REMARK   10  A    between atoms: C_31  and  N_33
REMARK   11  A    between atoms: C_34  and  C_36
REMARK                            x       y       z     vdW  Elec       q    Type
REMARK                         _______ _______ _______ _____ _____    ______ ____
ROOT
ATOM      1  C   UNL     1       0.091  -2.605  -8.198  0.00  0.00    -0.063 A 
ATOM      2  C   UNL     1       0.776  -1.862  -9.142  0.00  0.00    +0.005 A 
ATOM      3  C   UNL     1       1.369  -2.488 -10.222  0.00  0.00    +0.046 A 
ATOM      4  C   UNL     1       1.278  -3.866 -10.353  0.00  0.00    +0.125 A 
ATOM      5  C   UNL     1       0.606  -4.606  -9.398  0.00  0.00    +0.008 A 
ATOM      6  C   UNL     1       0.008  -3.981  -8.323  0.00  0.00    +0.010 A 
ATOM      7  C   UNL     1       0.560  -6.116  -9.522  0.00  0.00    +0.123 C 
ATOM      8  N   UNL     1      -0.265  -6.471 -10.683  0.00  0.00    -0.290 NA
ATOM      9  C   UNL     1       0.487  -6.443 -11.934  0.00  0.00    +0.126 C 
ATOM     10  C   UNL     1       0.903  -5.051 -12.361  0.00  0.00    +0.244 C 
ATOM     11  O   UNL     1       1.834  -4.491 -11.427  0.00  0.00    -0.490 OA
ENDROOT
BRANCH   1  12
ATOM     12  C   UNL     1      -0.561  -1.915  -7.027  0.00  0.00    -0.043 C 
BRANCH  12  17
ATOM     13  C   UNL     1       0.690  -1.257  -3.551  0.00  0.00    +0.059 C 
ATOM     14  C   UNL     1       1.902  -0.390  -3.903  0.00  0.00    +0.009 C 
ATOM     15  C   UNL     1       2.553  -0.934  -5.178  0.00  0.00    -0.018 C 
ATOM     16  C   UNL     1       1.515  -0.963  -6.302  0.00  0.00    -0.078 C 
ATOM     17  N   UNL     1       0.395  -1.829  -5.915  0.00  0.00    +0.383 N 
ATOM     18  C   UNL     1      -0.279  -1.275  -4.735  0.00  0.00    -0.066 C 
ATOM     19  H   UNL     1       0.742  -2.751  -5.701  0.00  0.00    -0.081 HD
BRANCH  13  21
ATOM     20  N   UNL     1       0.548  -0.825  -1.120  0.00  0.00    -0.302 N 
ATOM     21  C   UNL     1      -0.003  -0.685  -2.341  0.00  0.00    +0.217 C 
ATOM     22  O   UNL     1      -1.058  -0.099  -2.467  0.00  0.00    -0.275 OA
BRANCH  20  24
ATOM     23  C   UNL     1       0.198   1.099   0.348  0.00  0.00    +0.024 C 
ATOM     24  C   UNL     1      -0.172  -0.358   0.067  0.00  0.00    +0.104 C 
ENDBRANCH  20  24
BRANCH  20  25
ATOM     25  C   UNL     1       1.868  -1.444  -0.978  0.00  0.00    +0.104 C 
ATOM     26  C   UNL     1       1.703  -2.929  -0.647  0.00  0.00    +0.024 C 
ENDBRANCH  20  25
ENDBRANCH  13  21
ENDBRANCH  12  17
ENDBRANCH   1  12
BRANCH   8  27
ATOM     27  C   UNL     1      -0.915  -7.774 -10.488  0.00  0.00    +0.127 C 
BRANCH  27  28
ATOM     28  C   UNL     1      -1.936  -7.993 -11.574  0.00  0.00    +0.006 A 
ATOM     29  C   UNL     1      -1.779  -8.578 -12.786  0.00  0.00    +0.014 A 
ATOM     30  C   UNL     1      -2.868  -8.672 -13.633  0.00  0.00    +0.031 A 
ATOM     31  C   UNL     1      -4.066  -8.171 -13.220  0.00  0.00    +0.072 A 
ATOM     32  S   UNL     1      -3.667  -7.555 -11.593  0.00  0.00    -0.077 S 
BRANCH  31  33
ATOM     33  N   UNL     1      -5.290  -8.151 -13.894  0.00  0.00    -0.280 N 
ATOM     34  C   UNL     1      -6.372  -7.603 -13.307  0.00  0.00    +0.214 C 
ATOM     35  O   UNL     1      -6.284  -7.127 -12.195  0.00  0.00    -0.276 OA
ATOM     36  C   UNL     1      -7.693  -7.580 -14.033  0.00  0.00    +0.109 C 
ATOM     37  H   UNL     1      -5.361  -8.531 -14.783  0.00  0.00    +0.155 HD
ENDBRANCH  31  33
ENDBRANCH  27  28
ENDBRANCH   8  27
TORSDOF 8
