REMARK  Name = ZINC09170806
REMARK  9 active torsions:
REMARK  status: ('A' for Active; 'I' for Inactive)
REMARK    1  A    between atoms: C_1  and  O_2
REMARK    2  A    between atoms: O_2  and  C_3
REMARK    3  A    between atoms: C_8  and  O_9
REMARK    4  A    between atoms: O_9  and  C_10
REMARK    5  A    between atoms: C_11  and  C_15
REMARK    6  A    between atoms: C_16  and  O_30
REMARK    7  A    between atoms: C_18  and  O_29
REMARK    8  A    between atoms: N_19  and  C_22
REMARK    9  A    between atoms: C_22  and  C_23
REMARK                            x       y       z     vdW  Elec       q    Type
REMARK                         _______ _______ _______ _____ _____    ______ ____
ROOT
ATOM      1  C   UNL     1      -2.928  -0.624   3.349  0.00  0.00    +0.069 A 
ATOM      2  C   UNL     1      -3.736   0.318   3.961  0.00  0.00    +0.224 A 
ATOM      3  N   UNL     1      -4.108   1.412   3.288  0.00  0.00    -0.161 NA
ATOM      4  C   UNL     1      -3.720   1.614   2.049  0.00  0.00    +0.302 A 
ATOM      5  N   UNL     1      -2.927   0.722   1.401  0.00  0.00    -0.258 N 
ATOM      6  C   UNL     1      -2.523  -0.404   2.026  0.00  0.00    +0.262 A 
ATOM      7  O   UNL     1      -1.813  -1.214   1.451  0.00  0.00    -0.267 OA
ENDROOT
BRANCH   1  14
ATOM      8  C   UNL     1       1.733  -1.668   4.718  0.00  0.00    +0.162 A 
ATOM      9  C   UNL     1       1.151  -2.864   4.336  0.00  0.00    +0.053 A 
ATOM     10  C   UNL     1      -0.217  -2.942   4.126  0.00  0.00    -0.044 A 
ATOM     11  C   UNL     1      -1.006  -1.825   4.300  0.00  0.00    -0.050 A 
ATOM     12  C   UNL     1      -0.427  -0.623   4.682  0.00  0.00    +0.052 A 
ATOM     13  C   UNL     1       0.938  -0.539   4.891  0.00  0.00    +0.162 A 
ATOM     14  C   UNL     1      -2.497  -1.864   4.089  0.00  0.00    +0.001 C 
ATOM     15  C   UNL     1      -2.316  -4.262   3.927  0.00  0.00    -0.077 C 
ATOM     16  C   UNL     1      -0.803  -4.266   3.706  0.00  0.00    +0.016 C 
ATOM     17  N   UNL     1      -2.877  -3.048   3.306  0.00  0.00    +0.387 N 
ATOM     18  H   UNL     1      -2.514  -2.955   2.350  0.00  0.00    -0.085 HD
ATOM     19  H   UNL     1      -3.901  -3.123   3.277  0.00  0.00    -0.085 HD
BRANCH   8  21
ATOM     20  C   UNL     1       3.827  -2.796   4.726  0.00  0.00    +0.277 C 
ATOM     21  O   UNL     1       3.076  -1.596   4.923  0.00  0.00    -0.491 OA
ENDBRANCH   8  21
BRANCH  13  22
ATOM     22  O   UNL     1       1.500   0.641   5.264  0.00  0.00    -0.491 OA
ATOM     23  C   UNL     1       0.622   1.757   5.422  0.00  0.00    +0.277 C 
ENDBRANCH  13  22
ENDBRANCH   1  14
BRANCH   4  24
ATOM     24  O   UNL     1      -4.119   2.731   1.407  0.00  0.00    -0.479 OA
ATOM     25  H   UNL     1      -4.683   3.343   1.899  0.00  0.00    +0.295 HD
ENDBRANCH   4  24
BRANCH   2  26
ATOM     26  O   UNL     1      -4.148   0.133   5.237  0.00  0.00    -0.492 OA
ATOM     27  H   UNL     1      -4.708   0.844   5.577  0.00  0.00    +0.294 HD
ENDBRANCH   2  26
BRANCH   5  28
ATOM     28  C   UNL     1      -2.514   0.980   0.019  0.00  0.00    +0.165 C 
BRANCH  28  29
ATOM     29  C   UNL     1      -1.219   1.751   0.017  0.00  0.00    -0.028 A 
ATOM     30  C   UNL     1      -0.013   1.076   0.008  0.00  0.00    +0.005 A 
ATOM     31  C   UNL     1       1.175   1.783   0.000  0.00  0.00    +0.000 A 
ATOM     32  C   UNL     1       1.156   3.165   0.008  0.00  0.00    +0.000 A 
ATOM     33  C   UNL     1      -0.050   3.840   0.023  0.00  0.00    +0.000 A 
ATOM     34  C   UNL     1      -1.238   3.133   0.029  0.00  0.00    +0.005 A 
ENDBRANCH  28  29
ENDBRANCH   5  28
TORSDOF 7
