REMARK  Name = ZINC09824377
REMARK  6 active torsions:
REMARK  status: ('A' for Active; 'I' for Inactive)
REMARK    1  A    between atoms: C_1  and  C_2
REMARK    2  A    between atoms: N_11  and  C_15
REMARK    3  A    between atoms: C_15  and  C_16
REMARK    4  A    between atoms: N_18  and  C_19
REMARK    5  A    between atoms: C_23  and  S_25
REMARK    6  A    between atoms: S_25  and  N_28
REMARK                            x       y       z     vdW  Elec       q    Type
REMARK                         _______ _______ _______ _____ _____    ______ ____
ROOT
ATOM      1  C   UNL     1      -1.202   1.598   0.017  0.00  0.00    +0.235 C 
ATOM      2  O   UNL     1      -1.247   2.807  -0.067  0.00  0.00    -0.274 OA
ATOM      3  N   UNL     1      -0.011   0.966   0.007  0.00  0.00    -0.284 N 
ATOM      4  H   UNL     1       0.024  -0.004   0.007  0.00  0.00    +0.155 HD
ENDROOT
BRANCH   3   5
ATOM      5  C   UNL     1       1.175   1.708  -0.008  0.00  0.00    +0.035 A 
ATOM      6  C   UNL     1       1.238   2.906  -0.708  0.00  0.00    +0.023 A 
ATOM      7  C   UNL     1       2.408   3.639  -0.717  0.00  0.00    +0.004 A 
ATOM      8  C   UNL     1       3.520   3.176  -0.038  0.00  0.00    +0.029 A 
ATOM      9  C   UNL     1       3.463   1.981   0.656  0.00  0.00    +0.110 A 
ATOM     10  C   UNL     1       2.294   1.246   0.673  0.00  0.00    +0.052 A 
BRANCH   9  11
ATOM     11  S   UNL     1       4.883   1.396   1.520  0.00  0.00    +0.073 S 
ATOM     12  O   UNL     1       5.685   2.535   1.801  0.00  0.00    -0.150 OA
ATOM     13  O   UNL     1       4.409   0.527   2.539  0.00  0.00    -0.150 OA
BRANCH  11  14
ATOM     14  N   UNL     1       5.746   0.458   0.463  0.00  0.00    -0.205 N 
ATOM     15  C   UNL     1       6.312   1.023  -0.650  0.00  0.00    +0.088 C 
ATOM     16  C   UNL     1       6.936   2.586  -2.203  0.00  0.00    +0.114 C 
ATOM     17  C   UNL     1       7.165   1.222  -2.894  0.00  0.00    +0.028 C 
ATOM     18  C   UNL     1       7.125   0.265  -1.676  0.00  0.00    +0.072 C 
ATOM     19  H   UNL     1       5.851  -0.491   0.631  0.00  0.00    +0.175 HD
ATOM     20  N   UNL     1       6.219   2.283  -0.946  0.00  0.00    -0.375 N 
ATOM     21  H   UNL     1       5.715   2.977  -0.382  0.00  0.00    +0.161 HD
ENDBRANCH  11  14
ENDBRANCH   9  11
ENDBRANCH   3   5
BRANCH   1  22
ATOM     22  C   UNL     1      -2.476   0.802   0.132  0.00  0.00    +0.214 C 
BRANCH  22  32
ATOM     23  C   UNL     1      -3.814   4.974  -0.691  0.00  0.00    +0.010 C 
ATOM     24  C   UNL     1      -5.177   4.424  -1.115  0.00  0.00    +0.018 C 
ATOM     25  C   UNL     1      -6.282   5.351  -0.605  0.00  0.00    +0.006 C 
ATOM     26  C   UNL     1      -7.646   4.790  -1.012  0.00  0.00    +0.000 C 
ATOM     27  C   UNL     1      -7.832   3.402  -0.394  0.00  0.00    +0.003 C 
ATOM     28  C   UNL     1      -6.733   2.467  -0.904  0.00  0.00    +0.035 C 
ATOM     29  C   UNL     1      -5.367   3.030  -0.527  0.00  0.00    +0.115 C 
ATOM     30  C   UNL     1      -4.268   2.105  -0.998  0.00  0.00    +0.247 C 
ATOM     31  O   UNL     1      -4.019   1.783  -2.140  0.00  0.00    -0.273 OA
ATOM     32  N   UNL     1      -3.623   1.713   0.120  0.00  0.00    -0.215 N 
ATOM     33  C   UNL     1      -4.165   2.255   1.218  0.00  0.00    +0.310 C 
ATOM     34  O   UNL     1      -3.761   2.047   2.345  0.00  0.00    -0.252 OA
ATOM     35  N   UNL     1      -5.207   3.060   0.932  0.00  0.00    -0.285 N 
ATOM     36  H   UNL     1      -5.747   3.558   1.566  0.00  0.00    +0.151 HD
ENDBRANCH  22  32
ENDBRANCH   1  22
TORSDOF 5
