REMARK  Name = ZINC62559907
REMARK  3 active torsions:
REMARK  status: ('A' for Active; 'I' for Inactive)
REMARK    1  A    between atoms: C_1  and  C_2
REMARK    2  A    between atoms: C_12  and  C_14
REMARK    3  A    between atoms: C_20  and  C_22
REMARK                            x       y       z     vdW  Elec       q    Type
REMARK                         _______ _______ _______ _____ _____    ______ ____
ROOT
ATOM      1  C   UNL     1      -0.105   1.510   0.027  0.00  0.00    +0.044 C 
ATOM      2  C   UNL     1      -0.061   0.003   0.013  0.00  0.00    -0.048 A 
ATOM      3  C   UNL     1      -0.057  -0.676  -1.191  0.00  0.00    +0.007 A 
ATOM      4  C   UNL     1      -0.018  -2.058  -1.212  0.00  0.00    +0.048 A 
ATOM      5  C   UNL     1       0.017  -2.769  -0.022  0.00  0.00    +0.142 A 
ATOM      6  C   UNL     1       0.015  -2.083   1.189  0.00  0.00    +0.079 A 
ATOM      7  C   UNL     1      -0.020  -0.698   1.204  0.00  0.00    +0.030 A 
ATOM      8  N   UNL     1       0.059  -2.800   2.397  0.00  0.00    -0.265 N 
ATOM      9  C   UNL     1      -0.208  -4.247   2.343  0.00  0.00    +0.154 C 
ATOM     10  C   UNL     1       0.522  -4.808   1.114  0.00  0.00    +0.248 C 
ATOM     11  O   UNL     1       0.051  -4.128  -0.052  0.00  0.00    -0.489 OA
ATOM     12  C   UNL     1       0.335  -2.184   3.564  0.00  0.00    +0.223 C 
ATOM     13  O   UNL     1       0.659  -1.016   3.571  0.00  0.00    -0.275 OA
ENDROOT
BRANCH  12  14
ATOM     14  C   UNL     1       0.242  -2.949   4.859  0.00  0.00    +0.078 C 
ATOM     15  C   UNL     1      -1.186  -3.468   5.043  0.00  0.00    +0.032 C 
ATOM     16  C   UNL     1      -1.268  -4.274   6.343  0.00  0.00    +0.109 C 
ATOM     17  N   UNL     1      -0.784  -3.437   7.450  0.00  0.00    -0.294 N 
ATOM     18  C   UNL     1       0.541  -2.813   7.335  0.00  0.00    +0.109 C 
ATOM     19  C   UNL     1       0.604  -2.024   6.024  0.00  0.00    +0.032 C 
ATOM     20  C   UNL     1      -1.541  -3.244   8.548  0.00  0.00    +0.320 C 
ATOM     21  O   UNL     1      -2.634  -3.764   8.630  0.00  0.00    -0.266 OA
BRANCH  20  22
ATOM     22  C   UNL     1      -1.030  -2.383   9.674  0.00  0.00    +0.470 C 
ATOM     23  F   UNL     1      -1.986  -2.334  10.694  0.00  0.00    -0.162 F 
ATOM     24  F   UNL     1       0.158  -2.925  10.174  0.00  0.00    -0.162 F 
ATOM     25  F   UNL     1      -0.789  -1.089   9.199  0.00  0.00    -0.162 F 
ENDBRANCH  20  22
ENDBRANCH  12  14
TORSDOF 2
