REMARK  Name = ZINC29834449
REMARK  9 active torsions:
REMARK  status: ('A' for Active; 'I' for Inactive)
REMARK    1  A    between atoms: C_1  and  C_2
REMARK    2  A    between atoms: C_8  and  S_12
REMARK    3  A    between atoms: S_12  and  N_15
REMARK    4  A    between atoms: N_18  and  C_21
REMARK    5  A    between atoms: C_21  and  C_22
REMARK    6  A    between atoms: N_24  and  C_25
REMARK    7  A    between atoms: C_30  and  S_31
REMARK    8  A    between atoms: S_31  and  C_32
REMARK    9  A    between atoms: C_32  and  C_33
REMARK                            x       y       z     vdW  Elec       q    Type
REMARK                         _______ _______ _______ _____ _____    ______ ____
ROOT
ATOM      1  N   UNL     1       4.809  -0.181   0.683  0.00  0.00    -0.180 NA
ATOM      2  C   UNL     1       4.795   0.717  -0.481  0.00  0.00    +0.091 C 
ATOM      3  C   UNL     1       3.674   1.744  -0.291  0.00  0.00    -0.061 C 
ATOM      4  N   UNL     1       2.410   1.042  -0.033  0.00  0.00    +0.387 N 
ATOM      5  C   UNL     1       2.473   0.271   1.216  0.00  0.00    -0.061 C 
ATOM      6  C   UNL     1       3.545  -0.817   1.087  0.00  0.00    +0.091 C 
ATOM      7  H   UNL     1       2.248   0.331  -0.857  0.00  0.00    -0.081 HD
ENDROOT
BRANCH   1   8
ATOM      8  S   UNL     1       6.210  -0.469   1.518  0.00  0.00    +0.063 S 
ATOM      9  O   UNL     1       6.046  -1.724   2.166  0.00  0.00    -0.153 OA
ATOM     10  O   UNL     1       7.279  -0.211   0.619  0.00  0.00    -0.153 OA
BRANCH   8  18
ATOM     11  C   UNL     1       6.897   6.201   1.439  0.00  0.00    +0.045 C 
ATOM     12  C   UNL     1       6.743   4.758   1.844  0.00  0.00    -0.032 A 
ATOM     13  C   UNL     1       6.690   4.421   3.167  0.00  0.00    +0.015 A 
ATOM     14  C   UNL     1       6.546   3.061   3.500  0.00  0.00    +0.003 A 
ATOM     15  C   UNL     1       6.484   2.639   4.838  0.00  0.00    +0.010 A 
ATOM     16  C   UNL     1       6.345   1.314   5.120  0.00  0.00    +0.003 A 
ATOM     17  C   UNL     1       6.262   0.371   4.098  0.00  0.00    +0.031 A 
ATOM     18  C   UNL     1       6.317   0.745   2.791  0.00  0.00    +0.131 A 
ATOM     19  C   UNL     1       6.466   2.103   2.459  0.00  0.00    +0.097 A 
ATOM     20  N   UNL     1       6.519   2.500   1.184  0.00  0.00    -0.253 NA
ATOM     21  C   UNL     1       6.654   3.766   0.870  0.00  0.00    +0.114 A 
ENDBRANCH   8  18
ENDBRANCH   1   8
BRANCH   4  22
ATOM     22  C   UNL     1       1.280   1.981  -0.015  0.00  0.00    +0.019 C 
BRANCH  22  23
ATOM     23  C   UNL     1      -0.014   1.209   0.005  0.00  0.00    +0.201 C 
ATOM     24  O   UNL     1       0.003  -0.004   0.005  0.00  0.00    -0.278 OA
ATOM     25  N   UNL     1      -1.191   1.867   0.018  0.00  0.00    -0.286 N 
ATOM     26  H   UNL     1      -1.207   2.963   0.110  0.00  0.00    +0.155 HD
BRANCH  25  27
ATOM     27  C   UNL     1      -2.393   1.154  -0.086  0.00  0.00    +0.047 A 
ATOM     28  C   UNL     1      -2.413  -0.090  -0.698  0.00  0.00    +0.024 A 
ATOM     29  C   UNL     1      -3.599  -0.794  -0.794  0.00  0.00    +0.002 A 
ATOM     30  C   UNL     1      -4.770  -0.256  -0.292  0.00  0.00    +0.001 A 
ATOM     31  C   UNL     1      -4.761   0.986   0.314  0.00  0.00    +0.016 A 
ATOM     32  C   UNL     1      -3.574   1.697   0.420  0.00  0.00    +0.030 A 
BRANCH  32  33
ATOM     33  S   UNL     1      -3.559   3.281   1.192  0.00  0.00    -0.108 S 
BRANCH  33  34
ATOM     34  C   UNL     1      -5.286   3.550   1.676  0.00  0.00    +0.192 C 
BRANCH  34  35
ATOM     35  C   UNL     1      -5.412   4.857   2.341  0.00  0.00    +0.074 C 
ATOM     36  N   UNL     1      -5.508   5.866   2.854  0.00  0.00    -0.196 NA
ENDBRANCH  34  35
ENDBRANCH  33  34
ENDBRANCH  32  33
ENDBRANCH  25  27
ENDBRANCH  22  23
ENDBRANCH   4  22
TORSDOF 8
