REMARK  Name = ZINC35427325
REMARK  6 active torsions:
REMARK  status: ('A' for Active; 'I' for Inactive)
REMARK    1  A    between atoms: C_1  and  C_2
REMARK    2  A    between atoms: C_5  and  N_9
REMARK    3  A    between atoms: C_24  and  C_26
REMARK    4  A    between atoms: C_30  and  O_32
REMARK    5  A    between atoms: O_32  and  C_33
REMARK    6  A    between atoms: N_35  and  C_38
REMARK                            x       y       z     vdW  Elec       q    Type
REMARK                         _______ _______ _______ _____ _____    ______ ____
ROOT
ATOM      1  N   UNL     1       0.052  -3.678   0.724  0.00  0.00    -0.269 N 
ATOM      2  C   UNL     1       0.141  -4.620   1.683  0.00  0.00    +0.308 C 
ATOM      3  O   UNL     1       0.058  -4.305   2.855  0.00  0.00    -0.252 OA
ATOM      4  N   UNL     1       0.321  -5.912   1.344  0.00  0.00    -0.268 N 
ATOM      5  C   UNL     1       0.432  -6.333  -0.064  0.00  0.00    +0.148 C 
ATOM      6  C   UNL     1       1.477  -7.406  -0.274  0.00  0.00    +0.004 A 
ATOM      7  C   UNL     1       2.687  -7.182  -0.957  0.00  0.00    -0.034 A 
ATOM      8  C   UNL     1       3.539  -8.232  -1.102  0.00  0.00    -0.021 A 
ATOM      9  S   UNL     1       2.704  -9.569  -0.289  0.00  0.00    -0.077 S 
ATOM     10  C   UNL     1       1.272  -8.663   0.209  0.00  0.00    +0.090 A 
ATOM     11  N   UNL     1       0.156  -9.043   0.944  0.00  0.00    -0.312 N 
ATOM     12  C   UNL     1      -0.648 -10.127   0.856  0.00  0.00    +0.092 A 
ATOM     13  C   UNL     1      -1.641  -9.986   1.764  0.00  0.00    +0.020 A 
ATOM     14  C   UNL     1      -1.422  -8.771   2.449  0.00  0.00    +0.025 A 
ATOM     15  C   UNL     1      -0.305  -8.224   1.949  0.00  0.00    +0.049 A 
ATOM     16  C   UNL     1       0.423  -6.978   2.370  0.00  0.00    +0.155 C 
ATOM     17  C   UNL     1       4.862  -8.225  -1.794  0.00  0.00    -0.036 C 
ATOM     18  N   UNL     1       4.950  -7.001  -2.612  0.00  0.00    +0.381 N 
ATOM     19  C   UNL     1       4.587  -5.838  -1.793  0.00  0.00    -0.074 C 
ATOM     20  C   UNL     1       3.078  -5.822  -1.532  0.00  0.00    +0.018 C 
ATOM     21  C   UNL     1       6.323  -6.841  -3.108  0.00  0.00    -0.096 C 
ATOM     22  H   UNL     1       0.045  -3.937  -0.211  0.00  0.00    +0.156 HD
ATOM     23  H   UNL     1       4.316  -7.073  -3.394  0.00  0.00    -0.082 HD
ENDROOT
BRANCH   1  28
ATOM     24  C   UNL     1      -0.270   1.804   2.157  0.00  0.00    +0.047 C 
ATOM     25  C   UNL     1      -0.185   0.348   1.776  0.00  0.00    -0.015 A 
ATOM     26  C   UNL     1       0.531  -0.531   2.567  0.00  0.00    +0.008 A 
ATOM     27  C   UNL     1       0.611  -1.866   2.221  0.00  0.00    +0.024 A 
ATOM     28  C   UNL     1      -0.028  -2.326   1.077  0.00  0.00    +0.038 A 
ATOM     29  C   UNL     1      -0.747  -1.442   0.284  0.00  0.00    +0.062 A 
ATOM     30  C   UNL     1      -0.829  -0.107   0.638  0.00  0.00    +0.128 A 
ATOM     31  F   UNL     1      -1.533   0.753  -0.130  0.00  0.00    -0.205 F 
ENDBRANCH   1  28
BRANCH  16  32
ATOM     32  C   UNL     1       1.876  -7.305   2.595  0.00  0.00    -0.018 A 
ATOM     33  C   UNL     1       2.847  -6.356   2.332  0.00  0.00    +0.006 A 
ATOM     34  C   UNL     1       4.181  -6.653   2.537  0.00  0.00    +0.004 A 
ATOM     35  C   UNL     1       4.549  -7.899   3.007  0.00  0.00    +0.045 A 
ATOM     36  C   UNL     1       3.577  -8.853   3.272  0.00  0.00    +0.120 A 
ATOM     37  C   UNL     1       2.238  -8.551   3.071  0.00  0.00    +0.051 A 
BRANCH  36  38
ATOM     38  O   UNL     1       3.936 -10.080   3.734  0.00  0.00    -0.495 OA
ATOM     39  C   UNL     1       5.332 -10.319   3.924  0.00  0.00    +0.277 C 
ENDBRANCH  36  38
ENDBRANCH  16  32
TORSDOF 3
