REMARK  Name = ZINC63980149
REMARK  5 active torsions:
REMARK  status: ('A' for Active; 'I' for Inactive)
REMARK    1  A    between atoms: C_1  and  C_2
REMARK    2  A    between atoms: C_7  and  C_27
REMARK    3  A    between atoms: N_15  and  C_16
REMARK    4  A    between atoms: C_16  and  C_17
REMARK    5  A    between atoms: C_17  and  C_18
REMARK                            x       y       z     vdW  Elec       q    Type
REMARK                         _______ _______ _______ _____ _____    ______ ____
ROOT
ATOM      1  C   UNL     1       1.389   1.409   0.317  0.00  0.00    +0.060 C 
ATOM      2  C   UNL     1       1.040  -0.054   0.223  0.00  0.00    +0.008 C 
ATOM      3  C   UNL     1       0.982  -0.637  -0.987  0.00  0.00    +0.085 C 
ATOM      4  C   UNL     1       0.696  -2.011  -1.150  0.00  0.00    +0.245 C 
ATOM      5  O   UNL     1       0.636  -2.491  -2.268  0.00  0.00    -0.270 OA
ATOM      6  N   UNL     1       0.491  -2.789  -0.075  0.00  0.00    -0.238 N 
ATOM      7  C   UNL     1       0.378  -4.248  -0.179  0.00  0.00    +0.198 C 
ATOM      8  N   UNL     1       1.389  -4.808   0.738  0.00  0.00    -0.295 N 
ATOM      9  C   UNL     1       1.645  -4.152   1.918  0.00  0.00    +0.180 C 
ATOM     10  N   UNL     1       1.232  -2.953   2.168  0.00  0.00    -0.215 NA
ATOM     11  C   UNL     1       0.412  -2.171   1.255  0.00  0.00    +0.290 C 
ATOM     12  N   UNL     1       0.796  -0.758   1.371  0.00  0.00    -0.311 N 
ATOM     13  N   UNL     1       2.377  -4.804   2.881  0.00  0.00    -0.317 N 
ATOM     14  H   UNL     1       0.871  -0.333   2.239  0.00  0.00    +0.149 HD
ATOM     15  H   UNL     1       2.699  -5.705   2.719  0.00  0.00    +0.149 HD
ATOM     16  H   UNL     1       1.865  -5.623   0.512  0.00  0.00    +0.151 HD
ENDROOT
BRANCH   7  17
ATOM     17  C   UNL     1       0.657  -4.690  -1.593  0.00  0.00    -0.009 A 
ATOM     18  C   UNL     1       1.939  -4.604  -2.103  0.00  0.00    +0.008 A 
ATOM     19  C   UNL     1       2.195  -5.009  -3.399  0.00  0.00    +0.020 A 
ATOM     20  C   UNL     1       1.169  -5.500  -4.186  0.00  0.00    +0.041 A 
ATOM     21  C   UNL     1      -0.114  -5.585  -3.675  0.00  0.00    +0.020 A 
ATOM     22  C   UNL     1      -0.368  -5.185  -2.377  0.00  0.00    +0.008 A 
ATOM     23 CL   UNL     1       1.490  -6.008  -5.815  0.00  0.00    -0.084 Cl
ENDBRANCH   7  17
BRANCH  13  24
ATOM     24  C   UNL     1       2.671  -4.139   4.153  0.00  0.00    +0.108 C 
BRANCH  24  25
ATOM     25  C   UNL     1       3.493  -5.076   5.041  0.00  0.00    +0.052 C 
BRANCH  25  26
ATOM     26  C   UNL     1       3.796  -4.392   6.349  0.00  0.00    -0.040 C 
ATOM     27  C   UNL     1       3.101  -4.503   7.504  0.00  0.00    -0.001 A 
ATOM     28  C   UNL     1       1.902  -5.264   7.874  0.00  0.00    +0.010 A 
ATOM     29  C   UNL     1       1.430  -5.171   9.138  0.00  0.00    +0.001 A 
ATOM     30  C   UNL     1       2.055  -4.367  10.101  0.00  0.00    +0.002 A 
ATOM     31  C   UNL     1       3.161  -3.639   9.837  0.00  0.00    +0.026 A 
ATOM     32  C   UNL     1       3.743  -3.662   8.540  0.00  0.00    +0.043 A 
ATOM     33  N   UNL     1       4.794  -3.055   8.044  0.00  0.00    -0.380 N 
ATOM     34  C   UNL     1       4.941  -3.447   6.638  0.00  0.00    +0.144 C 
ATOM     35  H   UNL     1       5.379  -2.451   8.527  0.00  0.00    +0.160 HD
ENDBRANCH  25  26
ENDBRANCH  24  25
ENDBRANCH  13  24
TORSDOF 4
