REMARK  Name = ZINC00632070
REMARK  10 active torsions:
REMARK  status: ('A' for Active; 'I' for Inactive)
REMARK    1  A    between atoms: C_1  and  C_2
REMARK    2  A    between atoms: C_3  and  N_15
REMARK    3  A    between atoms: N_6  and  C_9
REMARK    4  A    between atoms: N_7  and  C_8
REMARK    5  A    between atoms: C_16  and  C_18
REMARK    6  A    between atoms: C_18  and  S_19
REMARK    7  A    between atoms: S_19  and  C_20
REMARK    8  A    between atoms: C_24  and  C_27
REMARK    9  A    between atoms: N_35  and  C_36
REMARK   10  A    between atoms: C_36  and  C_37
REMARK                            x       y       z     vdW  Elec       q    Type
REMARK                         _______ _______ _______ _____ _____    ______ ____
ROOT
ATOM      1  S   UNL     1       1.206  -3.017  -1.433  0.00  0.00    -0.078 S 
ENDROOT
BRANCH   1   2
ATOM      2  C   UNL     1       0.539  -4.647  -1.492  0.00  0.00    +0.173 A 
ATOM      3  N   UNL     1      -0.683  -4.866  -1.050  0.00  0.00    -0.216 NA
ATOM      4  C   UNL     1      -1.212  -6.084  -1.083  0.00  0.00    +0.117 A 
ATOM      5  C   UNL     1      -0.505  -7.190  -1.586  0.00  0.00    +0.080 A 
ATOM      6  C   UNL     1      -1.232  -8.455  -1.550  0.00  0.00    +0.004 A 
ATOM      7  C   UNL     1      -2.491  -8.469  -1.052  0.00  0.00    +0.056 A 
ATOM      8  S   UNL     1      -2.775  -6.769  -0.598  0.00  0.00    -0.076 S 
ATOM      9  C   UNL     1       0.817  -6.922  -2.059  0.00  0.00    +0.264 A 
ATOM     10  O   UNL     1       1.504  -7.822  -2.512  0.00  0.00    -0.267 OA
ATOM     11  N   UNL     1       1.292  -5.665  -2.002  0.00  0.00    -0.283 N 
BRANCH   6  12
ATOM     12  C   UNL     1      -0.604  -9.701  -2.050  0.00  0.00    -0.017 A 
ATOM     13  C   UNL     1      -0.005  -9.727  -3.308  0.00  0.00    +0.008 A 
ATOM     14  C   UNL     1       0.583 -10.889  -3.766  0.00  0.00    +0.001 A 
ATOM     15  C   UNL     1       0.568 -12.030  -2.983  0.00  0.00    +0.000 A 
ATOM     16  C   UNL     1      -0.030 -12.011  -1.736  0.00  0.00    +0.001 A 
ATOM     17  C   UNL     1      -0.616 -10.854  -1.265  0.00  0.00    +0.008 A 
ENDBRANCH   6  12
BRANCH  11  18
ATOM     18  C   UNL     1       2.644  -5.384  -2.491  0.00  0.00    +0.154 C 
BRANCH  18  19
ATOM     19  C   UNL     1       3.630  -5.549  -1.364  0.00  0.00    -0.013 C 
ATOM     20  C   UNL     1       4.650  -6.359  -1.500  0.00  0.00    +0.005 C 
ENDBRANCH  18  19
ENDBRANCH  11  18
ENDBRANCH   1   2
BRANCH   1  21
ATOM     21  C   UNL     1      -0.192  -2.132  -0.699  0.00  0.00    +0.173 C 
BRANCH  21  23
ATOM     22  N   UNL     1      -0.736   0.184  -0.020  0.00  0.00    -0.279 N 
ATOM     23  C   UNL     1       0.160  -0.674  -0.548  0.00  0.00    +0.228 C 
ATOM     24  O   UNL     1       1.248  -0.273  -0.901  0.00  0.00    -0.275 OA
ATOM     25  H   UNL     1      -1.575  -0.149   0.335  0.00  0.00    +0.155 HD
BRANCH  22  28
ATOM     26  C   UNL     1      -0.650   1.883   2.534  0.00  0.00    +0.067 C 
ATOM     27  C   UNL     1      -0.406   2.344   1.120  0.00  0.00    +0.059 A 
ATOM     28  C   UNL     1      -0.452   1.563   0.017  0.00  0.00    +0.121 A 
ATOM     29  C   UNL     1      -0.160   2.420  -1.133  0.00  0.00    +0.293 A 
ATOM     30  O   UNL     1      -0.114   2.076  -2.300  0.00  0.00    -0.264 OA
ATOM     31  N   UNL     1       0.050   3.663  -0.652  0.00  0.00    -0.216 N 
ATOM     32  N   UNL     1      -0.097   3.622   0.739  0.00  0.00    -0.282 N 
ATOM     33  C   UNL     1       0.049   4.766   1.642  0.00  0.00    +0.171 C 
BRANCH  31  34
ATOM     34  C   UNL     1       0.361   4.796  -1.412  0.00  0.00    +0.067 A 
ATOM     35  C   UNL     1      -0.347   5.976  -1.223  0.00  0.00    +0.028 A 
ATOM     36  C   UNL     1      -0.034   7.094  -1.971  0.00  0.00    +0.002 A 
ATOM     37  C   UNL     1       0.975   7.036  -2.915  0.00  0.00    +0.000 A 
ATOM     38  C   UNL     1       1.677   5.861  -3.110  0.00  0.00    +0.002 A 
ATOM     39  C   UNL     1       1.373   4.741  -2.361  0.00  0.00    +0.028 A 
ENDBRANCH  31  34
ENDBRANCH  22  28
ENDBRANCH  21  23
ENDBRANCH   1  21
TORSDOF 8
