REMARK  Name = ZINC13785724
REMARK  6 active torsions:
REMARK  status: ('A' for Active; 'I' for Inactive)
REMARK    1  A    between atoms: C_1  and  C_2
REMARK    2  A    between atoms: C_3  and  N_15
REMARK    3  A    between atoms: N_6  and  C_9
REMARK    4  A    between atoms: N_7  and  C_8
REMARK    5  A    between atoms: N_15  and  C_16
REMARK    6  A    between atoms: N_23  and  C_26
REMARK                            x       y       z     vdW  Elec       q    Type
REMARK                         _______ _______ _______ _____ _____    ______ ____
ROOT
ATOM      1  C   UNL     1       0.427  -1.334  -2.971  0.00  0.00    +0.090 C 
ATOM      2  C   UNL     1       0.570  -1.091  -4.327  0.00  0.00    +0.113 C 
ATOM      3  C   UNL     1       0.429   0.266  -4.884  0.00  0.00    +0.258 C 
ATOM      4  O   UNL     1       0.182   1.214  -4.163  0.00  0.00    -0.270 OA
ATOM      5  N   UNL     1       0.581   0.428  -6.214  0.00  0.00    -0.235 N 
ATOM      6  C   UNL     1       0.853  -0.609  -7.020  0.00  0.00    +0.320 C 
ATOM      7  O   UNL     1       0.978  -0.395  -8.210  0.00  0.00    -0.251 OA
ATOM      8  N   UNL     1       0.994  -1.867  -6.582  0.00  0.00    -0.190 N 
ATOM      9  C   UNL     1       0.875  -2.177  -5.274  0.00  0.00    +0.265 C 
ATOM     10  O   UNL     1       1.010  -3.323  -4.888  0.00  0.00    -0.269 OA
ATOM     11  H   UNL     1       0.491   1.315  -6.597  0.00  0.00    +0.159 HD
ENDROOT
BRANCH   8  12
ATOM     12  C   UNL     1       1.278  -2.885  -7.503  0.00  0.00    +0.046 A 
ATOM     13  C   UNL     1       0.331  -3.865  -7.771  0.00  0.00    +0.025 A 
ATOM     14  C   UNL     1       0.613  -4.866  -8.679  0.00  0.00    +0.022 A 
ATOM     15  C   UNL     1       1.838  -4.895  -9.321  0.00  0.00    +0.041 A 
ATOM     16  C   UNL     1       2.784  -3.920  -9.056  0.00  0.00    +0.022 A 
ATOM     17  C   UNL     1       2.504  -2.912  -8.154  0.00  0.00    +0.025 A 
ATOM     18 CL   UNL     1       2.190  -6.156 -10.461  0.00  0.00    -0.084 Cl
ENDBRANCH   8  12
BRANCH   1  19
ATOM     19  N   UNL     1       0.275  -0.306  -2.115  0.00  0.00    -0.314 N 
ATOM     20  H   UNL     1       0.191   0.599  -2.454  0.00  0.00    +0.152 HD
BRANCH  19  23
ATOM     21  C   UNL     1      -0.062   1.870   0.021  0.00  0.00    +0.067 C 
ATOM     22  C   UNL     1       0.090   0.387   0.240  0.00  0.00    +0.059 A 
ATOM     23  C   UNL     1       0.237  -0.544  -0.730  0.00  0.00    +0.119 A 
ATOM     24  C   UNL     1       0.349  -1.845  -0.069  0.00  0.00    +0.293 A 
ATOM     25  O   UNL     1       0.493  -2.925  -0.613  0.00  0.00    -0.264 OA
ATOM     26  N   UNL     1       0.263  -1.619   1.258  0.00  0.00    -0.216 N 
ATOM     27  N   UNL     1       0.108  -0.242   1.456  0.00  0.00    -0.282 N 
ATOM     28  C   UNL     1      -0.018   0.420   2.756  0.00  0.00    +0.171 C 
BRANCH  26  29
ATOM     29  C   UNL     1       0.323  -2.591   2.262  0.00  0.00    +0.067 A 
ATOM     30  C   UNL     1      -0.628  -2.606   3.274  0.00  0.00    +0.028 A 
ATOM     31  C   UNL     1      -0.566  -3.567   4.264  0.00  0.00    +0.002 A 
ATOM     32  C   UNL     1       0.442  -4.513   4.248  0.00  0.00    +0.000 A 
ATOM     33  C   UNL     1       1.391  -4.501   3.242  0.00  0.00    +0.002 A 
ATOM     34  C   UNL     1       1.331  -3.547   2.246  0.00  0.00    +0.028 A 
ENDBRANCH  26  29
ENDBRANCH  19  23
ENDBRANCH   1  19
TORSDOF 4
