REMARK  Name = ZINC62099752
REMARK  5 active torsions:
REMARK  status: ('A' for Active; 'I' for Inactive)
REMARK    1  A    between atoms: C_1  and  C_2
REMARK    2  A    between atoms: C_2  and  C_4
REMARK    3  A    between atoms: C_2  and  N_20
REMARK    4  A    between atoms: C_4  and  C_6
REMARK    5  A    between atoms: C_4  and  N_12
REMARK                            x       y       z     vdW  Elec       q    Type
REMARK                         _______ _______ _______ _____ _____    ______ ____
ROOT
ATOM      1  C   UNL     1       0.675  -0.617   1.232  0.00  0.00    +0.079 C 
ENDROOT
BRANCH   1   2
ATOM      2  N   UNL     1       2.051  -0.114   1.339  0.00  0.00    -0.295 NA
ATOM      3  C   UNL     1       2.076   1.342   1.339  0.00  0.00    +0.094 C 
ATOM      4  C   UNL     1       3.488   1.859   1.050  0.00  0.00    +0.111 C 
ATOM      5  C   UNL     1       4.266   1.877   2.350  0.00  0.00    +0.214 C 
ATOM      6  O   UNL     1       4.561   2.933   2.866  0.00  0.00    -0.276 OA
ATOM      7  N   UNL     1       4.625   0.726   2.927  0.00  0.00    -0.314 N 
ATOM      8  C   UNL     1       4.272  -0.558   2.298  0.00  0.00    +0.119 C 
ATOM      9  C   UNL     1       2.760  -0.765   2.431  0.00  0.00    +0.103 C 
ATOM     10  H   UNL     1       5.120   0.737   3.761  0.00  0.00    +0.149 HD
ENDBRANCH   1   2
BRANCH   1  11
ATOM     11  C   UNL     1       0.693  -2.123   1.181  0.00  0.00    +0.006 A 
ATOM     12  C   UNL     1      -0.149  -3.007   1.770  0.00  0.00    +0.014 A 
ATOM     13  C   UNL     1       0.062  -4.360   1.583  0.00  0.00    +0.023 A 
ATOM     14  C   UNL     1       1.105  -4.763   0.815  0.00  0.00    +0.055 A 
ATOM     15  S   UNL     1       1.824  -3.205   0.323  0.00  0.00    -0.085 S 
ATOM     16 BR   UNL     1       1.651  -6.519   0.375  0.00  0.00    -0.043 Br
ENDBRANCH   1  11
BRANCH   1  18
ATOM     17  C   UNL     1       0.905  -0.423  -1.248  0.00  0.00    -0.012 C 
ATOM     18  C   UNL     1       0.030  -0.071  -0.044  0.00  0.00    -0.056 C 
BRANCH  18  19
ATOM     19  N   UNL     1      -1.301  -0.669  -0.214  0.00  0.00    +0.381 N 
ATOM     20  H   UNL     1      -1.213  -1.671  -0.284  0.00  0.00    -0.090 HD
ATOM     21  H   UNL     1      -1.878  -0.436   0.580  0.00  0.00    -0.090 HD
ATOM     22  H   UNL     1      -1.726  -0.309  -1.055  0.00  0.00    -0.090 HD
ENDBRANCH  18  19
ENDBRANCH   1  18
TORSDOF 4
