REMARK  Name = ZINC67411429
REMARK  11 active torsions:
REMARK  status: ('A' for Active; 'I' for Inactive)
REMARK    1  A    between atoms: C_1  and  C_2
REMARK    2  A    between atoms: N_5  and  C_8
REMARK    3  A    between atoms: C_8  and  C_10
REMARK    4  A    between atoms: C_8  and  C_11
REMARK    5  A    between atoms: C_11  and  N_12
REMARK    6  A    between atoms: N_15  and  C_16
REMARK    7  A    between atoms: C_16  and  C_18
REMARK    8  A    between atoms: C_16  and  C_19
REMARK    9  A    between atoms: C_23  and  S_25
REMARK   10  A    between atoms: S_25  and  N_28
REMARK   11  A    between atoms: N_28  and  C_29
REMARK                            x       y       z     vdW  Elec       q    Type
REMARK                         _______ _______ _______ _____ _____    ______ ____
ROOT
ATOM      1  N   UNL     1       1.955  -3.921   2.403  0.00  0.00    -0.301 N 
ATOM      2  C   UNL     1       2.600  -4.105   3.572  0.00  0.00    +0.300 C 
ATOM      3  O   UNL     1       3.702  -4.619   3.584  0.00  0.00    -0.253 OA
ATOM      4  N   UNL     1       2.024  -3.719   4.728  0.00  0.00    -0.293 N 
ATOM      5  H   UNL     1       1.076  -3.512   2.393  0.00  0.00    +0.150 HD
ATOM      6  H   UNL     1       1.145  -3.309   4.718  0.00  0.00    +0.151 HD
ENDROOT
BRANCH   4   7
ATOM      7  C   UNL     1       2.725  -3.918   5.998  0.00  0.00    +0.102 C 
ATOM      8  C   UNL     1       3.672  -2.742   6.248  0.00  0.00    +0.033 C 
BRANCH   7   9
ATOM      9  C   UNL     1       1.721  -4.001   7.119  0.00  0.00    -0.026 A 
ATOM     10  C   UNL     1       0.619  -3.166   7.123  0.00  0.00    +0.005 A 
ATOM     11  C   UNL     1      -0.302  -3.242   8.150  0.00  0.00    +0.002 A 
ATOM     12  C   UNL     1      -0.122  -4.153   9.174  0.00  0.00    +0.028 A 
ATOM     13  C   UNL     1       0.979  -4.989   9.170  0.00  0.00    +0.106 A 
ATOM     14  C   UNL     1       1.899  -4.915   8.140  0.00  0.00    +0.034 A 
BRANCH  13  15
ATOM     15  S   UNL     1       1.209  -6.150  10.475  0.00  0.00    +0.058 S 
ATOM     16  O   UNL     1       2.600  -6.437  10.523  0.00  0.00    -0.153 OA
ATOM     17  O   UNL     1       0.497  -5.646  11.597  0.00  0.00    -0.153 OA
BRANCH  15  18
ATOM     18  N   UNL     1       0.452  -7.551  10.023  0.00  0.00    -0.193 NA
ATOM     19  C   UNL     1       0.939  -8.307   8.866  0.00  0.00    +0.127 C 
ATOM     20  H   UNL     1      -0.314  -7.872  10.524  0.00  0.00    +0.148 HD
ENDBRANCH  15  18
ENDBRANCH  13  15
ENDBRANCH   7   9
ENDBRANCH   4   7
BRANCH   1  21
ATOM     21  C   UNL     1       2.582  -4.341   1.147  0.00  0.00    +0.090 C 
BRANCH  21  22
ATOM     22  C   UNL     1       1.710  -3.900  -0.030  0.00  0.00    -0.054 C 
ATOM     23  C   UNL     1       2.420  -4.233  -1.344  0.00  0.00    -0.012 C 
BRANCH  22  28
ATOM     24  C   UNL     1       1.235   1.728  -0.822  0.00  0.00    +0.007 C 
ATOM     25  C   UNL     1       1.521   0.239  -1.027  0.00  0.00    -0.018 C 
ATOM     26  C   UNL     1       2.531  -0.238   0.020  0.00  0.00    -0.016 C 
ATOM     27  C   UNL     1       2.752  -1.744  -0.140  0.00  0.00    -0.078 C 
ATOM     28  N   UNL     1       1.479  -2.451   0.048  0.00  0.00    +0.382 N 
ATOM     29  C   UNL     1       0.528  -2.052  -0.997  0.00  0.00    -0.078 C 
ATOM     30  C   UNL     1       0.223  -0.558  -0.869  0.00  0.00    -0.016 C 
ATOM     31  H   UNL     1       1.099  -2.221   0.953  0.00  0.00    -0.081 HD
ENDBRANCH  22  28
ENDBRANCH  21  22
ENDBRANCH   1  21
TORSDOF 7
