REMARK  Name = ZINC59438625
REMARK  10 active torsions:
REMARK  status: ('A' for Active; 'I' for Inactive)
REMARK    1  A    between atoms: C_1  and  O_2
REMARK    2  A    between atoms: O_2  and  C_3
REMARK    3  A    between atoms: C_6  and  C_10
REMARK    4  A    between atoms: N_12  and  C_13
REMARK    5  A    between atoms: C_13  and  N_15
REMARK    6  A    between atoms: N_15  and  C_16
REMARK    7  A    between atoms: C_19  and  N_24
REMARK    8  A    between atoms: C_20  and  O_22
REMARK    9  A    between atoms: O_22  and  C_23
REMARK   10  A    between atoms: C_25  and  C_27
REMARK                            x       y       z     vdW  Elec       q    Type
REMARK                         _______ _______ _______ _____ _____    ______ ____
ROOT
ATOM      1  C   UNL     1       4.090  -6.474   6.409  0.00  0.00    +0.036 A 
ATOM      2  C   UNL     1       4.611  -5.823   7.519  0.00  0.00    +0.025 A 
ATOM      3  C   UNL     1       5.231  -6.548   8.519  0.00  0.00    +0.029 A 
ATOM      4  C   UNL     1       5.333  -7.927   8.415  0.00  0.00    +0.076 A 
ATOM      5  C   UNL     1       4.811  -8.582   7.302  0.00  0.00    +0.143 A 
ATOM      6  C   UNL     1       4.186  -7.855   6.303  0.00  0.00    +0.070 A 
ENDROOT
BRANCH   4   7
ATOM      7  N   UNL     1       5.963  -8.662   9.430  0.00  0.00    -0.276 N 
ATOM      8  C   UNL     1       5.905  -8.234  10.707  0.00  0.00    +0.284 C 
ATOM      9  O   UNL     1       5.352  -7.183  10.972  0.00  0.00    -0.266 OA
ATOM     10  H   UNL     1       6.440  -9.478   9.213  0.00  0.00    +0.155 HD
BRANCH   8  11
ATOM     11  C   UNL     1       6.511  -9.036  11.779  0.00  0.00    +0.191 A 
ATOM     12  C   UNL     1       6.510  -8.708  13.097  0.00  0.00    +0.063 A 
ATOM     13  C   UNL     1       7.219  -9.787  13.784  0.00  0.00    +0.021 A 
ATOM     14  C   UNL     1       7.550 -10.040  15.117  0.00  0.00    +0.011 A 
ATOM     15  C   UNL     1       8.240 -11.174  15.439  0.00  0.00    +0.001 A 
ATOM     16  C   UNL     1       8.614 -12.075  14.451  0.00  0.00    +0.004 A 
ATOM     17  C   UNL     1       8.297 -11.843  13.130  0.00  0.00    +0.047 A 
ATOM     18  C   UNL     1       7.595 -10.697  12.778  0.00  0.00    +0.136 A 
ATOM     19  O   UNL     1       7.148 -10.212  11.603  0.00  0.00    -0.450 OA
ENDBRANCH   8  11
ENDBRANCH   4   7
BRANCH   1  20
ATOM     20  N   UNL     1       3.462  -5.737   5.397  0.00  0.00    -0.296 N 
ATOM     21  H   UNL     1       2.630  -6.053   5.011  0.00  0.00    +0.154 HD
BRANCH  20  22
ATOM     22  C   UNL     1       4.014  -4.588   4.958  0.00  0.00    +0.141 C 
ATOM     23  S   UNL     1       5.433  -3.982   5.701  0.00  0.00    -0.018 S 
BRANCH  22  26
ATOM     24  C   UNL     1       4.002  -2.768   3.497  0.00  0.00    +0.250 C 
ATOM     25  O   UNL     1       5.009  -2.338   4.024  0.00  0.00    -0.270 OA
ATOM     26  N   UNL     1       3.450  -3.916   3.935  0.00  0.00    -0.264 N 
ATOM     27  H   UNL     1       2.646  -4.260   3.515  0.00  0.00    +0.157 HD
BRANCH  24  31
ATOM     28  C   UNL     1       2.224  -0.651   0.273  0.00  0.00    +0.138 A 
ATOM     29  C   UNL     1       3.375  -0.158   0.876  0.00  0.00    +0.048 A 
ATOM     30  C   UNL     1       3.954  -0.841   1.921  0.00  0.00    +0.017 A 
ATOM     31  C   UNL     1       3.383  -2.032   2.377  0.00  0.00    +0.039 A 
ATOM     32  C   UNL     1       2.225  -2.526   1.770  0.00  0.00    +0.036 A 
ATOM     33  C   UNL     1       1.649  -1.833   0.727  0.00  0.00    +0.083 A 
ATOM     34 CL   UNL     1       0.207  -2.441  -0.025  0.00  0.00    -0.080 Cl
BRANCH  28  36
ATOM     35  C   UNL     1       2.298   1.233  -1.173  0.00  0.00    +0.277 C 
ATOM     36  O   UNL     1       1.655   0.026  -0.757  0.00  0.00    -0.494 OA
ENDBRANCH  28  36
ENDBRANCH  24  31
ENDBRANCH  22  26
ENDBRANCH  20  22
ENDBRANCH   1  20
BRANCH   5  37
ATOM     37  O   UNL     1       4.911  -9.934   7.198  0.00  0.00    -0.493 OA
ATOM     38  C   UNL     1       4.354 -10.538   6.030  0.00  0.00    +0.277 C 
ENDBRANCH   5  37
TORSDOF 8
