REMARK  Name = ZINC39016111
REMARK  7 active torsions:
REMARK  status: ('A' for Active; 'I' for Inactive)
REMARK    1  A    between atoms: C_1  and  C_2
REMARK    2  A    between atoms: C_3  and  N_9
REMARK    3  A    between atoms: C_10  and  C_12
REMARK    4  A    between atoms: C_12  and  S_13
REMARK    5  A    between atoms: S_13  and  C_14
REMARK    6  A    between atoms: C_17  and  C_21
REMARK    7  A    between atoms: N_19  and  N_20
REMARK                            x       y       z     vdW  Elec       q    Type
REMARK                         _______ _______ _______ _____ _____    ______ ____
ROOT
ATOM      1  C   UNL     1       0.425  -0.023  -7.682  0.00  0.00    +0.189 C 
ATOM      2  N   UNL     1       0.410   1.267  -7.641  0.00  0.00    -0.161 NA
ATOM      3  N   UNL     1       0.507   1.822  -8.922  0.00  0.00    -0.243 N 
ATOM      4  C   UNL     1       0.592   0.685  -9.856  0.00  0.00    +0.222 C 
ATOM      5  N   UNL     1       0.539  -0.497  -8.980  0.00  0.00    -0.223 N 
ATOM      6  H   UNL     1       0.516   2.765  -9.150  0.00  0.00    +0.170 HD
ENDROOT
BRANCH   4   7
ATOM      7  C   UNL     1      -0.591   0.698 -10.826  0.00  0.00    +0.197 C 
ATOM      8  C   UNL     1      -0.552   1.933 -11.704  0.00  0.00    -0.017 C 
ATOM      9  C   UNL     1      -0.433   1.464 -12.944  0.00  0.00    +0.065 C 
ATOM     10  C   UNL     1      -0.381   2.619 -13.929  0.00  0.00    +0.057 C 
ATOM     11  C   UNL     1      -0.917   3.838 -13.147  0.00  0.00    +0.011 C 
ATOM     12  C   UNL     1      -0.598   3.439 -11.688  0.00  0.00    +0.035 C 
ATOM     13  N   UNL     1      -0.396   0.103 -12.924  0.00  0.00    -0.158 NA
ATOM     14  N   UNL     1      -0.479  -0.402 -11.800  0.00  0.00    -0.176 NA
ENDBRANCH   4   7
BRANCH   5  15
ATOM     15  N   UNL     1       0.588  -1.805  -9.370  0.00  0.00    -0.250 NA
ATOM     16  H   UNL     1       0.531  -2.422  -8.574  0.00  0.00    +0.141 HD
ATOM     17  H   UNL     1      -0.137  -2.011 -10.040  0.00  0.00    +0.141 HD
ENDBRANCH   5  15
BRANCH   1  18
ATOM     18  S   UNL     1       0.322  -1.057  -6.259  0.00  0.00    -0.078 S 
BRANCH  18  19
ATOM     19  C   UNL     1       0.192   0.111  -4.876  0.00  0.00    +0.173 C 
BRANCH  19  21
ATOM     20  N   UNL     1      -0.010   0.011  -2.413  0.00  0.00    -0.285 N 
ATOM     21  C   UNL     1       0.095  -0.653  -3.581  0.00  0.00    +0.227 C 
ATOM     22  O   UNL     1       0.112  -1.866  -3.590  0.00  0.00    -0.275 OA
ATOM     23  H   UNL     1      -0.104   0.977  -2.411  0.00  0.00    +0.155 HD
BRANCH  20  26
ATOM     24  C   UNL     1      -1.263   1.190  -0.146  0.00  0.00    +0.047 C 
ATOM     25  C   UNL     1      -0.583  -0.153  -0.073  0.00  0.00    -0.011 A 
ATOM     26  C   UNL     1       0.017  -0.692  -1.204  0.00  0.00    +0.038 A 
ATOM     27  C   UNL     1       0.642  -1.929  -1.132  0.00  0.00    +0.023 A 
ATOM     28  C   UNL     1       0.667  -2.621   0.064  0.00  0.00    +0.003 A 
ATOM     29  C   UNL     1       0.069  -2.084   1.188  0.00  0.00    +0.020 A 
ATOM     30  C   UNL     1      -0.550  -0.848   1.122  0.00  0.00    +0.046 A 
ATOM     31 CL   UNL     1      -1.293  -0.173   2.538  0.00  0.00    -0.083 Cl
ENDBRANCH  20  26
ENDBRANCH  19  21
ENDBRANCH  18  19
ENDBRANCH   1  18
TORSDOF 6
