REMARK  Name = ZINC63195461
REMARK  7 active torsions:
REMARK  status: ('A' for Active; 'I' for Inactive)
REMARK    1  A    between atoms: C_1  and  C_2
REMARK    2  A    between atoms: C_2  and  C_4
REMARK    3  A    between atoms: C_2  and  N_22
REMARK    4  A    between atoms: N_10  and  C_11
REMARK    5  A    between atoms: C_11  and  C_12
REMARK    6  A    between atoms: C_12  and  O_13
REMARK    7  A    between atoms: O_13  and  C_14
REMARK                            x       y       z     vdW  Elec       q    Type
REMARK                         _______ _______ _______ _____ _____    ______ ____
ROOT
ATOM      1  C   UNL     1       0.821  -0.379  -1.281  0.00  0.00    +0.042 C 
ATOM      2  C   UNL     1       0.845  -1.903  -1.418  0.00  0.00    +0.017 C 
ATOM      3  C   UNL     1       1.561  -2.283  -2.717  0.00  0.00    +0.003 C 
ATOM      4  C   UNL     1       0.845  -1.621  -3.898  0.00  0.00    +0.015 C 
ATOM      5  C   UNL     1       0.822  -0.105  -3.689  0.00  0.00    +0.085 C 
ATOM      6  N   UNL     1       0.125   0.206  -2.434  0.00  0.00    -0.298 NA
ENDROOT
BRANCH   1   8
ATOM      7  C   UNL     1       0.789  -0.639   1.203  0.00  0.00    -0.013 C 
ATOM      8  C   UNL     1       0.089   0.005   0.006  0.00  0.00    -0.061 C 
BRANCH   8   9
ATOM      9  N   UNL     1      -1.300  -0.467  -0.062  0.00  0.00    +0.381 N 
ATOM     10  H   UNL     1      -1.783  -0.213   0.787  0.00  0.00    -0.090 HD
ATOM     11  H   UNL     1      -1.762  -0.042  -0.852  0.00  0.00    -0.090 HD
ATOM     12  H   UNL     1      -1.310  -1.471  -0.167  0.00  0.00    -0.090 HD
ENDBRANCH   8   9
ENDBRANCH   1   8
BRANCH   6  13
ATOM     13  C   UNL     1      -0.038   1.657  -2.269  0.00  0.00    +0.125 C 
BRANCH  13  14
ATOM     14  C   UNL     1      -1.033   2.179  -3.308  0.00  0.00    +0.244 C 
BRANCH  14  15
ATOM     15  O   UNL     1      -2.324   1.621  -3.054  0.00  0.00    -0.490 OA
BRANCH  15  16
ATOM     16  C   UNL     1      -3.330   1.986  -3.893  0.00  0.00    +0.135 A 
ATOM     17  C   UNL     1      -3.077   2.858  -4.942  0.00  0.00    +0.048 A 
ATOM     18  C   UNL     1      -4.101   3.227  -5.793  0.00  0.00    +0.023 A 
ATOM     19  C   UNL     1      -5.377   2.729  -5.601  0.00  0.00    +0.042 A 
ATOM     20  C   UNL     1      -5.631   1.859  -4.555  0.00  0.00    +0.039 A 
ATOM     21  C   UNL     1      -4.609   1.482  -3.704  0.00  0.00    +0.061 A 
ATOM     22 BR   UNL     1      -4.955   0.288  -2.280  0.00  0.00    -0.046 Br
ATOM     23 CL   UNL     1      -6.661   3.196  -6.672  0.00  0.00    -0.084 Cl
ENDBRANCH  15  16
ENDBRANCH  14  15
ENDBRANCH  13  14
ENDBRANCH   6  13
TORSDOF 6
