REMARK  Name = ZINC12292267
REMARK  12 active torsions:
REMARK  status: ('A' for Active; 'I' for Inactive)
REMARK    1  A    between atoms: C_1  and  C_2
REMARK    2  A    between atoms: C_2  and  C_3
REMARK    3  A    between atoms: C_2  and  C_4
REMARK    4  A    between atoms: C_2  and  C_5
REMARK    5  A    between atoms: C_8  and  C_11
REMARK    6  A    between atoms: C_11  and  C_13
REMARK    7  A    between atoms: C_11  and  O_28
REMARK    8  A    between atoms: C_13  and  N_61
REMARK    9  A    between atoms: C_16  and  C_19
REMARK   10  A    between atoms: C_16  and  O_27
REMARK   11  A    between atoms: C_24  and  O_25
REMARK   12  A    between atoms: O_25  and  C_26
REMARK                            x       y       z     vdW  Elec       q    Type
REMARK                         _______ _______ _______ _____ _____    ______ ____
ROOT
ATOM      1  C   UNL     1      -0.731   1.580   1.266  0.00  0.00    -0.076 C 
ATOM      2  C   UNL     1      -0.013   1.086   0.008  0.00  0.00    +0.021 C 
ATOM      3  C   UNL     1      -0.755   1.594  -1.231  0.00  0.00    +0.091 C 
ATOM      4  C   UNL     1      -0.823   3.123  -1.184  0.00  0.00    +0.021 C 
ATOM      5  C   UNL     1      -1.519   3.558   0.108  0.00  0.00    -0.076 C 
ATOM      6  N   UNL     1      -0.742   3.059   1.262  0.00  0.00    +0.382 N 
ATOM      7  H   UNL     1       0.224   3.399   1.186  0.00  0.00    -0.082 HD
ENDROOT
BRANCH   3   8
ATOM      8  C   UNL     1      -0.018   1.161  -2.472  0.00  0.00    +0.025 A 
ATOM      9  C   UNL     1      -0.647   0.360  -3.406  0.00  0.00    +0.010 A 
ATOM     10  C   UNL     1       0.028  -0.038  -4.545  0.00  0.00    +0.001 A 
ATOM     11  C   UNL     1       1.334   0.364  -4.753  0.00  0.00    +0.004 A 
ATOM     12  C   UNL     1       1.968   1.166  -3.823  0.00  0.00    +0.046 A 
ATOM     13  C   UNL     1       1.291   1.570  -2.681  0.00  0.00    +0.126 A 
BRANCH  13  14
ATOM     14  O   UNL     1       1.910   2.363  -1.767  0.00  0.00    -0.495 OA
ATOM     15  C   UNL     1       3.258   2.746  -2.048  0.00  0.00    +0.277 C 
ENDBRANCH  13  14
ENDBRANCH   3   8
BRANCH   3  16
ATOM     16  O   UNL     1      -2.079   1.057  -1.248  0.00  0.00    -0.384 OA
ATOM     17  H   UNL     1      -2.607   1.338  -2.008  0.00  0.00    +0.211 HD
ENDBRANCH   3  16
BRANCH   6  18
ATOM     18  C   UNL     1      -1.329   3.562   2.521  0.00  0.00    -0.042 C 
BRANCH  18  19
ATOM     19  C   UNL     1      -0.387   3.218   3.676  0.00  0.00    +0.128 C 
BRANCH  19  23
ATOM     20  C   UNL     1      -2.173   4.401   7.372  0.00  0.00    -0.042 A 
ATOM     21  C   UNL     1      -2.222   3.079   6.973  0.00  0.00    +0.004 A 
ATOM     22  C   UNL     1      -1.644   2.696   5.777  0.00  0.00    +0.006 A 
ATOM     23  C   UNL     1      -1.017   3.636   4.980  0.00  0.00    -0.021 A 
ATOM     24  C   UNL     1      -0.964   4.957   5.382  0.00  0.00    +0.006 A 
ATOM     25  C   UNL     1      -1.546   5.341   6.575  0.00  0.00    +0.004 A 
BRANCH  20  27
ATOM     26  C   UNL     1      -2.142   4.061   9.828  0.00  0.00    +0.015 C 
ATOM     27  C   UNL     1      -2.804   4.819   8.675  0.00  0.00    -0.013 C 
ATOM     28  C   UNL     1      -2.610   6.323   8.877  0.00  0.00    +0.015 C 
ATOM     29  C   UNL     1      -4.299   4.496   8.645  0.00  0.00    +0.015 C 
ENDBRANCH  20  27
ENDBRANCH  19  23
BRANCH  19  30
ATOM     30  O   UNL     1       0.851   3.911   3.503  0.00  0.00    -0.389 OA
ATOM     31  H   UNL     1       0.764   4.873   3.482  0.00  0.00    +0.210 HD
ENDBRANCH  19  30
ENDBRANCH  18  19
ENDBRANCH   6  18
TORSDOF 8
