REMARK  Name = ZINC39437905
REMARK  5 active torsions:
REMARK  status: ('A' for Active; 'I' for Inactive)
REMARK    1  A    between atoms: C_1  and  C_2
REMARK    2  A    between atoms: C_5  and  C_13
REMARK    3  A    between atoms: C_11  and  C_12
REMARK    4  A    between atoms: C_18  and  N_21
REMARK    5  A    between atoms: C_29  and  C_31
REMARK                            x       y       z     vdW  Elec       q    Type
REMARK                         _______ _______ _______ _____ _____    ______ ____
ROOT
ATOM      1  C   UNL     1      -4.595  -1.434  -1.071  0.00  0.00    +0.247 C 
ATOM      2  O   UNL     1      -3.385  -1.493  -0.968  0.00  0.00    -0.270 OA
ATOM      3  N   UNL     1      -5.275  -2.455  -1.630  0.00  0.00    -0.297 N 
ATOM      4  C   UNL     1      -4.584  -3.694  -2.011  0.00  0.00    +0.110 C 
ATOM      5  C   UNL     1      -4.888  -3.996  -3.481  0.00  0.00    +0.041 C 
ATOM      6  C   UNL     1      -6.404  -4.033  -3.687  0.00  0.00    +0.080 C 
ATOM      7  C   UNL     1      -7.001  -2.667  -3.341  0.00  0.00    +0.041 C 
ATOM      8  C   UNL     1      -6.721  -2.352  -1.864  0.00  0.00    +0.110 C 
ENDROOT
BRANCH   1  13
ATOM      9  C   UNL     1      -8.735   0.179   2.247  0.00  0.00    +0.046 C 
ATOM     10  C   UNL     1      -7.829   1.182   1.580  0.00  0.00    -0.024 C 
ATOM     11  C   UNL     1      -6.668   0.902   0.975  0.00  0.00    -0.014 C 
ATOM     12  C   UNL     1      -6.043  -0.304   0.603  0.00  0.00    +0.019 C 
ATOM     13  C   UNL     1      -5.320  -0.245  -0.584  0.00  0.00    +0.037 C 
ATOM     14  C   UNL     1      -5.280   1.009  -1.349  0.00  0.00    +0.011 C 
ATOM     15  C   UNL     1      -5.638   2.183  -0.826  0.00  0.00    +0.005 C 
ATOM     16  C   UNL     1      -6.056   2.246   0.613  0.00  0.00    +0.159 C 
ATOM     17  N   UNL     1      -7.085   3.230   0.909  0.00  0.00    -0.276 NA
ATOM     18  C   UNL     1      -8.078   2.619   1.484  0.00  0.00    +0.037 C 
ATOM     19  C   UNL     1      -9.322   3.304   1.990  0.00  0.00    +0.065 C 
ENDBRANCH   1  13
BRANCH   6  20
ATOM     20  N   UNL     1      -6.699  -4.354  -5.086  0.00  0.00    -0.293 N 
ATOM     21  C   UNL     1      -6.302  -3.618  -6.203  0.00  0.00    +0.122 A 
ATOM     22  C   UNL     1      -6.771  -4.235  -7.362  0.00  0.00    +0.067 A 
ATOM     23  C   UNL     1      -6.486  -3.664  -8.597  0.00  0.00    +0.028 A 
ATOM     24  C   UNL     1      -5.742  -2.492  -8.629  0.00  0.00    +0.019 A 
ATOM     25  C   UNL     1      -5.310  -1.936  -7.443  0.00  0.00    +0.084 A 
ATOM     26  N   UNL     1      -5.594  -2.499  -6.284  0.00  0.00    -0.348 N 
ATOM     27  N   UNL     1      -7.486  -5.392  -7.031  0.00  0.00    -0.323 N 
ATOM     28  C   UNL     1      -7.461  -5.512  -5.568  0.00  0.00    +0.163 C 
ATOM     29  H   UNL     1      -7.915  -6.002  -7.652  0.00  0.00    +0.148 HD
ATOM     30  H   UNL     1      -5.276  -2.082  -5.468  0.00  0.00    +0.167 HD
BRANCH  28  31
ATOM     31  C   UNL     1      -8.886  -5.475  -5.013  0.00  0.00    +0.028 C 
ATOM     32  C   UNL     1      -9.574  -6.850  -4.990  0.00  0.00    +0.007 C 
ATOM     33  C   UNL     1     -10.155  -6.449  -3.624  0.00  0.00    +0.001 C 
ATOM     34  C   UNL     1      -8.950  -5.504  -3.477  0.00  0.00    +0.007 C 
ENDBRANCH  28  31
ENDBRANCH   6  20
TORSDOF 3
