REMARK  Name = ZINC40760999
REMARK  2 active torsions:
REMARK  status: ('A' for Active; 'I' for Inactive)
REMARK    1  A    between atoms: C_12  and  N_27
REMARK    2  A    between atoms: C_13  and  N_17
REMARK                            x       y       z     vdW  Elec       q    Type
REMARK                         _______ _______ _______ _____ _____    ______ ____
ROOT
ATOM      1  C   UNL     1       2.066  -0.768   3.740  0.00  0.00    +0.000 A 
ATOM      2  C   UNL     1       3.358  -0.323   3.524  0.00  0.00    +0.002 A 
ATOM      3  C   UNL     1       3.869  -0.290   2.243  0.00  0.00    +0.024 A 
ATOM      4  C   UNL     1       3.087  -0.704   1.170  0.00  0.00    +0.038 A 
ATOM      5  C   UNL     1       1.794  -1.153   1.387  0.00  0.00    -0.026 A 
ATOM      6  C   UNL     1       1.288  -1.180   2.676  0.00  0.00    +0.005 A 
ATOM      7  C   UNL     1       0.922  -1.619   0.251  0.00  0.00    +0.038 C 
ATOM      8  C   UNL     1       1.428  -1.058  -1.078  0.00  0.00    +0.024 C 
ATOM      9  C   UNL     1       2.926  -1.364  -1.206  0.00  0.00    +0.113 C 
ATOM     10  N   UNL     1       3.623  -0.658  -0.122  0.00  0.00    -0.285 N 
ATOM     11  C   UNL     1       4.796   0.045  -0.377  0.00  0.00    +0.129 A 
ATOM     12  C   UNL     1       4.752   1.400  -0.712  0.00  0.00    +0.104 A 
ATOM     13  C   UNL     1       5.958   2.058  -0.957  0.00  0.00    +0.150 A 
ATOM     14  N   UNL     1       7.096   1.374  -0.863  0.00  0.00    -0.221 NA
ATOM     15  C   UNL     1       7.093   0.096  -0.544  0.00  0.00    +0.200 A 
ATOM     16  N   UNL     1       5.978  -0.561  -0.299  0.00  0.00    -0.332 N 
ATOM     17  H   UNL     1       6.018  -1.502  -0.063  0.00  0.00    +0.168 HD
ENDROOT
BRANCH  13  18
ATOM     18  N   UNL     1       5.971   3.408  -1.295  0.00  0.00    -0.277 N 
ATOM     19  C   UNL     1       7.172   4.048  -1.536  0.00  0.00    +0.165 A 
ATOM     20  N   UNL     1       8.389   3.557  -1.500  0.00  0.00    -0.225 NA
ATOM     21  C   UNL     1       9.482   4.307  -1.760  0.00  0.00    +0.080 A 
ATOM     22  C   UNL     1      10.838   3.905  -1.756  0.00  0.00    +0.029 A 
ATOM     23  C   UNL     1      11.835   4.800  -2.044  0.00  0.00    +0.002 A 
ATOM     24  C   UNL     1      11.554   6.124  -2.348  0.00  0.00    +0.001 A 
ATOM     25  C   UNL     1      10.239   6.552  -2.362  0.00  0.00    +0.017 A 
ATOM     26  C   UNL     1       9.234   5.662  -2.075  0.00  0.00    +0.041 A 
ATOM     27  S   UNL     1       7.462   5.754  -1.982  0.00  0.00    -0.052 S 
ATOM     28  H   UNL     1       5.137   3.899  -1.362  0.00  0.00    +0.156 HD
ENDBRANCH  13  18
BRANCH  12  29
ATOM     29  N   UNL     1       3.528   2.082  -0.800  0.00  0.00    -0.353 N 
ATOM     30  H   UNL     1       2.707   1.641  -0.531  0.00  0.00    +0.143 HD
ATOM     31  H   UNL     1       3.503   2.994  -1.131  0.00  0.00    +0.143 HD
ENDBRANCH  12  29
TORSDOF 2
