REMARK  Name = ZINC61629263
REMARK  3 active torsions:
REMARK  status: ('A' for Active; 'I' for Inactive)
REMARK    1  A    between atoms: C_1  and  C_2
REMARK    2  A    between atoms: C_9  and  S_16
REMARK    3  A    between atoms: C_11  and  C_13
REMARK                            x       y       z     vdW  Elec       q    Type
REMARK                         _______ _______ _______ _____ _____    ______ ____
ROOT
ATOM      1  C   UNL     1      -0.018   1.503   0.010  0.00  0.00    +0.067 C 
ATOM      2  C   UNL     1       0.002  -0.004   0.002  0.00  0.00    +0.061 A 
ATOM      3  C   UNL     1       0.006  -0.691  -1.203  0.00  0.00    +0.028 A 
ATOM      4  C   UNL     1       0.025  -2.077  -1.163  0.00  0.00    +0.052 A 
ATOM      5  C   UNL     1       0.039  -2.693   0.086  0.00  0.00    +0.177 A 
ATOM      6  N   UNL     1       0.034  -1.952   1.184  0.00  0.00    -0.129 NA
ATOM      7  N   UNL     1       0.022  -0.669   1.140  0.00  0.00    -0.153 NA
ATOM      8  N   UNL     1       0.058  -4.088   0.181  0.00  0.00    -0.206 N 
ATOM      9  C   UNL     1       0.533  -4.815   1.231  0.00  0.00    +0.100 A 
ATOM     10  C   UNL     1       0.365  -6.131   0.923  0.00  0.00    +0.065 A 
ATOM     11  C   UNL     1      -0.225  -6.204  -0.341  0.00  0.00    +0.130 A 
ATOM     12  N   UNL     1      -0.414  -4.987  -0.783  0.00  0.00    -0.163 NA
ENDROOT
BRANCH  11  13
ATOM     13  C   UNL     1      -0.588  -7.472  -1.072  0.00  0.00    +0.391 C 
ATOM     14  F   UNL     1      -0.498  -7.257  -2.451  0.00  0.00    -0.202 F 
ATOM     15  F   UNL     1       0.294  -8.492  -0.701  0.00  0.00    -0.202 F 
ENDBRANCH  11  13
BRANCH   9  16
ATOM     16  S   UNL     1       1.235  -4.171   2.713  0.00  0.00    -0.123 S 
ATOM     17  H   UNL     1       0.182  -4.029   3.538  0.00  0.00    +0.109 HD
ENDBRANCH   9  16
TORSDOF 2
