REMARK  Name = ZINC21264132
REMARK  11 active torsions:
REMARK  status: ('A' for Active; 'I' for Inactive)
REMARK    1  A    between atoms: C_1  and  C_2
REMARK    2  A    between atoms: C_5  and  N_8
REMARK    3  A    between atoms: N_8  and  C_9
REMARK    4  A    between atoms: N_8  and  C_15
REMARK    5  A    between atoms: C_9  and  C_10
REMARK    6  A    between atoms: C_15  and  N_17
REMARK    7  A    between atoms: N_17  and  C_18
REMARK    8  A    between atoms: C_20  and  C_26
REMARK    9  A    between atoms: C_20  and  C_27
REMARK   10  A    between atoms: C_22  and  C_24
REMARK   11  A    between atoms: C_22  and  C_25
REMARK                            x       y       z     vdW  Elec       q    Type
REMARK                         _______ _______ _______ _____ _____    ______ ____
ROOT
ATOM      1  C   UNL     1       1.600   3.565  -0.053  0.00  0.00    +0.134 C 
ATOM      2  S   UNL     1       1.089   2.576   1.248  0.00  0.00    -0.019 S 
ENDROOT
BRANCH   1   3
ATOM      3  N   UNL     1       2.787   4.200   0.009  0.00  0.00    -0.324 N 
ATOM      4  H   UNL     1       3.115   4.836  -0.826  0.00  0.00    +0.148 HD
BRANCH   3   5
ATOM      5  C   UNL     1       3.642   4.044   1.193  0.00  0.00    +0.069 C 
ATOM      6  C   UNL     1       3.234   5.072   2.248  0.00  0.00    +0.009 C 
ATOM      7  C   UNL     1       4.122   4.946   3.483  0.00  0.00    -0.072 C 
ATOM      8  N   UNL     1       5.534   4.917   3.163  0.00  0.00    +0.386 N 
ATOM      9  C   UNL     1       6.008   4.169   2.018  0.00  0.00    -0.072 C 
ATOM     10  C   UNL     1       5.097   4.302   0.800  0.00  0.00    +0.009 C 
ATOM     11  C   UNL     1       6.190   2.686   2.362  0.00  0.00    -0.010 C 
ATOM     12  C   UNL     1       7.396   4.720   1.622  0.00  0.00    -0.010 C 
ATOM     13  C   UNL     1       3.711   3.706   4.286  0.00  0.00    -0.010 C 
ATOM     14  C   UNL     1       3.855   6.178   4.376  0.00  0.00    -0.010 C 
ATOM     15  H   UNL     1       5.888   5.941   2.973  0.00  0.00    -0.084 HD
ATOM     16  H   UNL     1       6.093   4.487   4.008  0.00  0.00    -0.084 HD
ENDBRANCH   3   5
ENDBRANCH   1   3
BRANCH   1  17
ATOM     17  N   UNL     1       0.815   3.708  -1.139  0.00  0.00    -0.302 N 
BRANCH  17  22
ATOM     18  C   UNL     1      -1.838   4.059   2.564  0.00  0.00    +0.007 C 
ATOM     19  C   UNL     1      -1.531   4.751   1.234  0.00  0.00    -0.014 C 
ATOM     20  C   UNL     1      -1.811   3.786   0.081  0.00  0.00    +0.005 C 
ATOM     21  C   UNL     1      -1.504   4.478  -1.249  0.00  0.00    +0.023 C 
ATOM     22  C   UNL     1      -0.032   4.895  -1.279  0.00  0.00    +0.076 C 
ATOM     23  C   UNL     1       0.248   5.860  -0.125  0.00  0.00    +0.023 C 
ATOM     24  C   UNL     1      -0.059   5.168   1.204  0.00  0.00    +0.005 C 
ENDBRANCH  17  22
BRANCH  17  25
ATOM     25  C   UNL     1       0.809   2.677  -2.180  0.00  0.00    +0.181 C 
BRANCH  25  26
ATOM     26  C   UNL     1       1.861   2.997  -3.210  0.00  0.00    +0.122 A 
ATOM     27  C   UNL     1       3.143   2.591  -3.177  0.00  0.00    +0.046 A 
ATOM     28  C   UNL     1       3.768   3.114  -4.332  0.00  0.00    +0.041 A 
ATOM     29  C   UNL     1       2.833   3.815  -4.998  0.00  0.00    +0.195 A 
ATOM     30  O   UNL     1       1.680   3.740  -4.313  0.00  0.00    -0.466 OA
ENDBRANCH  25  26
ENDBRANCH  17  25
ENDBRANCH   1  17
TORSDOF 6
