REMARK  Name = ZINC50118316
REMARK  9 active torsions:
REMARK  status: ('A' for Active; 'I' for Inactive)
REMARK    1  A    between atoms: C_1  and  C_2
REMARK    2  A    between atoms: C_2  and  C_3
REMARK    3  A    between atoms: C_2  and  C_4
REMARK    4  A    between atoms: C_4  and  N_5
REMARK    5  A    between atoms: C_6  and  C_8
REMARK    6  A    between atoms: C_8  and  N_9
REMARK    7  A    between atoms: N_12  and  C_13
REMARK    8  A    between atoms: C_13  and  C_14
REMARK    9  A    between atoms: C_14  and  N_20
REMARK                            x       y       z     vdW  Elec       q    Type
REMARK                         _______ _______ _______ _____ _____    ______ ____
ROOT
ATOM      1  N   UNL     1      -3.448  -8.983  -3.266  0.00  0.00    -0.291 N 
ATOM      2  C   UNL     1      -3.886  -8.485  -2.093  0.00  0.00    +0.300 C 
ATOM      3  O   UNL     1      -3.098  -7.989  -1.311  0.00  0.00    -0.253 OA
ATOM      4  N   UNL     1      -5.197  -8.537  -1.786  0.00  0.00    -0.301 N 
ATOM      5  H   UNL     1      -4.077  -9.379  -3.890  0.00  0.00    +0.151 HD
ATOM      6  H   UNL     1      -5.826  -8.932  -2.410  0.00  0.00    +0.150 HD
ENDROOT
BRANCH   1   7
ATOM      7  C   UNL     1      -2.023  -8.927  -3.600  0.00  0.00    +0.201 C 
BRANCH   7   9
ATOM      8  N   UNL     1      -0.556  -9.605  -5.473  0.00  0.00    -0.314 N 
ATOM      9  C   UNL     1      -1.799  -9.546  -4.956  0.00  0.00    +0.230 C 
ATOM     10  O   UNL     1      -2.738  -9.990  -5.582  0.00  0.00    -0.274 OA
ATOM     11  H   UNL     1       0.195  -9.250  -4.972  0.00  0.00    +0.149 HD
BRANCH   8  12
ATOM     12  C   UNL     1      -0.339 -10.207  -6.790  0.00  0.00    +0.107 C 
BRANCH  12  14
ATOM     13  C   UNL     1       1.395 -10.886  -8.457  0.00  0.00    +0.009 C 
ATOM     14  C   UNL     1       1.150 -10.148  -7.139  0.00  0.00    -0.000 C 
ATOM     15  C   UNL     1       1.582  -8.688  -7.284  0.00  0.00    +0.009 C 
ENDBRANCH  12  14
ENDBRANCH   8  12
ENDBRANCH   7   9
ENDBRANCH   1   7
BRANCH   4  16
ATOM     16  C   UNL     1      -5.673  -7.995  -0.511  0.00  0.00    +0.094 C 
BRANCH  16  17
ATOM     17  C   UNL     1      -7.201  -8.060  -0.468  0.00  0.00    -0.050 C 
ATOM     18  C   UNL     1      -7.705  -7.375   0.804  0.00  0.00    -0.010 C 
ATOM     19  C   UNL     1      -7.129  -8.088   2.030  0.00  0.00    -0.001 C 
ATOM     20  C   UNL     1      -7.578  -9.550   2.026  0.00  0.00    -0.000 C 
ATOM     21  C   UNL     1      -7.074 -10.236   0.754  0.00  0.00    -0.001 C 
ATOM     22  C   UNL     1      -7.650  -9.523  -0.471  0.00  0.00    -0.010 C 
BRANCH  17  23
ATOM     23  N   UNL     1      -7.754  -7.376  -1.644  0.00  0.00    +0.384 N 
ATOM     24  C   UNL     1      -7.288  -5.984  -1.663  0.00  0.00    -0.078 C 
ATOM     25  C   UNL     1      -7.794  -5.289  -2.929  0.00  0.00    -0.019 C 
ATOM     26  C   UNL     1      -9.325  -5.317  -2.941  0.00  0.00    -0.004 C 
ATOM     27  C   UNL     1      -9.801  -6.769  -2.846  0.00  0.00    -0.019 C 
ATOM     28  C   UNL     1      -9.220  -7.409  -1.584  0.00  0.00    -0.078 C 
ATOM     29  H   UNL     1      -7.442  -7.844  -2.482  0.00  0.00    -0.081 HD
ENDBRANCH  17  23
ENDBRANCH  16  17
ENDBRANCH   4  16
TORSDOF 7
