REMARK  Name = ZINC39624430
REMARK  10 active torsions:
REMARK  status: ('A' for Active; 'I' for Inactive)
REMARK    1  A    between atoms: C_1  and  C_2
REMARK    2  A    between atoms: C_2  and  C_3
REMARK    3  A    between atoms: C_3  and  C_4
REMARK    4  A    between atoms: C_3  and  C_6
REMARK    5  A    between atoms: C_4  and  C_5
REMARK    6  A    between atoms: C_10  and  C_19
REMARK    7  A    between atoms: N_21  and  C_22
REMARK    8  A    between atoms: C_22  and  C_23
REMARK    9  A    between atoms: C_23  and  C_24
REMARK   10  A    between atoms: C_23  and  C_25
REMARK                            x       y       z     vdW  Elec       q    Type
REMARK                         _______ _______ _______ _____ _____    ______ ____
ROOT
ATOM      1  C   UNL     1       0.554  -2.018  -1.681  0.00  0.00    +0.219 C 
ATOM      2  O   UNL     1       1.476  -2.776  -1.895  0.00  0.00    -0.275 OA
ATOM      3  N   UNL     1      -0.700  -2.496  -1.569  0.00  0.00    -0.300 N 
ATOM      4  C   UNL     1      -1.945  -1.732  -1.318  0.00  0.00    +0.121 C 
ATOM      5  C   UNL     1      -3.006  -2.409  -2.215  0.00  0.00    +0.100 C 
ATOM      6  C   UNL     1      -2.478  -3.836  -2.439  0.00  0.00    -0.004 C 
ATOM      7  C   UNL     1      -1.148  -3.906  -1.674  0.00  0.00    +0.115 C 
ATOM      8  C   UNL     1      -3.464  -4.858  -1.882  0.00  0.00    -0.010 C 
ATOM      9  C   UNL     1      -2.944  -6.270  -2.169  0.00  0.00    -0.082 C 
ATOM     10  N   UNL     1      -2.787  -6.450  -3.617  0.00  0.00    +0.379 N 
ATOM     11  C   UNL     1      -1.769  -5.526  -4.130  0.00  0.00    -0.082 C 
ATOM     12  C   UNL     1      -2.239  -4.082  -3.926  0.00  0.00    -0.010 C 
ATOM     13  H   UNL     1      -2.504  -7.400  -3.808  0.00  0.00    -0.086 HD
ATOM     14  H   UNL     1      -3.667  -6.267  -4.075  0.00  0.00    -0.086 HD
ENDROOT
BRANCH   5  15
ATOM     15  C   UNL     1      -4.340  -2.445  -1.514  0.00  0.00    +0.218 C 
ATOM     16  O   UNL     1      -4.389  -2.425  -0.302  0.00  0.00    -0.275 OA
ATOM     17  N   UNL     1      -5.478  -2.500  -2.234  0.00  0.00    -0.315 N 
ATOM     18  H   UNL     1      -5.439  -2.516  -3.203  0.00  0.00    +0.149 HD
BRANCH  17  19
ATOM     19  C   UNL     1      -6.774  -2.535  -1.552  0.00  0.00    +0.107 C 
BRANCH  19  20
ATOM     20  C   UNL     1      -7.895  -2.595  -2.592  0.00  0.00    -0.000 C 
ATOM     21  C   UNL     1      -7.807  -3.914  -3.362  0.00  0.00    +0.009 C 
ATOM     22  C   UNL     1      -9.250  -2.506  -1.887  0.00  0.00    +0.009 C 
ENDBRANCH  19  20
ENDBRANCH  17  19
ENDBRANCH   5  15
BRANCH   1  23
ATOM     23  C   UNL     1       0.812  -0.539  -1.542  0.00  0.00    +0.075 C 
BRANCH  23  25
ATOM     24  C   UNL     1       0.490   1.451  -0.066  0.00  0.00    +0.004 C 
ATOM     25  C   UNL     1       0.361  -0.071  -0.157  0.00  0.00    +0.009 C 
ENDBRANCH  23  25
BRANCH  23  26
ATOM     26  C   UNL     1       2.308  -0.264  -1.711  0.00  0.00    +0.009 C 
ATOM     27  C   UNL     1       2.725  -0.579  -3.149  0.00  0.00    +0.004 C 
ENDBRANCH  23  26
ENDBRANCH   1  23
TORSDOF 6
