REMARK  Name = ZINC67163854
REMARK  9 active torsions:
REMARK  status: ('A' for Active; 'I' for Inactive)
REMARK    1  A    between atoms: C_1  and  N_2
REMARK    2  A    between atoms: N_2  and  C_3
REMARK    3  A    between atoms: C_5  and  C_10
REMARK    4  A    between atoms: C_10  and  N_11
REMARK    5  A    between atoms: C_12  and  C_14
REMARK    6  A    between atoms: C_14  and  C_15
REMARK    7  A    between atoms: C_15  and  C_16
REMARK    8  A    between atoms: C_16  and  C_17
REMARK    9  A    between atoms: C_17  and  C_18
REMARK                            x       y       z     vdW  Elec       q    Type
REMARK                         _______ _______ _______ _____ _____    ______ ____
ROOT
ATOM      1  N   UNL     1       0.572  -2.873   1.612  0.00  0.00    -0.311 N 
ATOM      2  C   UNL     1       1.726  -3.485   1.946  0.00  0.00    +0.213 C 
ATOM      3  O   UNL     1       2.406  -4.006   1.088  0.00  0.00    -0.276 OA
ATOM      4  H   UNL     1       0.028  -2.455   2.298  0.00  0.00    +0.149 HD
ENDROOT
BRANCH   1   5
ATOM      5  C   UNL     1       0.140  -2.838   0.212  0.00  0.00    +0.143 C 
BRANCH   5  10
ATOM      6  C   UNL     1       0.448   0.459   1.550  0.00  0.00    +0.130 C 
ATOM      7  N   UNL     1      -0.012   0.003   0.236  0.00  0.00    -0.323 N 
ATOM      8  C   UNL     1       0.779   0.299  -0.961  0.00  0.00    +0.130 C 
ATOM      9  C   UNL     1      -1.200  -0.710   0.125  0.00  0.00    +0.103 A 
ATOM     10  C   UNL     1      -1.170  -2.101   0.110  0.00  0.00    +0.008 A 
ATOM     11  C   UNL     1      -2.360  -2.798  -0.002  0.00  0.00    +0.010 A 
ATOM     12  C   UNL     1      -3.543  -2.078  -0.095  0.00  0.00    +0.018 A 
ATOM     13  C   UNL     1      -3.499  -0.699  -0.073  0.00  0.00    +0.084 A 
ATOM     14  N   UNL     1      -2.350  -0.060   0.039  0.00  0.00    -0.349 N 
ATOM     15  H   UNL     1      -2.348   0.910   0.056  0.00  0.00    +0.167 HD
ENDBRANCH   5  10
ENDBRANCH   1   5
BRANCH   2  16
ATOM     16  C   UNL     1       2.170  -3.520   3.385  0.00  0.00    +0.096 C 
BRANCH  16  17
ATOM     17  C   UNL     1       3.501  -4.269   3.490  0.00  0.00    +0.009 C 
BRANCH  17  18
ATOM     18  C   UNL     1       3.952  -4.305   4.952  0.00  0.00    +0.002 C 
BRANCH  18  19
ATOM     19  C   UNL     1       5.282  -5.053   5.056  0.00  0.00    +0.016 C 
BRANCH  19  20
ATOM     20  C   UNL     1       5.734  -5.089   6.518  0.00  0.00    +0.069 C 
ATOM     21  C   UNL     1       7.028  -5.848   6.670  0.00  0.00    +0.108 C 
ATOM     22  C   UNL     1       8.209  -4.891   6.318  0.00  0.00    +0.105 C 
ATOM     23  C   UNL     1       8.088  -3.722   7.294  0.00  0.00    +0.093 C 
ATOM     24  S   UNL     1       6.251  -3.408   7.101  0.00  0.00    -0.154 S 
ATOM     25  N   UNL     1       9.303  -5.832   6.399  0.00  0.00    -0.294 N 
ATOM     26  C   UNL     1       8.785  -7.029   5.992  0.00  0.00    +0.300 C 
ATOM     27  O   UNL     1       9.465  -7.992   5.696  0.00  0.00    -0.253 OA
ATOM     28  N   UNL     1       7.425  -7.017   5.942  0.00  0.00    -0.294 N 
ATOM     29  H   UNL     1      10.213  -5.651   6.682  0.00  0.00    +0.151 HD
ATOM     30  H   UNL     1       6.849  -7.667   5.510  0.00  0.00    +0.151 HD
ENDBRANCH  19  20
ENDBRANCH  18  19
ENDBRANCH  17  18
ENDBRANCH  16  17
ENDBRANCH   2  16
TORSDOF 7
