REMARK  Name = ZINC37306779
REMARK  5 active torsions:
REMARK  status: ('A' for Active; 'I' for Inactive)
REMARK    1  A    between atoms: C_1  and  C_2
REMARK    2  A    between atoms: C_5  and  S_8
REMARK    3  A    between atoms: S_8  and  C_9
REMARK    4  A    between atoms: C_12  and  C_19
REMARK    5  A    between atoms: C_13  and  C_15
REMARK                            x       y       z     vdW  Elec       q    Type
REMARK                         _______ _______ _______ _____ _____    ______ ____
ROOT
ATOM      1  C   UNL     1       0.061  -5.074   1.655  0.00  0.00    +0.013 A 
ATOM      2  C   UNL     1      -0.067  -4.232   2.757  0.00  0.00    +0.016 A 
ATOM      3  C   UNL     1      -0.081  -4.758   4.029  0.00  0.00    +0.013 A 
ATOM      4  C   UNL     1       0.033  -6.139   4.213  0.00  0.00    +0.024 A 
ATOM      5  C   UNL     1       0.160  -6.981   3.106  0.00  0.00    +0.066 A 
ATOM      6  C   UNL     1       0.169  -6.450   1.836  0.00  0.00    +0.028 A 
ENDROOT
BRANCH   4   7
ATOM      7  C   UNL     1       0.018  -6.706   5.576  0.00  0.00    +0.095 C 
ATOM      8  N   UNL     1       1.053  -7.427   6.009  0.00  0.00    -0.387 N 
ATOM      9  N   UNL     1      -1.029  -6.498   6.374  0.00  0.00    -0.345 N 
ATOM     10  H   UNL     1       1.851  -7.506   5.463  0.00  0.00    +0.157 HD
ATOM     11  H   UNL     1      -1.782  -5.973   6.059  0.00  0.00    +0.144 HD
ATOM     12  H   UNL     1      -1.038  -6.870   7.269  0.00  0.00    +0.144 HD
ATOM     13  H   UNL     1       1.008  -7.872   6.870  0.00  0.00    +0.157 HD
ENDBRANCH   4   7
BRANCH   5  14
ATOM     14  C   UNL     1       0.283  -8.470   3.301  0.00  0.00    +0.418 C 
ATOM     15  F   UNL     1       0.256  -9.108   2.056  0.00  0.00    -0.166 F 
ATOM     16  F   UNL     1       1.490  -8.758   3.946  0.00  0.00    -0.166 F 
ATOM     17  F   UNL     1      -0.784  -8.928   4.082  0.00  0.00    -0.166 F 
ENDBRANCH   5  14
BRANCH   1  18
ATOM     18  S   UNL     1       0.079  -4.396   0.029  0.00  0.00    -0.089 S 
BRANCH  18  23
ATOM     19  C   UNL     1       5.949  -3.808  -1.244  0.00  0.00    +0.044 C 
ATOM     20  C   UNL     1       4.484  -3.955  -0.927  0.00  0.00    -0.050 A 
ATOM     21  C   UNL     1       4.089  -4.366   0.334  0.00  0.00    +0.004 A 
ATOM     22  C   UNL     1       2.747  -4.501   0.628  0.00  0.00    +0.015 A 
ATOM     23  C   UNL     1       1.792  -4.224  -0.343  0.00  0.00    +0.013 A 
ATOM     24  C   UNL     1       2.193  -3.812  -1.608  0.00  0.00    +0.015 A 
ATOM     25  C   UNL     1       3.537  -3.674  -1.894  0.00  0.00    +0.004 A 
ENDBRANCH  18  23
ENDBRANCH   1  18
TORSDOF 4
