REMARK  Name = ZINC67629550
REMARK  8 active torsions:
REMARK  status: ('A' for Active; 'I' for Inactive)
REMARK    1  A    between atoms: C_2  and  C_3
REMARK    2  A    between atoms: C_7  and  N_9
REMARK    3  A    between atoms: C_10  and  C_12
REMARK    4  A    between atoms: C_12  and  N_13
REMARK    5  A    between atoms: N_16  and  C_17
REMARK    6  A    between atoms: C_17  and  C_18
REMARK    7  A    between atoms: C_18  and  C_20
REMARK    8  A    between atoms: C_18  and  O_30
REMARK                            x       y       z     vdW  Elec       q    Type
REMARK                         _______ _______ _______ _____ _____    ______ ____
ROOT
ATOM      1  N   UNL     1       3.320   7.800  -0.317  0.00  0.00    -0.291 N 
ATOM      2  C   UNL     1       4.327   8.688  -0.437  0.00  0.00    +0.300 C 
ATOM      3  O   UNL     1       5.478   8.301  -0.475  0.00  0.00    -0.253 OA
ATOM      4  N   UNL     1       4.056  10.006  -0.516  0.00  0.00    -0.297 N 
ATOM      5  H   UNL     1       2.401   8.109  -0.287  0.00  0.00    +0.151 HD
ATOM      6  H   UNL     1       3.137  10.316  -0.486  0.00  0.00    +0.150 HD
ENDROOT
BRANCH   1   7
ATOM      7  C   UNL     1       3.614   6.367  -0.232  0.00  0.00    +0.202 C 
BRANCH   7   9
ATOM      8  N   UNL     1       2.350   4.253  -0.009  0.00  0.00    -0.284 N 
ATOM      9  C   UNL     1       2.325   5.597  -0.104  0.00  0.00    +0.234 C 
ATOM     10  O   UNL     1       1.266   6.186  -0.085  0.00  0.00    -0.274 OA
ATOM     11  H   UNL     1       3.199   3.787   0.053  0.00  0.00    +0.155 HD
BRANCH   8  16
ATOM     12  C   UNL     1      -1.127   3.258  -0.721  0.00  0.00    +0.026 A 
ATOM     13  C   UNL     1      -1.216   2.082   0.025  0.00  0.00    +0.017 A 
ATOM     14  C   UNL     1      -0.128   1.639   0.749  0.00  0.00    +0.003 A 
ATOM     15  C   UNL     1       1.054   2.357   0.738  0.00  0.00    +0.023 A 
ATOM     16  C   UNL     1       1.153   3.529  -0.002  0.00  0.00    +0.035 A 
ATOM     17  C   UNL     1       0.066   3.979  -0.736  0.00  0.00    +0.040 A 
BRANCH  12  19
ATOM     18  C   UNL     1      -3.180   4.098  -2.089  0.00  0.00    +0.009 C 
ATOM     19  C   UNL     1      -2.255   3.720  -1.472  0.00  0.00    -0.070 C 
ENDBRANCH  12  19
ENDBRANCH   8  16
ENDBRANCH   7   9
ENDBRANCH   1   7
BRANCH   4  20
ATOM     20  C   UNL     1       5.150  10.972  -0.647  0.00  0.00    +0.141 C 
BRANCH  20  21
ATOM     21  C   UNL     1       4.574  12.388  -0.715  0.00  0.00    +0.162 C 
BRANCH  21  22
ATOM     22  C   UNL     1       5.688  13.371  -0.973  0.00  0.00    -0.017 A 
ATOM     23  C   UNL     1       6.501  13.779   0.083  0.00  0.00    +0.007 A 
ATOM     24  C   UNL     1       7.515  14.665  -0.115  0.00  0.00    +0.009 A 
ATOM     25  C   UNL     1       7.748  15.178  -1.403  0.00  0.00    -0.018 A 
ATOM     26  C   UNL     1       8.785  16.095  -1.646  0.00  0.00    +0.008 A 
ATOM     27  C   UNL     1       8.982  16.570  -2.906  0.00  0.00    +0.001 A 
ATOM     28  C   UNL     1       8.168  16.161  -3.962  0.00  0.00    +0.001 A 
ATOM     29  C   UNL     1       7.155  15.275  -3.764  0.00  0.00    +0.008 A 
ATOM     30  C   UNL     1       6.921  14.763  -2.476  0.00  0.00    -0.018 A 
ATOM     31  C   UNL     1       5.887  13.842  -2.233  0.00  0.00    +0.014 A 
ENDBRANCH  21  22
BRANCH  21  32
ATOM     32  O   UNL     1       3.938  12.704   0.525  0.00  0.00    -0.386 OA
ATOM     33  H   UNL     1       4.529  12.672   1.290  0.00  0.00    +0.210 HD
ENDBRANCH  21  32
ENDBRANCH  20  21
ENDBRANCH   4  20
TORSDOF 8
