REMARK  Name = ZINC39626527
REMARK  11 active torsions:
REMARK  status: ('A' for Active; 'I' for Inactive)
REMARK    1  A    between atoms: C_1  and  N_2
REMARK    2  A    between atoms: N_2  and  C_3
REMARK    3  A    between atoms: N_2  and  C_4
REMARK    4  A    between atoms: C_4  and  C_5
REMARK    5  A    between atoms: C_5  and  N_6
REMARK    6  A    between atoms: C_7  and  C_9
REMARK    7  A    between atoms: C_20  and  C_22
REMARK    8  A    between atoms: C_22  and  C_23
REMARK    9  A    between atoms: C_23  and  C_24
REMARK   10  A    between atoms: C_27  and  O_30
REMARK   11  A    between atoms: O_30  and  C_31
REMARK                            x       y       z     vdW  Elec       q    Type
REMARK                         _______ _______ _______ _____ _____    ______ ____
ROOT
ATOM      1  C   UNL     1      -4.377  -4.389  -0.207  0.00  0.00    +0.100 C 
ATOM      2  C   UNL     1      -5.016  -4.184   1.185  0.00  0.00    +0.121 C 
ATOM      3  N   UNL     1      -5.845  -5.394   1.398  0.00  0.00    -0.300 N 
ATOM      4  C   UNL     1      -5.031  -6.502   0.844  0.00  0.00    +0.115 C 
ATOM      5  C   UNL     1      -4.388  -5.911  -0.427  0.00  0.00    -0.004 C 
ATOM      6  C   UNL     1      -2.963  -6.432  -0.588  0.00  0.00    -0.010 C 
ATOM      7  C   UNL     1      -3.003  -7.938  -0.864  0.00  0.00    -0.082 C 
ATOM      8  N   UNL     1      -3.780  -8.194  -2.083  0.00  0.00    +0.379 N 
ATOM      9  C   UNL     1      -5.173  -7.774  -1.886  0.00  0.00    -0.082 C 
ATOM     10  C   UNL     1      -5.225  -6.262  -1.654  0.00  0.00    -0.010 C 
ATOM     11  C   UNL     1      -7.065  -5.469   1.966  0.00  0.00    +0.216 C 
ATOM     12  O   UNL     1      -7.621  -6.542   2.069  0.00  0.00    -0.276 OA
ATOM     13  H   UNL     1      -3.379  -7.675  -2.850  0.00  0.00    -0.086 HD
ATOM     14  H   UNL     1      -3.754  -9.179  -2.296  0.00  0.00    -0.086 HD
ENDROOT
BRANCH   1  16
ATOM     15  N   UNL     1      -2.423  -3.410  -1.365  0.00  0.00    -0.317 N 
ATOM     16  C   UNL     1      -2.964  -3.867  -0.218  0.00  0.00    +0.218 C 
ATOM     17  O   UNL     1      -2.313  -3.859   0.805  0.00  0.00    -0.275 OA
ATOM     18  H   UNL     1      -2.943  -3.417  -2.183  0.00  0.00    +0.149 HD
BRANCH  15  19
ATOM     19  C   UNL     1      -1.048  -2.903  -1.375  0.00  0.00    +0.085 C 
BRANCH  19  20
ATOM     20  C   UNL     1      -0.683  -2.450  -2.790  0.00  0.00    -0.061 C 
BRANCH  20  22
ATOM     21  C   UNL     1       1.088  -1.618  -4.178  0.00  0.00    -0.097 C 
ATOM     22  N   UNL     1       0.696  -1.941  -2.800  0.00  0.00    +0.377 N 
ATOM     23  C   UNL     1       0.777  -0.731  -1.971  0.00  0.00    -0.097 C 
ATOM     24  H   UNL     1       1.317  -2.645  -2.430  0.00  0.00    -0.083 HD
ENDBRANCH  20  22
ENDBRANCH  19  20
ENDBRANCH  15  19
ENDBRANCH   1  16
BRANCH  11  25
ATOM     25  C   UNL     1      -7.739  -4.220   2.473  0.00  0.00    +0.100 C 
BRANCH  25  26
ATOM     26  C   UNL     1      -9.102  -4.581   3.067  0.00  0.00    +0.044 C 
BRANCH  26  27
ATOM     27  C   UNL     1      -9.776  -3.332   3.574  0.00  0.00    -0.047 A 
ATOM     28  C   UNL     1      -9.570  -2.917   4.876  0.00  0.00    +0.007 A 
ATOM     29  C   UNL     1     -10.187  -1.773   5.344  0.00  0.00    +0.046 A 
ATOM     30  C   UNL     1     -11.013  -1.039   4.504  0.00  0.00    +0.120 A 
ATOM     31  C   UNL     1     -11.217  -1.457   3.197  0.00  0.00    +0.046 A 
ATOM     32  C   UNL     1     -10.594  -2.599   2.733  0.00  0.00    +0.007 A 
BRANCH  30  33
ATOM     33  O   UNL     1     -11.621   0.087   4.962  0.00  0.00    -0.495 OA
ATOM     34  C   UNL     1     -12.457   0.792   4.042  0.00  0.00    +0.277 C 
ENDBRANCH  30  33
ENDBRANCH  26  27
ENDBRANCH  25  26
ENDBRANCH  11  25
TORSDOF 8
