REMARK  Name = ZINC59876503
REMARK  9 active torsions:
REMARK  status: ('A' for Active; 'I' for Inactive)
REMARK    1  A    between atoms: C_4  and  C_8
REMARK    2  A    between atoms: C_8  and  C_10
REMARK    3  A    between atoms: C_8  and  N_30
REMARK    4  A    between atoms: C_10  and  N_11
REMARK    5  A    between atoms: C_12  and  C_14
REMARK    6  A    between atoms: C_14  and  C_15
REMARK    7  A    between atoms: C_15  and  C_16
REMARK    8  A    between atoms: C_16  and  C_17
REMARK    9  A    between atoms: C_17  and  C_18
REMARK                            x       y       z     vdW  Elec       q    Type
REMARK                         _______ _______ _______ _____ _____    ______ ____
ROOT
ATOM      1  N   UNL     1       4.902  -1.984  -1.766  0.00  0.00    -0.317 N 
ATOM      2  C   UNL     1       5.090  -2.532  -2.983  0.00  0.00    +0.213 C 
ATOM      3  O   UNL     1       4.319  -2.283  -3.885  0.00  0.00    -0.276 OA
ATOM      4  H   UNL     1       5.518  -2.183  -1.044  0.00  0.00    +0.149 HD
ENDROOT
BRANCH   1   5
ATOM      5  C   UNL     1       3.765  -1.089  -1.533  0.00  0.00    +0.093 C 
BRANCH   5   6
ATOM      6  C   UNL     1       3.711  -0.708  -0.052  0.00  0.00    -0.016 C 
BRANCH   6  10
ATOM      7  C   UNL     1       7.149   1.628   0.943  0.00  0.00    +0.004 A 
ATOM      8  C   UNL     1       7.019   0.345   1.441  0.00  0.00    +0.038 A 
ATOM      9  C   UNL     1       5.906  -0.412   1.119  0.00  0.00    +0.126 A 
ATOM     10  C   UNL     1       4.923   0.116   0.299  0.00  0.00    -0.006 A 
ATOM     11  C   UNL     1       5.055   1.400  -0.198  0.00  0.00    +0.045 A 
ATOM     12  C   UNL     1       6.168   2.156   0.125  0.00  0.00    +0.020 A 
ATOM     13 CL   UNL     1       3.823   2.063  -1.226  0.00  0.00    -0.083 Cl
ATOM     14  F   UNL     1       5.779  -1.667   1.605  0.00  0.00    -0.205 F 
ENDBRANCH   6  10
BRANCH   6  15
ATOM     15  N   UNL     1       2.495   0.074   0.208  0.00  0.00    +0.385 N 
ATOM     16  C   UNL     1       1.294  -0.792   0.090  0.00  0.00    -0.078 C 
ATOM     17  C   UNL     1       0.224  -0.028   0.910  0.00  0.00    -0.020 C 
ATOM     18  C   UNL     1       1.039   0.544   2.093  0.00  0.00    -0.020 C 
ATOM     19  C   UNL     1       2.498   0.573   1.600  0.00  0.00    -0.078 C 
ATOM     20  H   UNL     1       2.433   0.847  -0.438  0.00  0.00    -0.081 HD
ENDBRANCH   6  15
ENDBRANCH   5   6
ENDBRANCH   1   5
BRANCH   2  21
ATOM     21  C   UNL     1       6.259  -3.452  -3.222  0.00  0.00    +0.096 C 
BRANCH  21  22
ATOM     22  C   UNL     1       6.242  -3.932  -4.675  0.00  0.00    +0.009 C 
BRANCH  22  23
ATOM     23  C   UNL     1       7.428  -4.867  -4.918  0.00  0.00    +0.002 C 
BRANCH  23  24
ATOM     24  C   UNL     1       7.411  -5.346  -6.371  0.00  0.00    +0.016 C 
BRANCH  24  25
ATOM     25  C   UNL     1       8.597  -6.280  -6.614  0.00  0.00    +0.069 C 
ATOM     26  C   UNL     1       8.591  -6.821  -8.060  0.00  0.00    +0.108 C 
ATOM     27  C   UNL     1       9.982  -6.891  -8.697  0.00  0.00    +0.105 C 
ATOM     28  C   UNL     1      11.114  -6.398  -7.770  0.00  0.00    +0.093 C 
ATOM     29  S   UNL     1      10.191  -5.351  -6.578  0.00  0.00    -0.154 S 
ATOM     30  N   UNL     1       9.891  -5.986  -9.854  0.00  0.00    -0.294 N 
ATOM     31  C   UNL     1       8.658  -5.463  -9.903  0.00  0.00    +0.300 C 
ATOM     32  O   UNL     1       8.304  -4.679 -10.762  0.00  0.00    -0.253 OA
ATOM     33  N   UNL     1       7.859  -5.878  -8.922  0.00  0.00    -0.294 N 
ATOM     34  H   UNL     1      10.607  -5.798 -10.480  0.00  0.00    +0.151 HD
ATOM     35  H   UNL     1       6.938  -5.601  -8.799  0.00  0.00    +0.151 HD
ENDBRANCH  24  25
ENDBRANCH  23  24
ENDBRANCH  22  23
ENDBRANCH  21  22
ENDBRANCH   2  21
TORSDOF 9
