REMARK  Name = ZINC55887918
REMARK  10 active torsions:
REMARK  status: ('A' for Active; 'I' for Inactive)
REMARK    1  A    between atoms: C_1  and  C_2
REMARK    2  A    between atoms: C_4  and  C_27
REMARK    3  A    between atoms: C_5  and  C_24
REMARK    4  A    between atoms: C_6  and  C_23
REMARK    5  A    between atoms: C_7  and  C_8
REMARK    6  A    between atoms: C_8  and  N_9
REMARK    7  A    between atoms: N_9  and  C_10
REMARK    8  A    between atoms: C_15  and  N_16
REMARK    9  A    between atoms: C_19  and  O_22
REMARK   10  A    between atoms: C_24  and  C_26
REMARK                            x       y       z     vdW  Elec       q    Type
REMARK                         _______ _______ _______ _____ _____    ______ ____
ROOT
ATOM      1  N   UNL     1      -1.353   0.163   2.939  0.00  0.00    -0.338 N 
ATOM      2  H   UNL     1      -2.075  -0.146   2.371  0.00  0.00    +0.146 HD
ENDROOT
BRANCH   1   3
ATOM      3  C   UNL     1      -1.638   0.839   4.127  0.00  0.00    +0.047 A 
ATOM      4  C   UNL     1      -0.612   1.175   5.002  0.00  0.00    +0.025 A 
ATOM      5  C   UNL     1      -0.898   1.843   6.176  0.00  0.00    +0.002 A 
ATOM      6  C   UNL     1      -2.204   2.178   6.482  0.00  0.00    +0.002 A 
ATOM      7  C   UNL     1      -3.228   1.845   5.614  0.00  0.00    +0.023 A 
ATOM      8  C   UNL     1      -2.949   1.182   4.435  0.00  0.00    +0.035 A 
BRANCH   8   9
ATOM      9  N   UNL     1      -3.984   0.851   3.556  0.00  0.00    -0.392 NA
ATOM     10  C   UNL     1      -4.987   0.048   4.264  0.00  0.00    +0.087 C 
ATOM     11  C   UNL     1      -6.082  -0.385   3.287  0.00  0.00    +0.048 C 
ATOM     12  C   UNL     1      -6.748   0.859   2.691  0.00  0.00    +0.117 C 
ATOM     13  C   UNL     1      -5.680   1.726   2.019  0.00  0.00    +0.048 C 
ATOM     14  C   UNL     1      -4.600   2.081   3.044  0.00  0.00    +0.087 C 
ATOM     15  H   UNL     1      -3.611   0.317   2.785  0.00  0.00    +0.126 HD
BRANCH  12  16
ATOM     16  O   UNL     1      -7.721   0.462   1.722  0.00  0.00    -0.392 OA
ATOM     17  H   UNL     1      -8.183   1.201   1.304  0.00  0.00    +0.210 HD
ENDBRANCH  12  16
ENDBRANCH   8   9
ENDBRANCH   1   3
BRANCH   1  18
ATOM     18  C   UNL     1       0.039  -0.078   2.550  0.00  0.00    +0.137 C 
BRANCH  18  25
ATOM     19  C   UNL     1       0.105   1.393   0.069  0.00  0.00    +0.044 C 
ATOM     20  C   UNL     1       0.104  -0.114   0.048  0.00  0.00    -0.045 A 
ATOM     21  C   UNL     1       0.141  -0.786  -1.162  0.00  0.00    +0.007 A 
ATOM     22  C   UNL     1       0.141  -2.164  -1.190  0.00  0.00    -0.039 A 
ATOM     23  C   UNL     1       0.103  -2.884   0.009  0.00  0.00    +0.023 A 
ATOM     24  C   UNL     1       0.066  -2.198   1.227  0.00  0.00    -0.035 A 
ATOM     25  C   UNL     1       0.073  -0.819   1.238  0.00  0.00    -0.024 A 
ATOM     26  C   UNL     1       0.025  -2.964   2.524  0.00  0.00    +0.045 C 
ATOM     27  C   UNL     1       0.180  -2.893  -2.508  0.00  0.00    +0.044 C 
BRANCH  23  28
ATOM     28  C   UNL     1       0.102  -4.355  -0.012  0.00  0.00    +0.161 C 
ATOM     29  O   UNL     1      -0.942  -4.959  -0.130  0.00  0.00    -0.292 OA
ATOM     30  C   UNL     1       1.400  -5.112   0.114  0.00  0.00    +0.091 C 
ENDBRANCH  23  28
ENDBRANCH  18  25
ENDBRANCH   1  18
TORSDOF 6
