REMARK  Name = ZINC63303162
REMARK  7 active torsions:
REMARK  status: ('A' for Active; 'I' for Inactive)
REMARK    1  A    between atoms: C_9  and  S_14
REMARK    2  A    between atoms: C_11  and  O_13
REMARK    3  A    between atoms: S_14  and  C_15
REMARK    4  A    between atoms: C_15  and  C_16
REMARK    5  A    between atoms: N_18  and  C_19
REMARK    6  A    between atoms: C_19  and  C_20
REMARK    7  A    between atoms: C_20  and  C_21
REMARK                            x       y       z     vdW  Elec       q    Type
REMARK                         _______ _______ _______ _____ _____    ______ ____
ROOT
ATOM      1  C   UNL     1       6.931  -5.348  -0.381  0.00  0.00    +0.223 C 
ATOM      2  O   UNL     1       6.635  -5.976  -1.376  0.00  0.00    -0.275 OA
ATOM      3  N   UNL     1       8.114  -5.565   0.226  0.00  0.00    -0.314 N 
ATOM      4  H   UNL     1       8.350  -5.063   1.022  0.00  0.00    +0.149 HD
ENDROOT
BRANCH   1   5
ATOM      5  C   UNL     1       5.974  -4.325   0.176  0.00  0.00    +0.165 C 
BRANCH   5   6
ATOM      6  S   UNL     1       4.483  -4.267  -0.856  0.00  0.00    -0.139 S 
BRANCH   6  15
ATOM      7  C   UNL     1      -0.017   1.373   0.010  0.00  0.00    +0.000 A 
ATOM      8  C   UNL     1       1.178   2.071   0.002  0.00  0.00    +0.002 A 
ATOM      9  C   UNL     1       2.366   1.387  -0.018  0.00  0.00    +0.028 A 
ATOM     10  C   UNL     1       2.401  -0.025  -0.029  0.00  0.00    +0.071 A 
ATOM     11  C   UNL     1       1.200  -0.715  -0.012  0.00  0.00    -0.022 A 
ATOM     12  C   UNL     1       0.002  -0.004   0.002  0.00  0.00    +0.006 A 
ATOM     13  C   UNL     1       1.071  -2.206   0.008  0.00  0.00    +0.039 C 
ATOM     14  C   UNL     1       2.115  -2.952  -0.764  0.00  0.00    +0.028 C 
ATOM     15  C   UNL     1       3.449  -3.006  -0.061  0.00  0.00    +0.132 C 
ATOM     16  C   UNL     1       4.160  -1.701  -0.109  0.00  0.00    +0.201 C 
ATOM     17  N   UNL     1       3.635  -0.562  -0.062  0.00  0.00    -0.216 NA
BRANCH  16  18
ATOM     18  O   UNL     1       5.504  -1.746  -0.213  0.00  0.00    -0.495 OA
ATOM     19  H   UNL     1       5.925  -0.876  -0.240  0.00  0.00    +0.293 HD
ENDBRANCH  16  18
ENDBRANCH   6  15
ENDBRANCH   5   6
ENDBRANCH   1   5
BRANCH   3  20
ATOM     20  C   UNL     1       9.044  -6.560  -0.315  0.00  0.00    +0.108 C 
BRANCH  20  21
ATOM     21  C   UNL     1      10.301  -6.609   0.555  0.00  0.00    +0.052 C 
BRANCH  21  22
ATOM     22  C   UNL     1      11.258  -7.632  -0.002  0.00  0.00    -0.040 C 
ATOM     23  C   UNL     1      12.292  -7.404  -0.843  0.00  0.00    +0.002 A 
ATOM     24  C   UNL     1      12.816  -6.183  -1.467  0.00  0.00    +0.048 A 
ATOM     25  C   UNL     1      13.892  -6.273  -2.284  0.00  0.00    +0.124 A 
ATOM     26  C   UNL     1      14.517  -7.503  -2.547  0.00  0.00    +0.040 A 
ATOM     27  C   UNL     1      14.092  -8.666  -2.011  0.00  0.00    +0.029 A 
ATOM     28  C   UNL     1      12.969  -8.688  -1.138  0.00  0.00    +0.043 A 
ATOM     29  N   UNL     1      12.377  -9.670  -0.504  0.00  0.00    -0.380 N 
ATOM     30  C   UNL     1      11.259  -9.119   0.271  0.00  0.00    +0.144 C 
ATOM     31  F   UNL     1      14.377  -5.152  -2.860  0.00  0.00    -0.205 F 
ATOM     32  H   UNL     1      12.636 -10.604  -0.538  0.00  0.00    +0.160 HD
ENDBRANCH  21  22
ENDBRANCH  20  21
ENDBRANCH   3  20
TORSDOF 7
