REMARK  Name = ZINC64946151
REMARK  6 active torsions:
REMARK  status: ('A' for Active; 'I' for Inactive)
REMARK    1  A    between atoms: C_1  and  C_2
REMARK    2  A    between atoms: C_2  and  C_3
REMARK    3  A    between atoms: C_2  and  C_4
REMARK    4  A    between atoms: C_4  and  N_5
REMARK    5  A    between atoms: N_16  and  C_19
REMARK    6  A    between atoms: C_19  and  C_20
REMARK                            x       y       z     vdW  Elec       q    Type
REMARK                         _______ _______ _______ _____ _____    ______ ____
ROOT
ATOM      1  N   UNL     1      -0.008  -0.140   2.444  0.00  0.00    -0.276 N 
ATOM      2  C   UNL     1       0.233   1.040   3.054  0.00  0.00    +0.270 A 
ATOM      3  O   UNL     1       1.074   1.799   2.607  0.00  0.00    -0.266 OA
ATOM      4  C   UNL     1      -0.490   1.387   4.203  0.00  0.00    +0.101 A 
ATOM      5  C   UNL     1      -1.461   0.547   4.747  0.00  0.00    +0.074 A 
ATOM      6  C   UNL     1      -2.073   1.061   5.887  0.00  0.00    +0.035 A 
ATOM      7  C   UNL     1      -1.700   2.271   6.359  0.00  0.00    +0.048 A 
ATOM      8  S   UNL     1      -0.506   2.784   5.294  0.00  0.00    -0.090 S 
ATOM      9  N   UNL     1      -1.684  -0.675   4.084  0.00  0.00    -0.228 N 
ATOM     10  C   UNL     1      -0.973  -0.999   2.954  0.00  0.00    +0.240 A 
ATOM     11  N   UNL     1      -1.373  -2.170   2.536  0.00  0.00    -0.129 NA
ATOM     12  N   UNL     1      -2.374  -2.623   3.405  0.00  0.00    -0.206 N 
ATOM     13  C   UNL     1      -2.539  -1.681   4.358  0.00  0.00    +0.353 A 
ATOM     14  O   UNL     1      -3.326  -1.724   5.287  0.00  0.00    -0.244 OA
ENDROOT
BRANCH   1  15
ATOM     15  C   UNL     1       0.742  -0.511   1.242  0.00  0.00    +0.131 C 
BRANCH  15  17
ATOM     16  C   UNL     1      -0.019   1.526   0.010  0.00  0.00    +0.009 C 
ATOM     17  C   UNL     1       0.002  -0.004   0.002  0.00  0.00    +0.003 C 
ATOM     18  C   UNL     1       0.718  -0.497  -1.257  0.00  0.00    +0.009 C 
ENDBRANCH  15  17
ENDBRANCH   1  15
BRANCH  12  19
ATOM     19  C   UNL     1      -3.100  -3.892   3.305  0.00  0.00    +0.184 C 
BRANCH  19  20
ATOM     20  C   UNL     1      -4.334  -3.700   2.462  0.00  0.00    -0.026 A 
ATOM     21  C   UNL     1      -5.525  -3.325   3.056  0.00  0.00    +0.008 A 
ATOM     22  C   UNL     1      -6.657  -3.149   2.284  0.00  0.00    +0.038 A 
ATOM     23  C   UNL     1      -6.599  -3.347   0.915  0.00  0.00    +0.123 A 
ATOM     24  C   UNL     1      -5.405  -3.722   0.321  0.00  0.00    +0.038 A 
ATOM     25  C   UNL     1      -4.273  -3.893   1.095  0.00  0.00    +0.008 A 
ATOM     26  F   UNL     1      -7.705  -3.175   0.159  0.00  0.00    -0.205 F 
ENDBRANCH  19  20
ENDBRANCH  12  19
TORSDOF 4
