REMARK  Name = ZINC12497184
REMARK  10 active torsions:
REMARK  status: ('A' for Active; 'I' for Inactive)
REMARK    1  A    between atoms: C_1  and  O_2
REMARK    2  A    between atoms: O_2  and  C_3
REMARK    3  A    between atoms: C_8  and  C_9
REMARK    4  A    between atoms: N_17  and  C_20
REMARK    5  A    between atoms: C_26  and  C_27
REMARK    6  A    between atoms: C_26  and  C_35
REMARK    7  A    between atoms: C_27  and  C_28
REMARK    8  A    between atoms: C_31  and  O_34
REMARK    9  A    between atoms: C_35  and  O_37
REMARK   10  A    between atoms: O_37  and  C_38
REMARK                            x       y       z     vdW  Elec       q    Type
REMARK                         _______ _______ _______ _____ _____    ______ ____
ROOT
ATOM      1  C   UNL     1       2.817   4.944   2.997  0.00  0.00    -0.023 C 
ATOM      2  C   UNL     1       1.579   5.840   2.995  0.00  0.00    +0.077 C 
ATOM      3  C   UNL     1       1.131   5.570   1.502  0.00  0.00    +0.086 C 
ATOM      4  C   UNL     1       0.200   6.658   1.304  0.00  0.00    +0.229 C 
ATOM      5  O   UNL     1      -0.835   6.642   0.673  0.00  0.00    -0.275 OA
ATOM      6  N   UNL     1       0.741   7.713   1.986  0.00  0.00    -0.210 N 
ATOM      7  C   UNL     1       1.734   7.328   2.843  0.00  0.00    +0.229 C 
ATOM      8  O   UNL     1       2.565   8.037   3.369  0.00  0.00    -0.275 OA
ATOM      9  C   UNL     1       1.153   4.095   1.456  0.00  0.00    +0.048 C 
ATOM     10  N   UNL     1       2.455   3.792   2.129  0.00  0.00    +0.396 N 
ATOM     11  H   UNL     1       2.361   2.944   2.701  0.00  0.00    -0.083 HD
ATOM     12  H   UNL     1       3.186   3.649   1.422  0.00  0.00    -0.083 HD
ENDROOT
BRANCH   1  18
ATOM     13  C   UNL     1       4.766   6.503   3.239  0.00  0.00    +0.122 A 
ATOM     14  C   UNL     1       5.853   7.182   2.709  0.00  0.00    +0.046 A 
ATOM     15  C   UNL     1       6.169   7.041   1.372  0.00  0.00    +0.004 A 
ATOM     16  C   UNL     1       5.402   6.224   0.562  0.00  0.00    +0.000 A 
ATOM     17  C   UNL     1       4.321   5.542   1.089  0.00  0.00    +0.005 A 
ATOM     18  C   UNL     1       3.998   5.684   2.425  0.00  0.00    -0.019 A 
BRANCH  13  20
ATOM     19  C   UNL     1       5.287   7.500   5.333  0.00  0.00    +0.277 C 
ATOM     20  O   UNL     1       4.452   6.640   4.555  0.00  0.00    -0.495 OA
ENDBRANCH  13  20
ENDBRANCH   1  18
BRANCH   6  21
ATOM     21  C   UNL     1       0.318   9.041   1.833  0.00  0.00    +0.044 A 
ATOM     22  C   UNL     1      -0.694   9.350   0.935  0.00  0.00    +0.024 A 
ATOM     23  C   UNL     1      -1.112  10.658   0.790  0.00  0.00    +0.002 A 
ATOM     24  C   UNL     1      -0.516  11.662   1.531  0.00  0.00    +0.000 A 
ATOM     25  C   UNL     1       0.496  11.358   2.423  0.00  0.00    +0.002 A 
ATOM     26  C   UNL     1       0.915  10.051   2.576  0.00  0.00    +0.024 A 
ENDBRANCH   6  21
BRANCH   9  27
ATOM     27  C   UNL     1      -0.003   3.514   2.229  0.00  0.00    +0.297 C 
ATOM     28  O   UNL     1      -1.028   4.143   2.345  0.00  0.00    -0.252 OA
BRANCH  27  29
ATOM     29  O   UNL     1       0.107   2.300   2.789  0.00  0.00    -0.469 OA
ATOM     30  C   UNL     1      -1.046   1.804   3.519  0.00  0.00    +0.280 C 
ENDBRANCH  27  29
ENDBRANCH   9  27
BRANCH   9  31
ATOM     31  C   UNL     1       1.147   3.593   0.011  0.00  0.00    +0.034 C 
BRANCH  31  32
ATOM     32  C   UNL     1       1.171   2.086   0.002  0.00  0.00    -0.048 A 
ATOM     33  C   UNL     1      -0.017   1.377   0.010  0.00  0.00    +0.007 A 
ATOM     34  C   UNL     1       0.002  -0.004   0.002  0.00  0.00    +0.045 A 
ATOM     35  C   UNL     1       1.213  -0.680  -0.013  0.00  0.00    +0.117 A 
ATOM     36  C   UNL     1       2.403   0.033  -0.021  0.00  0.00    +0.045 A 
ATOM     37  C   UNL     1       2.379   1.415  -0.013  0.00  0.00    +0.007 A 
BRANCH  35  38
ATOM     38  O   UNL     1       1.234  -2.039  -0.020  0.00  0.00    -0.507 OA
ATOM     39  H   UNL     1       1.232  -2.428  -0.906  0.00  0.00    +0.292 HD
ENDBRANCH  35  38
ENDBRANCH  31  32
ENDBRANCH   9  31
TORSDOF 8
