REMARK  Name = ZINC48796317
REMARK  9 active torsions:
REMARK  status: ('A' for Active; 'I' for Inactive)
REMARK    1  A    between atoms: C_1  and  C_2
REMARK    2  A    between atoms: C_2  and  C_3
REMARK    3  A    between atoms: C_3  and  C_5
REMARK    4  A    between atoms: C_3  and  N_13
REMARK    5  A    between atoms: C_8  and  O_11
REMARK    6  A    between atoms: O_11  and  C_12
REMARK    7  A    between atoms: N_13  and  C_14
REMARK    8  A    between atoms: C_14  and  C_15
REMARK    9  A    between atoms: C_20  and  O_21
REMARK                            x       y       z     vdW  Elec       q    Type
REMARK                         _______ _______ _______ _____ _____    ______ ____
ROOT
ATOM      1  N   UNL     1       2.219  -0.000   1.042  0.00  0.00    +0.386 N 
ATOM      2  H   UNL     1       2.514  -0.457   0.192  0.00  0.00    -0.085 HD
ATOM      3  H   UNL     1       2.339   0.997   0.946  0.00  0.00    -0.085 HD
ENDROOT
BRANCH   1   4
ATOM      4  C   UNL     1       0.804  -0.301   1.294  0.00  0.00    -0.041 C 
BRANCH   4   5
ATOM      5  C   UNL     1       0.603  -1.795   1.306  0.00  0.00    -0.061 A 
ATOM      6  C   UNL     1       1.272  -2.589   0.393  0.00  0.00    +0.005 A 
ATOM      7  C   UNL     1       1.089  -3.958   0.401  0.00  0.00    +0.046 A 
ATOM      8  C   UNL     1       0.233  -4.536   1.327  0.00  0.00    +0.120 A 
ATOM      9  C   UNL     1      -0.437  -3.738   2.243  0.00  0.00    +0.046 A 
ATOM     10  C   UNL     1      -0.247  -2.370   2.233  0.00  0.00    +0.005 A 
BRANCH   8  11
ATOM     11  O   UNL     1       0.051  -5.883   1.337  0.00  0.00    -0.495 OA
ATOM     12  C   UNL     1      -0.845  -6.409   2.318  0.00  0.00    +0.277 C 
ENDBRANCH   8  11
ENDBRANCH   4   5
BRANCH   4  14
ATOM     13  C   UNL     1       0.048   1.845   0.263  0.00  0.00    +0.002 C 
ATOM     14  C   UNL     1      -0.054   0.320   0.191  0.00  0.00    -0.015 C 
ENDBRANCH   4  14
ENDBRANCH   1   4
BRANCH   1  15
ATOM     15  C   UNL     1       3.031  -0.485   2.166  0.00  0.00    -0.042 C 
BRANCH  15  16
ATOM     16  C   UNL     1       4.465  -0.066   1.968  0.00  0.00    -0.022 A 
ATOM     17  C   UNL     1       5.385  -0.966   1.465  0.00  0.00    +0.005 A 
ATOM     18  C   UNL     1       6.701  -0.582   1.283  0.00  0.00    +0.002 A 
ATOM     19  C   UNL     1       7.100   0.703   1.603  0.00  0.00    +0.019 A 
ATOM     20  C   UNL     1       6.183   1.607   2.105  0.00  0.00    +0.059 A 
ATOM     21  C   UNL     1       4.861   1.225   2.284  0.00  0.00    +0.132 A 
ATOM     22 BR   UNL     1       6.729   3.364   2.543  0.00  0.00    -0.047 Br
BRANCH  21  23
ATOM     23  O   UNL     1       3.956   2.114   2.774  0.00  0.00    -0.505 OA
ATOM     24  H   UNL     1       3.884   2.111   3.738  0.00  0.00    +0.292 HD
ENDBRANCH  21  23
ENDBRANCH  15  16
ENDBRANCH   1  15
TORSDOF 7
