REMARK  Name = ZINC14000601
REMARK  14 active torsions:
REMARK  status: ('A' for Active; 'I' for Inactive)
REMARK    1  A    between atoms: C_1  and  C_2
REMARK    2  A    between atoms: C_2  and  C_3
REMARK    3  A    between atoms: C_2  and  C_4
REMARK    4  A    between atoms: C_2  and  O_5
REMARK    5  A    between atoms: O_5  and  C_6
REMARK    6  A    between atoms: C_6  and  C_8
REMARK    7  A    between atoms: C_8  and  C_9
REMARK    8  A    between atoms: C_9  and  C_10
REMARK    9  A    between atoms: C_10  and  C_12
REMARK   10  A    between atoms: C_10  and  N_24
REMARK   11  A    between atoms: N_14  and  C_15
REMARK   12  A    between atoms: C_15  and  C_16
REMARK   13  A    between atoms: C_19  and  C_22
REMARK   14  A    between atoms: C_25  and  C_27
REMARK                            x       y       z     vdW  Elec       q    Type
REMARK                         _______ _______ _______ _____ _____    ______ ____
ROOT
ATOM      1  C   UNL     1       2.252  -1.051   1.508  0.00  0.00    +0.160 C 
ENDROOT
BRANCH   1   2
ATOM      2  C   UNL     1       2.321  -1.778   0.190  0.00  0.00    +0.234 C 
ATOM      3  O   UNL     1       1.324  -2.291  -0.273  0.00  0.00    -0.274 OA
ATOM      4  N   UNL     1       3.491  -1.859  -0.474  0.00  0.00    -0.310 N 
ATOM      5  H   UNL     1       4.288  -1.449  -0.104  0.00  0.00    +0.149 HD
BRANCH   4   6
ATOM      6  C   UNL     1       3.558  -2.566  -1.756  0.00  0.00    +0.139 C 
BRANCH   6   7
ATOM      7  C   UNL     1       4.968  -2.511  -2.286  0.00  0.00    -0.030 A 
ATOM      8  C   UNL     1       5.354  -1.468  -3.110  0.00  0.00    +0.006 A 
ATOM      9  C   UNL     1       6.644  -1.410  -3.595  0.00  0.00    +0.011 A 
ATOM     10  C   UNL     1       7.557  -2.410  -3.261  0.00  0.00    +0.012 A 
ATOM     11  C   UNL     1       7.161  -3.461  -2.435  0.00  0.00    +0.011 A 
ATOM     12  C   UNL     1       5.869  -3.506  -1.952  0.00  0.00    +0.006 A 
BRANCH  10  13
ATOM     13  C   UNL     1       8.942  -2.356  -3.783  0.00  0.00    +0.094 C 
ATOM     14  N   UNL     1       9.331  -1.316  -4.599  0.00  0.00    -0.345 N 
ATOM     15  H   UNL     1      10.722  -3.343  -3.761  0.00  0.00    +0.157 HD
ATOM     16  H   UNL     1       8.697  -0.619  -4.832  0.00  0.00    +0.144 HD
ATOM     17  H   UNL     1      10.238  -1.280  -4.940  0.00  0.00    +0.144 HD
ATOM     18  N   UNL     1       9.758  -3.336  -3.428  0.00  0.00    -0.387 N 
ATOM     19  H   UNL     1       9.421  -4.089  -2.817  0.00  0.00    +0.157 HD
ENDBRANCH  10  13
ENDBRANCH   6   7
ENDBRANCH   4   6
ENDBRANCH   1   2
BRANCH   1  20
ATOM     20  N   UNL     1       0.862  -0.685   1.792  0.00  0.00    -0.300 N 
ATOM     21  C   UNL     1      -0.079  -1.645   1.899  0.00  0.00    +0.251 C 
ATOM     22  O   UNL     1       0.227  -2.815   1.761  0.00  0.00    -0.270 OA
ATOM     23  H   UNL     1       0.619   0.247   1.903  0.00  0.00    +0.150 HD
BRANCH  21  24
ATOM     24  C   UNL     1      -1.471  -1.278   2.177  0.00  0.00    +0.074 A 
ATOM     25  C   UNL     1      -2.579  -2.099   2.319  0.00  0.00    +0.021 A 
ATOM     26  C   UNL     1      -3.780  -1.488   2.580  0.00  0.00    +0.008 A 
ATOM     27  C   UNL     1      -3.826  -0.134   2.686  0.00  0.00    +0.046 A 
ATOM     28  S   UNL     1      -2.179   0.340   2.429  0.00  0.00    -0.092 S 
ENDBRANCH  21  24
ENDBRANCH   1  20
BRANCH   1  29
ATOM     29  C   UNL     1       2.777  -1.961   2.621  0.00  0.00    +0.043 C 
BRANCH  29  30
ATOM     30  C   UNL     1       2.824  -1.182   3.937  0.00  0.00    +0.123 C 
BRANCH  30  31
ATOM     31  C   UNL     1       3.341  -2.079   5.033  0.00  0.00    +0.308 C 
ATOM     32  O   UNL     1       3.641  -3.223   4.786  0.00  0.00    -0.251 OA
BRANCH  31  33
ATOM     33  O   UNL     1       3.468  -1.606   6.283  0.00  0.00    -0.459 OA
BRANCH  33  35
ATOM     34  C   UNL     1       5.369  -3.004   6.885  0.00  0.00    +0.055 C 
ATOM     35  C   UNL     1       3.972  -2.525   7.287  0.00  0.00    +0.105 C 
ATOM     36  C   UNL     1       4.048  -1.812   8.639  0.00  0.00    +0.055 C 
ATOM     37  C   UNL     1       3.033  -3.727   7.396  0.00  0.00    +0.055 C 
ENDBRANCH  33  35
ENDBRANCH  31  33
ENDBRANCH  30  31
ENDBRANCH  29  30
ENDBRANCH   1  29
TORSDOF 11
