REMARK  Name = ZINC37123022
REMARK  10 active torsions:
REMARK  status: ('A' for Active; 'I' for Inactive)
REMARK    1  A    between atoms: C_1  and  C_2
REMARK    2  A    between atoms: C_2  and  C_3
REMARK    3  A    between atoms: C_3  and  C_5
REMARK    4  A    between atoms: C_3  and  N_13
REMARK    5  A    between atoms: C_10  and  O_11
REMARK    6  A    between atoms: N_13  and  C_14
REMARK    7  A    between atoms: C_14  and  C_16
REMARK    8  A    between atoms: C_14  and  C_17
REMARK    9  A    between atoms: C_19  and  C_23
REMARK   10  A    between atoms: C_21  and  C_22
REMARK                            x       y       z     vdW  Elec       q    Type
REMARK                         _______ _______ _______ _____ _____    ______ ____
ROOT
ATOM      1  C   UNL     1       0.505  -0.712   1.366  0.00  0.00    -0.037 C 
ENDROOT
BRANCH   1   2
ATOM      2  C   UNL     1       1.986  -0.434   1.379  0.00  0.00    -0.019 A 
ATOM      3  C   UNL     1       2.617  -0.103   2.563  0.00  0.00    +0.020 A 
ATOM      4  C   UNL     1       3.976   0.152   2.576  0.00  0.00    +0.018 A 
ATOM      5  C   UNL     1       4.707   0.076   1.404  0.00  0.00    +0.019 A 
ATOM      6  C   UNL     1       4.081  -0.255   0.218  0.00  0.00    +0.047 A 
ATOM      7  C   UNL     1       2.718  -0.516   0.204  0.00  0.00    +0.119 A 
ATOM      8 BR   UNL     1       4.837   0.605   4.198  0.00  0.00    -0.050 Br
BRANCH   7   9
ATOM      9  O   UNL     1       2.100  -0.847  -0.961  0.00  0.00    -0.507 OA
ATOM     10  H   UNL     1       1.763  -0.088  -1.456  0.00  0.00    +0.292 HD
ENDBRANCH   7   9
ENDBRANCH   1   2
BRANCH   1  11
ATOM     11  N   UNL     1      -0.134  -0.017   2.491  0.00  0.00    +0.388 N 
ATOM     12  H   UNL     1      -1.108  -0.274   2.536  0.00  0.00    -0.084 HD
ATOM     13  H   UNL     1       0.323  -0.279   3.352  0.00  0.00    -0.084 HD
BRANCH  11  14
ATOM     14  C   UNL     1      -0.019   1.435   2.299  0.00  0.00    -0.042 C 
ATOM     15  C   UNL     1      -0.834   1.853   1.073  0.00  0.00    -0.009 C 
BRANCH  14  16
ATOM     16  C   UNL     1      -0.545   2.147   3.519  0.00  0.00    -0.051 A 
ATOM     17  C   UNL     1      -1.389   1.498   4.400  0.00  0.00    +0.013 A 
ATOM     18  C   UNL     1      -1.844   2.167   5.488  0.00  0.00    -0.013 A 
ATOM     19  S   UNL     1      -1.075   3.765   5.287  0.00  0.00    -0.098 S 
ATOM     20  C   UNL     1      -0.194   3.432   3.771  0.00  0.00    -0.011 A 
ATOM     21  C   UNL     1       0.706   4.343   2.976  0.00  0.00    +0.052 C 
ATOM     22  C   UNL     1      -2.762   1.686   6.582  0.00  0.00    +0.051 C 
ENDBRANCH  14  16
ENDBRANCH  11  14
ENDBRANCH   1  11
BRANCH   1  24
ATOM     23  C   UNL     1      -1.231  -2.509   1.391  0.00  0.00    +0.002 C 
ATOM     24  C   UNL     1       0.267  -2.218   1.496  0.00  0.00    -0.014 C 
ENDBRANCH   1  24
TORSDOF 6
