REMARK  Name = ZINC10812994
REMARK  3 active torsions:
REMARK  status: ('A' for Active; 'I' for Inactive)
REMARK    1  A    between atoms: C_11  and  C_13
REMARK    2  A    between atoms: N_19  and  S_20
REMARK    3  A    between atoms: S_20  and  C_23
REMARK                            x       y       z     vdW  Elec       q    Type
REMARK                         _______ _______ _______ _____ _____    ______ ____
ROOT
ATOM      1  C   UNL     1       4.439  -6.125   2.215  0.00  0.00    +0.019 A 
ATOM      2  C   UNL     1       4.042  -6.809   3.349  0.00  0.00    +0.023 A 
ATOM      3  C   UNL     1       2.693  -6.869   3.669  0.00  0.00    +0.061 A 
ATOM      4  C   UNL     1       1.743  -6.264   2.885  0.00  0.00    +0.086 A 
ATOM      5  C   UNL     1       2.114  -5.555   1.718  0.00  0.00    +0.100 A 
ATOM      6  C   UNL     1       3.496  -5.516   1.425  0.00  0.00    +0.042 A 
ATOM      7  S   UNL     1       3.538  -4.559  -0.072  0.00  0.00    -0.052 S 
ATOM      8  C   UNL     1       1.778  -4.280  -0.210  0.00  0.00    +0.166 A 
ATOM      9  N   UNL     1       1.313  -4.903   0.848  0.00  0.00    -0.223 NA
ATOM     10  N   UNL     1       1.083  -3.580  -1.183  0.00  0.00    -0.263 N 
ATOM     11  C   UNL     1      -0.259  -3.481  -1.111  0.00  0.00    +0.238 C 
ATOM     12  O   UNL     1      -0.858  -4.004  -0.196  0.00  0.00    -0.274 OA
ATOM     13 CL   UNL     1       0.068  -6.369   3.329  0.00  0.00    -0.080 Cl
ATOM     14 CL   UNL     1       2.196  -7.729   5.093  0.00  0.00    -0.082 Cl
ATOM     15  H   UNL     1       1.562  -3.162  -1.915  0.00  0.00    +0.157 HD
ENDROOT
BRANCH  11  16
ATOM     16  C   UNL     1      -1.016  -2.720  -2.169  0.00  0.00    +0.166 C 
ATOM     17  C   UNL     1      -2.002  -3.657  -2.874  0.00  0.00    +0.030 C 
ATOM     18  C   UNL     1      -2.860  -2.847  -3.849  0.00  0.00    +0.003 C 
ATOM     19  C   UNL     1      -3.660  -1.797  -3.076  0.00  0.00    +0.017 C 
ATOM     20  C   UNL     1      -2.698  -0.843  -2.372  0.00  0.00    +0.110 C 
ATOM     21  N   UNL     1      -1.769  -1.624  -1.544  0.00  0.00    -0.164 NA
BRANCH  21  22
ATOM     22  S   UNL     1      -1.581  -1.282   0.065  0.00  0.00    +0.068 S 
ATOM     23  O   UNL     1      -1.918   0.089   0.231  0.00  0.00    -0.152 OA
ATOM     24  O   UNL     1      -0.317  -1.807   0.447  0.00  0.00    -0.152 OA
BRANCH  22  25
ATOM     25  C   UNL     1      -2.796  -2.209   0.941  0.00  0.00    +0.144 A 
ATOM     26  C   UNL     1      -2.664  -3.392   1.588  0.00  0.00    +0.038 A 
ATOM     27  C   UNL     1      -3.768  -3.941   2.215  0.00  0.00    +0.030 A 
ATOM     28  C   UNL     1      -4.950  -3.278   2.163  0.00  0.00    +0.080 A 
ATOM     29  S   UNL     1      -4.521  -1.832   1.208  0.00  0.00    -0.057 S 
ATOM     30 CL   UNL     1      -6.483  -3.721   2.848  0.00  0.00    -0.076 Cl
ENDBRANCH  22  25
ENDBRANCH  21  22
ENDBRANCH  11  16
TORSDOF 3
