REMARK  Name = ZINC48326170
REMARK  9 active torsions:
REMARK  status: ('A' for Active; 'I' for Inactive)
REMARK    1  A    between atoms: C_10  and  N_12
REMARK    2  A    between atoms: N_12  and  C_13
REMARK    3  A    between atoms: N_12  and  C_29
REMARK    4  A    between atoms: C_13  and  C_14
REMARK    5  A    between atoms: N_16  and  C_17
REMARK    6  A    between atoms: C_17  and  C_18
REMARK    7  A    between atoms: C_18  and  C_19
REMARK    8  A    between atoms: C_22  and  S_25
REMARK    9  A    between atoms: S_25  and  N_28
REMARK                            x       y       z     vdW  Elec       q    Type
REMARK                         _______ _______ _______ _____ _____    ______ ____
ROOT
ATOM      1  C   UNL     1       5.436   2.194  -1.710  0.00  0.00    +0.197 C 
ATOM      2  O   UNL     1       5.835   1.590  -2.684  0.00  0.00    -0.278 OA
ATOM      3  N   UNL     1       5.633   3.524  -1.615  0.00  0.00    -0.317 N 
ATOM      4  H   UNL     1       5.314   4.006  -0.836  0.00  0.00    +0.149 HD
ENDROOT
BRANCH   1   5
ATOM      5  C   UNL     1       4.720   1.457  -0.608  0.00  0.00    +0.020 C 
BRANCH   5   6
ATOM      6  N   UNL     1       4.633   0.030  -0.949  0.00  0.00    +0.392 N 
ATOM      7  H   UNL     1       4.226  -0.072  -1.866  0.00  0.00    -0.080 HD
BRANCH   6  17
ATOM      8  C   UNL     1       2.964  -4.588  -1.433  0.00  0.00    +0.000 A 
ATOM      9  C   UNL     1       2.940  -3.495  -2.279  0.00  0.00    +0.000 A 
ATOM     10  C   UNL     1       3.213  -2.237  -1.782  0.00  0.00    +0.002 A 
ATOM     11  C   UNL     1       3.513  -2.060  -0.437  0.00  0.00    -0.058 A 
ATOM     12  C   UNL     1       3.541  -3.149   0.405  0.00  0.00    -0.046 A 
ATOM     13  C   UNL     1       3.262  -4.413  -0.097  0.00  0.00    +0.004 A 
ATOM     14  C   UNL     1       3.874  -3.033   1.869  0.00  0.00    +0.035 C 
ATOM     15  C   UNL     1       3.728  -1.587   2.341  0.00  0.00    +0.003 C 
ATOM     16  C   UNL     1       4.516  -0.684   1.385  0.00  0.00    -0.010 C 
ATOM     17  C   UNL     1       3.793  -0.659   0.040  0.00  0.00    -0.036 C 
ENDBRANCH   6  17
BRANCH   6  18
ATOM     18  C   UNL     1       5.980  -0.557  -0.942  0.00  0.00    -0.067 C 
ATOM     19  C   UNL     1       6.623  -0.864  -2.296  0.00  0.00    -0.017 C 
ATOM     20  C   UNL     1       6.120  -2.007  -1.411  0.00  0.00    -0.017 C 
ENDBRANCH   6  18
ENDBRANCH   5   6
ENDBRANCH   1   5
BRANCH   3  21
ATOM     21  C   UNL     1       6.330   4.240  -2.686  0.00  0.00    +0.109 C 
BRANCH  21  22
ATOM     22  C   UNL     1       6.420   5.726  -2.332  0.00  0.00    +0.054 C 
BRANCH  22  23
ATOM     23  C   UNL     1       7.136   6.463  -3.434  0.00  0.00    -0.046 A 
ATOM     24  C   UNL     1       8.511   6.601  -3.393  0.00  0.00    +0.005 A 
ATOM     25  C   UNL     1       9.168   7.277  -4.404  0.00  0.00    +0.029 A 
ATOM     26  C   UNL     1       8.451   7.814  -5.456  0.00  0.00    +0.105 A 
ATOM     27  C   UNL     1       7.076   7.675  -5.497  0.00  0.00    +0.029 A 
ATOM     28  C   UNL     1       6.419   6.995  -4.489  0.00  0.00    +0.005 A 
BRANCH  26  29
ATOM     29  S   UNL     1       9.288   8.677  -6.744  0.00  0.00    +0.056 S 
ATOM     30  O   UNL     1       8.336   9.554  -7.331  0.00  0.00    -0.153 OA
ATOM     31  O   UNL     1      10.513   9.140  -6.193  0.00  0.00    -0.153 OA
BRANCH  29  32
ATOM     32  N   UNL     1       9.683   7.562  -7.904  0.00  0.00    -0.204 NA
ATOM     33  H   UNL     1       9.442   6.630  -7.782  0.00  0.00    +0.144 HD
ATOM     34  H   UNL     1      10.154   7.841  -8.704  0.00  0.00    +0.144 HD
ENDBRANCH  29  32
ENDBRANCH  26  29
ENDBRANCH  22  23
ENDBRANCH  21  22
ENDBRANCH   3  21
TORSDOF 9
