REMARK  Name = ZINC17190799
REMARK  16 active torsions:
REMARK  status: ('A' for Active; 'I' for Inactive)
REMARK    1  A    between atoms: C_1  and  C_2
REMARK    2  A    between atoms: C_2  and  N_3
REMARK    3  A    between atoms: C_12  and  C_14
REMARK    4  A    between atoms: N_16  and  N_17
REMARK    5  A    between atoms: C_18  and  C_20
REMARK    6  A    between atoms: C_20  and  C_21
REMARK    7  A    between atoms: C_21  and  C_22
REMARK    8  A    between atoms: C_24  and  C_33
REMARK    9  A    between atoms: C_25  and  O_32
REMARK   10  A    between atoms: C_26  and  C_28
REMARK   11  A    between atoms: C_28  and  C_29
REMARK   12  A    between atoms: C_28  and  C_30
REMARK   13  A    between atoms: C_28  and  C_31
REMARK   14  A    between atoms: C_33  and  C_34
REMARK   15  A    between atoms: C_33  and  C_35
REMARK   16  A    between atoms: C_33  and  C_36
REMARK                            x       y       z     vdW  Elec       q    Type
REMARK                         _______ _______ _______ _____ _____    ______ ____
ROOT
ATOM      1  N   UNL     1       6.721  -0.368   3.026  0.00  0.00    -0.234 N 
ATOM      2  C   UNL     1       5.508  -0.951   3.098  0.00  0.00    +0.229 C 
ATOM      3  O   UNL     1       5.411  -2.158   3.036  0.00  0.00    -0.274 OA
ATOM      4  H   UNL     1       6.799   0.598   3.076  0.00  0.00    +0.173 HD
ENDROOT
BRANCH   1   7
ATOM      5  C   UNL     1       9.083  -0.573   2.809  0.00  0.00    +0.281 C 
ATOM      6  O   UNL     1       9.180   0.637   2.871  0.00  0.00    -0.267 OA
ATOM      7  N   UNL     1       7.870  -1.156   2.881  0.00  0.00    -0.229 N 
ATOM      8  H   UNL     1       7.792  -2.122   2.831  0.00  0.00    +0.173 HD
BRANCH   5  18
ATOM      9  N   UNL     1      11.195  -3.500   2.455  0.00  0.00    -0.229 N 
ATOM     10  C   UNL     1      12.473  -3.077   2.369  0.00  0.00    +0.275 A 
ATOM     11  O   UNL     1      13.385  -3.873   2.244  0.00  0.00    -0.266 OA
ATOM     12  C   UNL     1      12.738  -1.633   2.430  0.00  0.00    +0.050 A 
ATOM     13  C   UNL     1      14.019  -1.096   2.349  0.00  0.00    +0.014 A 
ATOM     14  C   UNL     1      14.184   0.272   2.414  0.00  0.00    +0.001 A 
ATOM     15  C   UNL     1      13.088   1.112   2.558  0.00  0.00    +0.001 A 
ATOM     16  C   UNL     1      11.810   0.600   2.640  0.00  0.00    +0.011 A 
ATOM     17  C   UNL     1      11.622  -0.777   2.571  0.00  0.00    +0.020 A 
ATOM     18  C   UNL     1      10.293  -1.405   2.656  0.00  0.00    +0.155 A 
ATOM     19  N   UNL     1      10.197  -2.710   2.588  0.00  0.00    -0.163 NA
BRANCH   9  21
ATOM     20  C   UNL     1      10.970  -5.526   3.807  0.00  0.00    +0.029 C 
ATOM     21  C   UNL     1      10.935  -4.940   2.393  0.00  0.00    +0.144 C 
ENDBRANCH   9  21
ENDBRANCH   5  18
ENDBRANCH   1   7
BRANCH   2  22
ATOM     22  C   UNL     1       4.272  -0.102   3.255  0.00  0.00    +0.102 C 
BRANCH  22  23
ATOM     23  C   UNL     1       3.038  -1.004   3.310  0.00  0.00    +0.044 C 
BRANCH  23  24
ATOM     24  C   UNL     1       1.802  -0.156   3.466  0.00  0.00    -0.046 A 
ATOM     25  C   UNL     1       1.340   0.163   4.730  0.00  0.00    +0.011 A 
ATOM     26  C   UNL     1       0.208   0.942   4.876  0.00  0.00    -0.000 A 
ATOM     27  C   UNL     1      -0.463   1.406   3.754  0.00  0.00    +0.124 A 
ATOM     28  C   UNL     1       0.000   1.080   2.488  0.00  0.00    -0.000 A 
ATOM     29  C   UNL     1       1.133   0.302   2.347  0.00  0.00    +0.011 A 
BRANCH  28  30
ATOM     30  C   UNL     1      -0.729   1.579   1.267  0.00  0.00    -0.009 C 
ATOM     31  C   UNL     1      -0.013   1.086   0.008  0.00  0.00    +0.015 C 
ATOM     32  C   UNL     1      -0.750   3.109   1.275  0.00  0.00    +0.015 C 
ATOM     33  C   UNL     1      -2.164   1.050   1.278  0.00  0.00    +0.015 C 
ENDBRANCH  28  30
BRANCH  26  34
ATOM     34  C   UNL     1      -0.295   1.290   6.253  0.00  0.00    -0.009 C 
ATOM     35  C   UNL     1       0.622   0.662   7.305  0.00  0.00    +0.015 C 
ATOM     36  C   UNL     1      -0.301   2.810   6.425  0.00  0.00    +0.015 C 
ATOM     37  C   UNL     1      -1.716   0.751   6.429  0.00  0.00    +0.015 C 
ENDBRANCH  26  34
BRANCH  27  38
ATOM     38  O   UNL     1      -1.573   2.176   3.896  0.00  0.00    -0.506 OA
ATOM     39  H   UNL     1      -2.398   1.673   3.940  0.00  0.00    +0.292 HD
ENDBRANCH  27  38
ENDBRANCH  23  24
ENDBRANCH  22  23
ENDBRANCH   2  22
TORSDOF 9
