REMARK  Name = ZINC67397901
REMARK  7 active torsions:
REMARK  status: ('A' for Active; 'I' for Inactive)
REMARK    1  A    between atoms: C_1  and  C_2
REMARK    2  A    between atoms: N_7  and  C_9
REMARK    3  A    between atoms: C_9  and  C_10
REMARK    4  A    between atoms: C_10  and  C_12
REMARK    5  A    between atoms: C_10  and  N_13
REMARK    6  A    between atoms: C_14  and  C_16
REMARK    7  A    between atoms: N_18  and  C_19
REMARK                            x       y       z     vdW  Elec       q    Type
REMARK                         _______ _______ _______ _____ _____    ______ ____
ROOT
ATOM      1  N   UNL     1       0.191  -4.479   2.163  0.00  0.00    -0.307 N 
ATOM      2  C   UNL     1      -0.005  -5.751   1.762  0.00  0.00    +0.299 C 
ATOM      3  O   UNL     1       0.946  -6.470   1.537  0.00  0.00    -0.265 OA
ATOM      4  H   UNL     1      -0.569  -3.905   2.343  0.00  0.00    +0.149 HD
ENDROOT
BRANCH   2   5
ATOM      5  C   UNL     1      -1.393  -6.276   1.597  0.00  0.00    +0.303 C 
ATOM      6  O   UNL     1      -2.345  -5.557   1.822  0.00  0.00    -0.265 OA
ATOM      7  N   UNL     1      -1.590  -7.548   1.197  0.00  0.00    -0.275 N 
ATOM      8  H   UNL     1      -0.833  -8.099   0.944  0.00  0.00    +0.155 HD
BRANCH   7   9
ATOM      9  C   UNL     1      -2.885  -8.073   1.146  0.00  0.00    +0.071 A 
ATOM     10  C   UNL     1      -3.956  -7.252   0.821  0.00  0.00    +0.046 A 
ATOM     11  C   UNL     1      -5.235  -7.774   0.771  0.00  0.00    +0.043 A 
ATOM     12  C   UNL     1      -5.449  -9.114   1.045  0.00  0.00    +0.023 A 
ATOM     13  C   UNL     1      -4.385  -9.935   1.369  0.00  0.00    +0.041 A 
ATOM     14  C   UNL     1      -3.102  -9.420   1.415  0.00  0.00    +0.145 A 
ATOM     15  F   UNL     1      -2.061 -10.224   1.727  0.00  0.00    -0.204 F 
ATOM     16 CL   UNL     1      -6.575  -6.748   0.365  0.00  0.00    -0.083 Cl
ENDBRANCH   7   9
ENDBRANCH   2   5
BRANCH   1  17
ATOM     17  C   UNL     1       1.553  -3.964   2.325  0.00  0.00    +0.054 C 
ATOM     18  C   UNL     1       2.104  -4.400   3.684  0.00  0.00    +0.026 C 
BRANCH  17  19
ATOM     19  C   UNL     1       1.533  -2.436   2.249  0.00  0.00    -0.057 C 
BRANCH  19  25
ATOM     20  C   UNL     1       1.963  -2.516  -2.627  0.00  0.00    +0.005 C 
ATOM     21  C   UNL     1       1.078  -2.077  -1.459  0.00  0.00    -0.031 C 
ATOM     22  C   UNL     1       0.866  -0.561  -1.519  0.00  0.00    -0.001 C 
ATOM     23  C   UNL     1       0.045  -0.122  -0.303  0.00  0.00    -0.018 C 
ATOM     24  C   UNL     1       0.764  -0.557   0.976  0.00  0.00    -0.079 C 
ATOM     25  N   UNL     1       0.913  -2.017   0.985  0.00  0.00    +0.381 N 
ATOM     26  C   UNL     1       1.758  -2.440  -0.137  0.00  0.00    -0.076 C 
ATOM     27  H   UNL     1       0.004  -2.447   0.900  0.00  0.00    -0.082 HD
ENDBRANCH  19  25
ENDBRANCH  17  19
ENDBRANCH   1  17
TORSDOF 5
