REMARK  Name = ZINC63291106
REMARK  8 active torsions:
REMARK  status: ('A' for Active; 'I' for Inactive)
REMARK    1  A    between atoms: C_1  and  C_2
REMARK    2  A    between atoms: C_5  and  C_8
REMARK    3  A    between atoms: C_11  and  C_34
REMARK    4  A    between atoms: C_13  and  C_28
REMARK    5  A    between atoms: C_14  and  C_15
REMARK    6  A    between atoms: N_16  and  C_17
REMARK    7  A    between atoms: C_17  and  C_18
REMARK    8  A    between atoms: C_18  and  C_19
REMARK                            x       y       z     vdW  Elec       q    Type
REMARK                         _______ _______ _______ _____ _____    ______ ____
ROOT
ATOM      1  C   UNL     1       0.198  -4.780  -0.180  0.00  0.00    +0.080 C 
ATOM      2  C   UNL     1       1.336  -4.689   0.798  0.00  0.00    +0.033 C 
ATOM      3  C   UNL     1       1.120  -4.644   2.105  0.00  0.00    +0.133 C 
ATOM      4  O   UNL     1      -0.127  -4.677   2.627  0.00  0.00    -0.455 OA
ATOM      5  C   UNL     1      -1.153  -5.128   1.878  0.00  0.00    +0.141 C 
ATOM      6  C   UNL     1      -1.059  -5.200   0.531  0.00  0.00    +0.024 C 
ENDROOT
BRANCH   1  11
ATOM      7  C   UNL     1      -0.631   0.382  -2.642  0.00  0.00    +0.044 C 
ATOM      8  C   UNL     1      -0.415  -0.964  -2.000  0.00  0.00    -0.050 A 
ATOM      9  C   UNL     1      -0.093  -2.058  -2.780  0.00  0.00    +0.003 A 
ATOM     10  C   UNL     1       0.105  -3.293  -2.192  0.00  0.00    +0.005 A 
ATOM     11  C   UNL     1      -0.018  -3.433  -0.822  0.00  0.00    -0.036 A 
ATOM     12  C   UNL     1      -0.339  -2.339  -0.041  0.00  0.00    +0.005 A 
ATOM     13  C   UNL     1      -0.533  -1.103  -0.629  0.00  0.00    +0.003 A 
ENDBRANCH   1  11
BRANCH   5  14
ATOM     14  C   UNL     1      -2.403  -5.548   2.541  0.00  0.00    +0.018 A 
ATOM     15  C   UNL     1      -2.430  -6.713   3.313  0.00  0.00    +0.011 A 
ATOM     16  C   UNL     1      -3.601  -7.100   3.930  0.00  0.00    +0.001 A 
ATOM     17  C   UNL     1      -4.747  -6.338   3.786  0.00  0.00    +0.000 A 
ATOM     18  C   UNL     1      -4.728  -5.184   3.023  0.00  0.00    +0.001 A 
ATOM     19  C   UNL     1      -3.562  -4.781   2.405  0.00  0.00    +0.011 A 
ENDBRANCH   5  14
BRANCH   3  20
ATOM     20  C   UNL     1       2.279  -4.554   3.022  0.00  0.00    +0.017 A 
ATOM     21  C   UNL     1       3.575  -4.514   2.509  0.00  0.00    +0.011 A 
ATOM     22  C   UNL     1       4.652  -4.431   3.368  0.00  0.00    +0.001 A 
ATOM     23  C   UNL     1       4.447  -4.388   4.736  0.00  0.00    +0.000 A 
ATOM     24  C   UNL     1       3.164  -4.428   5.250  0.00  0.00    +0.001 A 
ATOM     25  C   UNL     1       2.079  -4.505   4.401  0.00  0.00    +0.011 A 
ENDBRANCH   3  20
BRANCH   6  26
ATOM     26  C   UNL     1      -2.158  -5.678  -0.216  0.00  0.00    +0.113 C 
ATOM     27  N   UNL     1      -3.202  -6.158   0.395  0.00  0.00    -0.291 NA
BRANCH  27  28
ATOM     28  C   UNL     1      -4.293  -6.755  -0.378  0.00  0.00    +0.146 C 
BRANCH  28  29
ATOM     29  C   UNL     1      -4.416  -8.239  -0.026  0.00  0.00    +0.056 C 
BRANCH  29  30
ATOM     30  C   UNL     1      -5.455  -8.881  -0.909  0.00  0.00    -0.040 C 
ATOM     31  C   UNL     1      -5.240  -9.549  -2.065  0.00  0.00    -0.001 A 
ATOM     32  C   UNL     1      -4.021  -9.866  -2.818  0.00  0.00    +0.010 A 
ATOM     33  C   UNL     1      -4.125 -10.566  -3.970  0.00  0.00    +0.001 A 
ATOM     34  C   UNL     1      -5.365 -10.996  -4.462  0.00  0.00    +0.002 A 
ATOM     35  C   UNL     1      -6.529 -10.743  -3.826  0.00  0.00    +0.026 A 
ATOM     36  C   UNL     1      -6.537 -10.015  -2.605  0.00  0.00    +0.043 A 
ATOM     37  N   UNL     1      -7.516  -9.648  -1.814  0.00  0.00    -0.380 N 
ATOM     38  C   UNL     1      -6.949  -8.913  -0.677  0.00  0.00    +0.144 C 
ATOM     39  H   UNL     1      -8.458  -9.835  -1.954  0.00  0.00    +0.160 HD
ENDBRANCH  29  30
ENDBRANCH  28  29
ENDBRANCH  27  28
ENDBRANCH   6  26
TORSDOF 7
