REMARK  Name = ZINC02984071
REMARK  10 active torsions:
REMARK  status: ('A' for Active; 'I' for Inactive)
REMARK    1  A    between atoms: C_1  and  C_2
REMARK    2  A    between atoms: C_2  and  C_3
REMARK    3  A    between atoms: C_3  and  O_4
REMARK    4  A    between atoms: O_4  and  C_5
REMARK    5  A    between atoms: C_9  and  C_11
REMARK    6  A    between atoms: N_13  and  C_14
REMARK    7  A    between atoms: C_14  and  N_16
REMARK    8  A    between atoms: N_16  and  C_17
REMARK    9  A    between atoms: N_24  and  C_26
REMARK   10  A    between atoms: C_29  and  C_32
REMARK                            x       y       z     vdW  Elec       q    Type
REMARK                         _______ _______ _______ _____ _____    ______ ____
ROOT
ATOM      1  N   UNL     1       2.241   8.046   0.024  0.00  0.00    -0.297 N 
ATOM      2  H   UNL     1       3.059   7.585   0.267  0.00  0.00    +0.154 HD
ENDROOT
BRANCH   1   3
ATOM      3  C   UNL     1       2.228   9.442  -0.074  0.00  0.00    +0.035 A 
ATOM      4  C   UNL     1       2.887  10.202   0.901  0.00  0.00    +0.025 A 
ATOM      5  C   UNL     1       2.906  11.559   0.854  0.00  0.00    +0.033 A 
ATOM      6  C   UNL     1       2.250  12.226  -0.195  0.00  0.00    +0.113 A 
ATOM      7  C   UNL     1       1.557  11.431  -1.220  0.00  0.00    +0.115 A 
ATOM      8  C   UNL     1       1.578  10.030  -1.120  0.00  0.00    +0.055 A 
ATOM      9  N   UNL     1       1.049  12.325  -2.054  0.00  0.00    -0.147 NA
ATOM     10  N   UNL     1       1.359  13.504  -1.640  0.00  0.00    -0.149 N 
ATOM     11  N   UNL     1       2.059  13.485  -0.559  0.00  0.00    -0.147 NA
BRANCH  10  12
ATOM     12  C   UNL     1       0.977  14.681  -2.295  0.00  0.00    +0.086 A 
ATOM     13  C   UNL     1       0.225  14.617  -3.461  0.00  0.00    +0.030 A 
ATOM     14  C   UNL     1      -0.155  15.780  -4.101  0.00  0.00    +0.005 A 
ATOM     15  C   UNL     1       0.221  17.008  -3.588  0.00  0.00    -0.050 A 
ATOM     16  C   UNL     1       0.974  17.076  -2.431  0.00  0.00    +0.005 A 
ATOM     17  C   UNL     1       1.353  15.916  -1.783  0.00  0.00    +0.030 A 
ATOM     18  C   UNL     1      -0.191  18.275  -4.293  0.00  0.00    +0.044 C 
ENDBRANCH  10  12
ENDBRANCH   1   3
BRANCH   1  19
ATOM     19  C   UNL     1       1.118   7.343  -0.220  0.00  0.00    +0.141 C 
ATOM     20  S   UNL     1      -0.358   8.160  -0.510  0.00  0.00    -0.018 S 
BRANCH  19  23
ATOM     21  C   UNL     1       0.033   5.292  -0.479  0.00  0.00    +0.250 C 
ATOM     22  O   UNL     1      -1.015   5.873  -0.685  0.00  0.00    -0.270 OA
ATOM     23  N   UNL     1       1.156   5.996  -0.235  0.00  0.00    -0.264 N 
ATOM     24  H   UNL     1       1.993   5.532  -0.071  0.00  0.00    +0.157 HD
BRANCH  21  29
ATOM     25  C   UNL     1      -1.039   1.701  -0.766  0.00  0.00    +0.121 A 
ATOM     26  C   UNL     1       0.161   1.044  -0.525  0.00  0.00    +0.046 A 
ATOM     27  C   UNL     1       1.312   1.766  -0.276  0.00  0.00    +0.004 A 
ATOM     28  C   UNL     1       1.277   3.146  -0.260  0.00  0.00    +0.013 A 
ATOM     29  C   UNL     1       0.075   3.815  -0.496  0.00  0.00    +0.041 A 
ATOM     30  C   UNL     1      -1.087   3.084  -0.747  0.00  0.00    +0.058 A 
BRANCH  25  31
ATOM     31  O   UNL     1      -2.167   0.985  -1.016  0.00  0.00    -0.492 OA
BRANCH  31  32
ATOM     32  C   UNL     1      -2.046  -0.439  -1.016  0.00  0.00    +0.229 C 
BRANCH  32  34
ATOM     33  C   UNL     1      -3.278  -2.591  -1.313  0.00  0.00    +0.007 C 
ATOM     34  C   UNL     1      -3.408  -1.067  -1.314  0.00  0.00    +0.038 C 
ENDBRANCH  32  34
ENDBRANCH  31  32
ENDBRANCH  25  31
ENDBRANCH  21  29
ENDBRANCH  19  23
ENDBRANCH   1  19
TORSDOF 8
