REMARK  Name = ZINC59100780
REMARK  10 active torsions:
REMARK  status: ('A' for Active; 'I' for Inactive)
REMARK    1  A    between atoms: C_1  and  C_2
REMARK    2  A    between atoms: C_2  and  C_29
REMARK    3  A    between atoms: C_4  and  N_10
REMARK    4  A    between atoms: C_6  and  C_8
REMARK    5  A    between atoms: C_6  and  C_9
REMARK    6  A    between atoms: N_10  and  C_11
REMARK    7  A    between atoms: N_10  and  C_18
REMARK    8  A    between atoms: C_11  and  C_12
REMARK    9  A    between atoms: C_18  and  N_20
REMARK   10  A    between atoms: N_20  and  C_21
REMARK                            x       y       z     vdW  Elec       q    Type
REMARK                         _______ _______ _______ _____ _____    ______ ____
ROOT
ATOM      1  N   UNL     1      -2.863  -2.429   0.169  0.00  0.00    -0.305 N 
ENDROOT
BRANCH   1   5
ATOM      2  C   UNL     1       1.815  -3.918   0.217  0.00  0.00    -0.010 C 
ATOM      3  C   UNL     1       0.925  -2.654   0.209  0.00  0.00    -0.072 C 
ATOM      4  C   UNL     1      -0.523  -3.116   0.334  0.00  0.00    +0.009 C 
ATOM      5  C   UNL     1      -1.478  -1.950   0.074  0.00  0.00    +0.073 C 
ATOM      6  C   UNL     1      -1.221  -1.429  -1.340  0.00  0.00    +0.009 C 
ATOM      7  C   UNL     1       0.222  -0.954  -1.476  0.00  0.00    -0.072 C 
ATOM      8  N   UNL     1       1.194  -1.931  -1.022  0.00  0.00    +0.386 N 
ATOM      9  C   UNL     1       0.397   0.385  -0.752  0.00  0.00    -0.010 C 
ATOM     10  C   UNL     1       0.482  -0.694  -2.978  0.00  0.00    -0.010 C 
ATOM     11  C   UNL     1       1.312  -1.825   1.438  0.00  0.00    -0.010 C 
ATOM     12  H   UNL     1       2.101  -1.462  -0.927  0.00  0.00    -0.084 HD
ATOM     13  H   UNL     1       1.334  -2.617  -1.771  0.00  0.00    -0.084 HD
ENDBRANCH   1   5
BRANCH   1  14
ATOM     14  C   UNL     1      -3.660  -1.993   1.165  0.00  0.00    +0.138 C 
ATOM     15  S   UNL     1      -5.243  -2.623   1.332  0.00  0.00    -0.018 S 
BRANCH  14  16
ATOM     16  N   UNL     1      -3.211  -1.061   2.029  0.00  0.00    -0.294 N 
ATOM     17  H   UNL     1      -2.898  -1.325   2.908  0.00  0.00    +0.154 HD
BRANCH  16  18
ATOM     18  C   UNL     1      -3.196   0.290   1.656  0.00  0.00    +0.068 A 
ATOM     19  C   UNL     1      -3.748   0.683   0.445  0.00  0.00    +0.029 A 
ATOM     20  C   UNL     1      -3.733   2.016   0.080  0.00  0.00    +0.040 A 
ATOM     21  C   UNL     1      -3.168   2.959   0.921  0.00  0.00    +0.126 A 
ATOM     22  C   UNL     1      -2.616   2.571   2.130  0.00  0.00    +0.078 A 
ATOM     23  C   UNL     1      -2.634   1.239   2.502  0.00  0.00    +0.147 A 
ATOM     24  F   UNL     1      -2.100   0.860   3.684  0.00  0.00    -0.203 F 
ATOM     25  F   UNL     1      -3.154   4.261   0.561  0.00  0.00    -0.205 F 
ENDBRANCH  16  18
ENDBRANCH  14  16
ENDBRANCH   1  14
BRANCH   1  26
ATOM     26  C   UNL     1      -3.378  -3.381  -0.818  0.00  0.00    +0.142 C 
BRANCH  26  27
ATOM     27  C   UNL     1      -3.183  -4.786  -0.311  0.00  0.00    -0.030 A 
ATOM     28  C   UNL     1      -2.085  -5.521  -0.717  0.00  0.00    +0.005 A 
ATOM     29  C   UNL     1      -1.906  -6.810  -0.252  0.00  0.00    +0.000 A 
ATOM     30  C   UNL     1      -2.824  -7.365   0.620  0.00  0.00    +0.000 A 
ATOM     31  C   UNL     1      -3.922  -6.629   1.026  0.00  0.00    +0.000 A 
ATOM     32  C   UNL     1      -4.099  -5.339   0.565  0.00  0.00    +0.005 A 
ENDBRANCH  26  27
ENDBRANCH   1  26
TORSDOF 6
