REMARK  Name = ZINC35872003
REMARK  5 active torsions:
REMARK  status: ('A' for Active; 'I' for Inactive)
REMARK    1  A    between atoms: C_5  and  C_7
REMARK    2  A    between atoms: C_7  and  N_8
REMARK    3  A    between atoms: C_9  and  C_11
REMARK    4  A    between atoms: C_16  and  C_33
REMARK    5  A    between atoms: N_24  and  C_27
REMARK                            x       y       z     vdW  Elec       q    Type
REMARK                         _______ _______ _______ _____ _____    ______ ____
ROOT
ATOM      1  C   UNL     1       1.817  -4.512   2.961  0.00  0.00    +0.098 C 
ATOM      2  C   UNL     1       0.749  -3.965   3.883  0.00  0.00    +0.051 C 
ATOM      3  C   UNL     1      -0.553  -4.699   3.737  0.00  0.00    -0.025 A 
ATOM      4  C   UNL     1      -1.744  -4.041   3.983  0.00  0.00    +0.017 A 
ATOM      5  C   UNL     1      -2.947  -4.709   3.854  0.00  0.00    +0.055 A 
ATOM      6  C   UNL     1      -2.964  -6.040   3.478  0.00  0.00    +0.014 A 
ATOM      7  C   UNL     1      -1.779  -6.702   3.230  0.00  0.00    +0.024 A 
ATOM      8  C   UNL     1      -0.567  -6.032   3.357  0.00  0.00    +0.033 A 
ATOM      9  N   UNL     1       0.624  -6.698   3.096  0.00  0.00    -0.329 N 
ATOM     10  C   UNL     1       1.893  -6.013   2.916  0.00  0.00    +0.069 C 
ATOM     11  C   UNL     1       2.902  -6.574   3.918  0.00  0.00    -0.055 C 
ATOM     12  N   UNL     1       2.980  -8.033   3.752  0.00  0.00    +0.384 N 
ATOM     13  C   UNL     1       1.684  -8.654   4.050  0.00  0.00    -0.059 C 
ATOM     14  C   UNL     1       0.641  -8.174   3.039  0.00  0.00    +0.087 C 
ATOM     15  H   UNL     1       3.240  -8.246   2.801  0.00  0.00    -0.081 HD
ENDROOT
BRANCH  12  16
ATOM     16  C   UNL     1       3.997  -8.571   4.665  0.00  0.00    -0.068 C 
ATOM     17  C   UNL     1       5.355  -7.946   4.341  0.00  0.00    -0.015 C 
ATOM     18  C   UNL     1       6.414  -8.507   5.292  0.00  0.00    -0.002 C 
ATOM     19  C   UNL     1       6.499 -10.025   5.123  0.00  0.00    -0.000 C 
ATOM     20  C   UNL     1       5.140 -10.650   5.447  0.00  0.00    -0.002 C 
ATOM     21  C   UNL     1       4.081 -10.090   4.496  0.00  0.00    -0.015 C 
ENDBRANCH  12  16
BRANCH   1  23
ATOM     22  N   UNL     1       1.488  -2.679   1.333  0.00  0.00    -0.311 N 
ATOM     23  C   UNL     1       1.550  -4.005   1.567  0.00  0.00    +0.218 C 
ATOM     24  O   UNL     1       1.392  -4.790   0.656  0.00  0.00    -0.275 OA
ATOM     25  H   UNL     1       1.614  -2.051   2.062  0.00  0.00    +0.149 HD
BRANCH  22  26
ATOM     26  C   UNL     1       1.228  -2.186  -0.022  0.00  0.00    +0.142 C 
BRANCH  26  31
ATOM     27  C   UNL     1      -0.017   1.378   0.010  0.00  0.00    +0.000 A 
ATOM     28  C   UNL     1       1.171   2.087   0.002  0.00  0.00    +0.003 A 
ATOM     29  C   UNL     1       2.377   1.414  -0.013  0.00  0.00    +0.038 A 
ATOM     30  C   UNL     1       2.397   0.029  -0.021  0.00  0.00    +0.128 A 
ATOM     31  C   UNL     1       1.208  -0.679  -0.013  0.00  0.00    +0.005 A 
ATOM     32  C   UNL     1       0.002  -0.004   0.002  0.00  0.00    +0.008 A 
ATOM     33  F   UNL     1       3.577  -0.630  -0.036  0.00  0.00    -0.205 F 
ENDBRANCH  26  31
ENDBRANCH  22  26
ENDBRANCH   1  23
BRANCH   5  34
ATOM     34  C   UNL     1      -4.242  -3.986   4.123  0.00  0.00    +0.417 C 
ATOM     35  F   UNL     1      -4.705  -3.404   2.938  0.00  0.00    -0.166 F 
ATOM     36  F   UNL     1      -5.193  -4.895   4.599  0.00  0.00    -0.166 F 
ATOM     37  F   UNL     1      -4.029  -2.989   5.081  0.00  0.00    -0.166 F 
ENDBRANCH   5  34
TORSDOF 5
