REMARK  Name = ZINC05697372
REMARK  4 active torsions:
REMARK  status: ('A' for Active; 'I' for Inactive)
REMARK    1  A    between atoms: C_1  and  C_2
REMARK    2  A    between atoms: C_3  and  C_19
REMARK    3  A    between atoms: N_9  and  N_12
REMARK    4  A    between atoms: C_13  and  C_14
REMARK                            x       y       z     vdW  Elec       q    Type
REMARK                         _______ _______ _______ _____ _____    ______ ____
ROOT
ATOM      1  C   UNL     1       0.875   6.217   0.050  0.00  0.00    +0.045 C 
ATOM      2  C   UNL     1      -0.285   5.255   0.047  0.00  0.00    -0.026 A 
ATOM      3  C   UNL     1      -1.547   5.713   0.060  0.00  0.00    -0.008 A 
ATOM      4  S   UNL     1      -2.527   4.223   0.052  0.00  0.00    -0.073 S 
ATOM      5  C   UNL     1      -1.214   3.031   0.031  0.00  0.00    +0.116 A 
ATOM      6  C   UNL     1      -0.051   3.823   0.031  0.00  0.00    +0.077 A 
ATOM      7  C   UNL     1       1.188   3.105   0.015  0.00  0.00    +0.283 A 
ATOM      8  O   UNL     1       2.250   3.704   0.014  0.00  0.00    -0.265 OA
ATOM      9  N   UNL     1       1.162   1.760   0.001  0.00  0.00    -0.185 N 
ATOM     10  C   UNL     1      -0.013   1.076   0.002  0.00  0.00    +0.227 A 
ATOM     11  N   UNL     1      -1.159   1.703   0.012  0.00  0.00    -0.228 NA
ATOM     12  C   UNL     1      -2.022   7.143   0.078  0.00  0.00    +0.052 C 
ENDROOT
BRANCH   9  13
ATOM     13  N   UNL     1       2.369   1.050  -0.014  0.00  0.00    -0.170 NA
ATOM     14  C   UNL     1       2.362  -0.249   0.078  0.00  0.00    +0.148 C 
BRANCH  14  15
ATOM     15  C   UNL     1       3.626  -0.984   0.174  0.00  0.00    +0.032 A 
ATOM     16  C   UNL     1       3.837  -2.349   0.278  0.00  0.00    +0.017 A 
ATOM     17  C   UNL     1       5.131  -2.805   0.355  0.00  0.00    +0.008 A 
ATOM     18  C   UNL     1       6.155  -1.911   0.326  0.00  0.00    +0.046 A 
ATOM     19  S   UNL     1       5.297  -0.353   0.178  0.00  0.00    -0.096 S 
ENDBRANCH  14  15
ENDBRANCH   9  13
TORSDOF 2
