REMARK  Name = ZINC64040442
REMARK  7 active torsions:
REMARK  status: ('A' for Active; 'I' for Inactive)
REMARK    1  A    between atoms: C_1  and  C_2
REMARK    2  A    between atoms: C_4  and  C_9
REMARK    3  A    between atoms: C_5  and  C_8
REMARK    4  A    between atoms: C_9  and  C_10
REMARK    5  A    between atoms: C_10  and  N_11
REMARK    6  A    between atoms: N_11  and  C_12
REMARK    7  A    between atoms: N_11  and  C_13
REMARK                            x       y       z     vdW  Elec       q    Type
REMARK                         _______ _______ _______ _____ _____    ______ ____
ROOT
ATOM      1  C   UNL     1      -5.097   2.164  -1.379  0.00  0.00    +0.188 C 
ATOM      2  C   UNL     1      -6.411   2.284  -2.088  0.00  0.00    +0.105 C 
ATOM      3  N   UNL     1      -6.885   3.365  -2.617  0.00  0.00    -0.355 N 
ATOM      4  C   UNL     1      -6.094   4.574  -2.567  0.00  0.00    +0.209 C 
ATOM      5  C   UNL     1      -5.277   4.525  -1.244  0.00  0.00    +0.190 C 
ATOM      6  N   UNL     1      -4.334   3.429  -1.393  0.00  0.00    -0.275 NA
ATOM      7  N   UNL     1      -4.751   5.885  -1.156  0.00  0.00    -0.161 NA
ATOM      8  O   UNL     1      -5.748   6.741  -1.840  0.00  0.00    -0.208 OA
ATOM      9  N   UNL     1      -6.795   5.855  -2.427  0.00  0.00    -0.156 NA
ATOM     10  N   UNL     1      -7.177   1.151  -2.185  0.00  0.00    -0.318 N 
ATOM     11  C   UNL     1      -6.779  -0.082  -1.492  0.00  0.00    +0.106 C 
ATOM     12  C   UNL     1      -7.952  -0.563  -0.632  0.00  0.00    +0.019 C 
ATOM     13  C   UNL     1      -9.198  -0.708  -1.508  0.00  0.00    +0.003 C 
ATOM     14  C   UNL     1      -9.564   0.652  -2.106  0.00  0.00    +0.019 C 
ATOM     15  C   UNL     1      -8.413   1.149  -2.979  0.00  0.00    +0.106 C 
ATOM     16  H   UNL     1      -3.645   3.444  -0.656  0.00  0.00    +0.125 HD
ATOM     17  H   UNL     1      -3.849   5.954  -1.602  0.00  0.00    +0.158 HD
ATOM     18  H   UNL     1      -7.109   6.196  -3.324  0.00  0.00    +0.158 HD
ATOM     19  H   UNL     1      -7.757   3.364  -3.041  0.00  0.00    +0.162 HD
ENDROOT
BRANCH   1  20
ATOM     20  N   UNL     1      -4.297   1.119  -2.033  0.00  0.00    -0.284 NA
ATOM     21  C   UNL     1      -4.003   1.477  -3.427  0.00  0.00    +0.106 C 
BRANCH  20  22
ATOM     22  C   UNL     1      -3.061   0.857  -1.284  0.00  0.00    +0.090 C 
BRANCH  22  23
ATOM     23  C   UNL     1      -2.381  -0.394  -1.844  0.00  0.00    +0.050 C 
BRANCH  23  26
ATOM     24  C   UNL     1       0.239   1.449  -1.130  0.00  0.00    +0.039 C 
ATOM     25  C   UNL     1       0.266  -0.070  -1.309  0.00  0.00    +0.153 C 
ATOM     26  C   UNL     1      -1.113  -0.663  -1.076  0.00  0.00    -0.020 C 
ATOM     27  C   UNL     1      -0.940  -1.477  -0.033  0.00  0.00    +0.061 C 
ATOM     28  N   UNL     1       0.344  -1.453   0.388  0.00  0.00    -0.159 NA
ATOM     29  N   UNL     1       1.084  -0.704  -0.261  0.00  0.00    -0.180 NA
ATOM     30  C   UNL     1      -2.030  -2.310   0.592  0.00  0.00    +0.067 C 
ENDBRANCH  23  26
ENDBRANCH  22  23
ENDBRANCH  20  22
ENDBRANCH   1  20
TORSDOF 4
