REMARK  Name = ZINC59886117
REMARK  15 active torsions:
REMARK  status: ('A' for Active; 'I' for Inactive)
REMARK    1  A    between atoms: C_1  and  C_2
REMARK    2  A    between atoms: C_5  and  S_8
REMARK    3  A    between atoms: S_8  and  N_11
REMARK    4  A    between atoms: N_11  and  C_12
REMARK    5  A    between atoms: C_12  and  C_14
REMARK    6  A    between atoms: C_12  and  C_18
REMARK    7  A    between atoms: C_14  and  C_15
REMARK    8  A    between atoms: C_15  and  C_16
REMARK    9  A    between atoms: C_15  and  C_17
REMARK   10  A    between atoms: N_20  and  C_21
REMARK   11  A    between atoms: C_21  and  C_22
REMARK   12  A    between atoms: C_22  and  C_24
REMARK   13  A    between atoms: C_22  and  N_31
REMARK   14  A    between atoms: N_31  and  C_32
REMARK   15  A    between atoms: N_31  and  C_33
REMARK                            x       y       z     vdW  Elec       q    Type
REMARK                         _______ _______ _______ _____ _____    ______ ____
ROOT
ATOM      1  C   UNL     1       2.365  -5.167   1.109  0.00  0.00    +0.162 C 
ENDROOT
BRANCH   1   2
ATOM      2  C   UNL     1       3.674  -5.908   1.204  0.00  0.00    +0.232 C 
ATOM      3  O   UNL     1       3.891  -6.851   0.473  0.00  0.00    -0.274 OA
ATOM      4  N   UNL     1       4.603  -5.522   2.101  0.00  0.00    -0.315 N 
ATOM      5  H   UNL     1       4.429  -4.768   2.685  0.00  0.00    +0.149 HD
BRANCH   4   6
ATOM      6  C   UNL     1       5.875  -6.242   2.192  0.00  0.00    +0.093 C 
BRANCH   6   7
ATOM      7  C   UNL     1       6.694  -5.684   3.358  0.00  0.00    -0.021 C 
BRANCH   7   8
ATOM      8  C   UNL     1       7.026  -4.238   3.093  0.00  0.00    -0.059 A 
ATOM      9  C   UNL     1       8.067  -3.913   2.244  0.00  0.00    +0.005 A 
ATOM     10  C   UNL     1       8.372  -2.588   1.999  0.00  0.00    +0.038 A 
ATOM     11  C   UNL     1       7.634  -1.585   2.605  0.00  0.00    +0.123 A 
ATOM     12  C   UNL     1       6.591  -1.912   3.455  0.00  0.00    +0.038 A 
ATOM     13  C   UNL     1       6.285  -3.238   3.694  0.00  0.00    +0.005 A 
ATOM     14  F   UNL     1       7.931  -0.289   2.367  0.00  0.00    -0.205 F 
ENDBRANCH   7   8
BRANCH   7  15
ATOM     15  N   UNL     1       7.937  -6.454   3.497  0.00  0.00    +0.382 N 
ATOM     16  C   UNL     1       8.680  -5.978   4.671  0.00  0.00    -0.096 C 
ATOM     17  C   UNL     1       7.616  -7.878   3.664  0.00  0.00    -0.096 C 
ATOM     18  H   UNL     1       8.502  -6.333   2.669  0.00  0.00    -0.082 HD
ENDBRANCH   7  15
ENDBRANCH   6   7
ENDBRANCH   4   6
ENDBRANCH   1   2
BRANCH   1  19
ATOM     19  N   UNL     1       1.533  -5.775   0.068  0.00  0.00    -0.178 NA
ATOM     20  H   UNL     1       1.629  -5.493  -0.855  0.00  0.00    +0.149 HD
BRANCH  19  21
ATOM     21  S   UNL     1       0.431  -6.945   0.467  0.00  0.00    +0.059 S 
ATOM     22  O   UNL     1       1.117  -7.892   1.274  0.00  0.00    -0.153 OA
ATOM     23  O   UNL     1      -0.230  -7.308  -0.738  0.00  0.00    -0.153 OA
BRANCH  21  28
ATOM     24  C   UNL     1      -3.721  -4.358   3.998  0.00  0.00    +0.044 C 
ATOM     25  C   UNL     1      -2.684  -5.004   3.116  0.00  0.00    -0.050 A 
ATOM     26  C   UNL     1      -2.819  -4.956   1.741  0.00  0.00    +0.005 A 
ATOM     27  C   UNL     1      -1.868  -5.549   0.932  0.00  0.00    +0.029 A 
ATOM     28  C   UNL     1      -0.781  -6.189   1.498  0.00  0.00    +0.105 A 
ATOM     29  C   UNL     1      -0.646  -6.236   2.873  0.00  0.00    +0.029 A 
ATOM     30  C   UNL     1      -1.595  -5.640   3.682  0.00  0.00    +0.005 A 
ENDBRANCH  21  28
ENDBRANCH  19  21
ENDBRANCH   1  19
BRANCH   1  31
ATOM     31  C   UNL     1       2.632  -3.702   0.758  0.00  0.00    +0.032 C 
BRANCH  31  32
ATOM     32  C   UNL     1       1.321  -2.916   0.816  0.00  0.00    -0.015 C 
ATOM     33  C   UNL     1       1.611  -1.426   0.629  0.00  0.00    +0.007 C 
ATOM     34  C   UNL     1       0.387  -3.398  -0.296  0.00  0.00    +0.007 C 
ENDBRANCH  31  32
ENDBRANCH   1  31
TORSDOF 10
