REMARK  Name = ZINC63502478
REMARK  13 active torsions:
REMARK  status: ('A' for Active; 'I' for Inactive)
REMARK    1  A    between atoms: C_1  and  C_2
REMARK    2  A    between atoms: C_2  and  C_3
REMARK    3  A    between atoms: C_3  and  N_4
REMARK    4  A    between atoms: N_4  and  C_5
REMARK    5  A    between atoms: N_4  and  C_8
REMARK    6  A    between atoms: C_5  and  C_6
REMARK    7  A    between atoms: C_6  and  C_7
REMARK    8  A    between atoms: C_8  and  C_9
REMARK    9  A    between atoms: C_9  and  N_10
REMARK   10  A    between atoms: C_11  and  C_13
REMARK   11  A    between atoms: C_18  and  C_25
REMARK   12  A    between atoms: C_30  and  N_31
REMARK   13  A    between atoms: C_32  and  C_34
REMARK                            x       y       z     vdW  Elec       q    Type
REMARK                         _______ _______ _______ _____ _____    ______ ____
ROOT
ATOM      1  C   UNL     1       3.171  -5.661   7.103  0.00  0.00    +0.039 A 
ATOM      2  C   UNL     1       3.591  -4.651   8.068  0.00  0.00    +0.015 A 
ATOM      3  C   UNL     1       4.157  -5.003   9.241  0.00  0.00    +0.028 A 
ATOM      4  C   UNL     1       4.352  -6.428   9.551  0.00  0.00    +0.058 A 
ATOM      5  N   UNL     1       4.897  -6.782  10.682  0.00  0.00    -0.369 N 
ATOM      6  C   UNL     1       5.077  -8.215  10.958  0.00  0.00    +0.198 C 
ATOM      7  C   UNL     1       4.616  -9.200   9.909  0.00  0.00    +0.244 C 
ATOM      8  O   UNL     1       4.741 -10.395  10.088  0.00  0.00    -0.273 OA
ATOM      9  N   UNL     1       4.068  -8.737   8.781  0.00  0.00    -0.282 N 
ATOM     10  C   UNL     1       3.919  -7.443   8.560  0.00  0.00    +0.057 A 
ATOM     11  C   UNL     1       3.327  -7.003   7.351  0.00  0.00    +0.038 A 
ATOM     12  H   UNL     1       5.179  -6.114  11.326  0.00  0.00    +0.161 HD
ATOM     13  H   UNL     1       3.772  -9.368   8.107  0.00  0.00    +0.155 HD
ENDROOT
BRANCH   6  14
ATOM     14  C   UNL     1       4.346  -8.531  12.238  0.00  0.00    +0.005 A 
ATOM     15  C   UNL     1       3.282  -7.747  12.638  0.00  0.00    +0.008 A 
ATOM     16  C   UNL     1       2.611  -8.037  13.812  0.00  0.00    +0.000 A 
ATOM     17  C   UNL     1       3.002  -9.112  14.588  0.00  0.00    +0.002 A 
ATOM     18  C   UNL     1       4.065  -9.900  14.193  0.00  0.00    +0.023 A 
ATOM     19  C   UNL     1       4.739  -9.615  13.012  0.00  0.00    +0.039 A 
BRANCH  19  20
ATOM     20  N   UNL     1       5.813 -10.414  12.607  0.00  0.00    -0.285 N 
ATOM     21  C   UNL     1       5.813 -11.733  12.883  0.00  0.00    +0.214 C 
ATOM     22  O   UNL     1       4.845 -12.244  13.405  0.00  0.00    -0.276 OA
ATOM     23  C   UNL     1       7.016 -12.574  12.543  0.00  0.00    +0.109 C 
ATOM     24  H   UNL     1       6.557 -10.019  12.127  0.00  0.00    +0.155 HD
ENDBRANCH  19  20
ENDBRANCH   6  14
BRANCH   1  26
ATOM     25  N   UNL     1       2.392  -3.916   5.567  0.00  0.00    -0.313 N 
ATOM     26  C   UNL     1       2.554  -5.229   5.827  0.00  0.00    +0.244 C 
ATOM     27  O   UNL     1       2.194  -6.058   5.015  0.00  0.00    -0.270 OA
ATOM     28  H   UNL     1       2.680  -3.254   6.215  0.00  0.00    +0.149 HD
BRANCH  25  29
ATOM     29  C   UNL     1       1.782  -3.489   4.306  0.00  0.00    +0.086 C 
BRANCH  29  30
ATOM     30  C   UNL     1       1.717  -1.961   4.262  0.00  0.00    -0.060 C 
BRANCH  30  31
ATOM     31  N   UNL     1       1.222  -1.529   2.949  0.00  0.00    +0.381 N 
ATOM     32  H   UNL     1       1.811  -1.912   2.224  0.00  0.00    -0.082 HD
BRANCH  31  33
ATOM     33  C   UNL     1      -0.155  -2.006   2.763  0.00  0.00    -0.079 C 
BRANCH  33  35
ATOM     34  C   UNL     1      -2.061  -2.162   1.155  0.00  0.00    +0.002 C 
ATOM     35  C   UNL     1      -0.627  -1.664   1.348  0.00  0.00    -0.022 C 
ENDBRANCH  33  35
ENDBRANCH  31  33
BRANCH  31  36
ATOM     36  C   UNL     1       1.246  -0.062   2.874  0.00  0.00    -0.079 C 
BRANCH  36  37
ATOM     37  C   UNL     1       2.693   0.429   2.944  0.00  0.00    -0.022 C 
ATOM     38  C   UNL     1       2.713   1.959   2.969  0.00  0.00    +0.002 C 
ENDBRANCH  36  37
ENDBRANCH  31  36
ENDBRANCH  30  31
ENDBRANCH  29  30
ENDBRANCH  25  29
ENDBRANCH   1  26
TORSDOF 10
