REMARK  Name = ZINC35562851
REMARK  9 active torsions:
REMARK  status: ('A' for Active; 'I' for Inactive)
REMARK    1  A    between atoms: C_1  and  C_2
REMARK    2  A    between atoms: C_4  and  C_15
REMARK    3  A    between atoms: N_6  and  C_7
REMARK    4  A    between atoms: C_16  and  C_37
REMARK    5  A    between atoms: C_22  and  C_25
REMARK    6  A    between atoms: C_25  and  C_26
REMARK    7  A    between atoms: N_28  and  C_29
REMARK    8  A    between atoms: C_29  and  C_30
REMARK    9  A    between atoms: C_30  and  N_31
REMARK                            x       y       z     vdW  Elec       q    Type
REMARK                         _______ _______ _______ _____ _____    ______ ____
ROOT
ATOM      1  C   UNL     1       0.122  -3.315  -1.556  0.00  0.00    +0.088 A 
ATOM      2  C   UNL     1       0.369  -4.576  -1.024  0.00  0.00    +0.055 A 
ATOM      3  N   UNL     1       0.410  -5.618  -1.846  0.00  0.00    -0.227 NA
ATOM      4  C   UNL     1       0.223  -5.476  -3.135  0.00  0.00    +0.180 A 
ATOM      5  N   UNL     1      -0.025  -4.277  -3.749  0.00  0.00    -0.258 N 
ATOM      6  C   UNL     1      -0.083  -3.177  -2.941  0.00  0.00    +0.268 A 
ATOM      7  O   UNL     1      -0.306  -2.077  -3.420  0.00  0.00    -0.266 OA
ATOM      8  C   UNL     1      -0.197  -4.303  -5.112  0.00  0.00    +0.044 A 
ATOM      9  C   UNL     1      -0.122  -5.446  -5.794  0.00  0.00    +0.071 A 
ATOM     10  S   UNL     1       0.210  -6.625  -4.495  0.00  0.00    -0.057 S 
ATOM     11  C   UNL     1       0.586  -4.755   0.457  0.00  0.00    +0.066 C 
ENDROOT
BRANCH   1  15
ATOM     12  C   UNL     1      -0.355   1.476   0.050  0.00  0.00    +0.066 C 
ATOM     13  C   UNL     1      -0.144  -0.015   0.019  0.00  0.00    +0.043 A 
ATOM     14  C   UNL     1      -0.177  -0.801  -1.079  0.00  0.00    +0.053 A 
ATOM     15  C   UNL     1       0.069  -2.127  -0.671  0.00  0.00    +0.100 A 
ATOM     16  N   UNL     1       0.242  -2.127   0.634  0.00  0.00    -0.166 NA
ATOM     17  N   UNL     1       0.119  -0.808   1.091  0.00  0.00    -0.234 N 
BRANCH  17  18
ATOM     18  C   UNL     1       0.243  -0.382   2.420  0.00  0.00    +0.103 A 
ATOM     19  C   UNL     1       1.029   0.720   2.726  0.00  0.00    +0.069 A 
ATOM     20  C   UNL     1       1.149   1.139   4.039  0.00  0.00    +0.126 A 
ATOM     21  C   UNL     1       0.486   0.459   5.048  0.00  0.00    +0.041 A 
ATOM     22  C   UNL     1      -0.297  -0.639   4.745  0.00  0.00    +0.043 A 
ATOM     23  C   UNL     1      -0.426  -1.058   3.434  0.00  0.00    +0.149 A 
ATOM     24  F   UNL     1      -1.198  -2.127   3.139  0.00  0.00    -0.203 F 
ATOM     25  F   UNL     1       1.915   2.211   4.338  0.00  0.00    -0.205 F 
ENDBRANCH  17  18
ENDBRANCH   1  15
BRANCH   8  26
ATOM     26  C   UNL     1      -0.474  -3.018  -5.848  0.00  0.00    +0.150 C 
BRANCH  26  27
ATOM     27  C   UNL     1      -1.952  -2.725  -5.809  0.00  0.00    +0.219 C 
ATOM     28  O   UNL     1      -2.705  -3.485  -5.239  0.00  0.00    -0.275 OA
ATOM     29  N   UNL     1      -2.436  -1.618  -6.407  0.00  0.00    -0.317 N 
ATOM     30  H   UNL     1      -1.833  -1.010  -6.863  0.00  0.00    +0.149 HD
BRANCH  29  31
ATOM     31  C   UNL     1      -3.872  -1.333  -6.368  0.00  0.00    +0.085 C 
BRANCH  31  32
ATOM     32  C   UNL     1      -4.154  -0.028  -7.116  0.00  0.00    -0.060 C 
BRANCH  32  33
ATOM     33  N   UNL     1      -5.594   0.257  -7.077  0.00  0.00    +0.381 N 
ATOM     34  C   UNL     1      -6.318  -0.786  -7.813  0.00  0.00    -0.079 C 
ATOM     35  C   UNL     1      -7.824  -0.538  -7.708  0.00  0.00    -0.019 C 
ATOM     36  C   UNL     1      -8.154   0.833  -8.305  0.00  0.00    -0.004 C 
ATOM     37  C   UNL     1      -7.337   1.905  -7.579  0.00  0.00    -0.019 C 
ATOM     38  C   UNL     1      -5.848   1.567  -7.689  0.00  0.00    -0.079 C 
ATOM     39  H   UNL     1      -5.908   0.269  -6.118  0.00  0.00    -0.082 HD
ENDBRANCH  32  33
ENDBRANCH  31  32
ENDBRANCH  29  31
ENDBRANCH  26  27
ENDBRANCH   8  26
TORSDOF 7
