REMARK  Name = ZINC16970091
REMARK  19 active torsions:
REMARK  status: ('A' for Active; 'I' for Inactive)
REMARK    1  A    between atoms: C_1  and  C_2
REMARK    2  A    between atoms: C_2  and  C_3
REMARK    3  A    between atoms: C_3  and  C_4
REMARK    4  A    between atoms: C_4  and  N_67
REMARK    5  A    between atoms: C_5  and  C_7
REMARK    6  A    between atoms: C_5  and  C_8
REMARK    7  A    between atoms: C_5  and  N_67
REMARK    8  A    between atoms: C_8  and  C_10
REMARK    9  A    between atoms: C_8  and  O_32
REMARK   10  A    between atoms: C_13  and  C_16
REMARK   11  A    between atoms: C_19  and  C_22
REMARK   12  A    between atoms: C_22  and  C_24
REMARK   13  A    between atoms: C_22  and  O_31
REMARK   14  A    between atoms: C_24  and  C_26
REMARK   15  A    between atoms: C_24  and  N_70
REMARK   16  A    between atoms: C_27  and  C_28
REMARK   17  A    between atoms: C_27  and  N_70
REMARK   18  A    between atoms: C_28  and  C_29
REMARK   19  A    between atoms: C_29  and  C_30
REMARK                            x       y       z     vdW  Elec       q    Type
REMARK                         _______ _______ _______ _____ _____    ______ ____
ROOT
ATOM      1  C   UNL     1       5.619  -0.934   6.907  0.00  0.00    -0.021 A 
ATOM      2  C   UNL     1       4.824  -1.840   6.227  0.00  0.00    +0.007 A 
ATOM      3  C   UNL     1       4.120  -1.441   5.109  0.00  0.00    +0.009 A 
ATOM      4  C   UNL     1       4.211  -0.124   4.665  0.00  0.00    -0.018 A 
ATOM      5  C   UNL     1       5.017   0.783   5.350  0.00  0.00    +0.009 A 
ATOM      6  C   UNL     1       5.712   0.375   6.470  0.00  0.00    +0.007 A 
ENDROOT
BRANCH   4   7
ATOM      7  C   UNL     1       3.458   0.311   3.462  0.00  0.00    -0.018 A 
ATOM      8  C   UNL     1       3.549   1.628   3.018  0.00  0.00    +0.009 A 
ATOM      9  C   UNL     1       2.845   2.027   1.899  0.00  0.00    +0.007 A 
ATOM     10  C   UNL     1       2.052   1.121   1.219  0.00  0.00    -0.021 A 
ATOM     11  C   UNL     1       1.954  -0.187   1.659  0.00  0.00    +0.007 A 
ATOM     12  C   UNL     1       2.656  -0.598   2.773  0.00  0.00    +0.009 A 
BRANCH  10  13
ATOM     13  C   UNL     1       1.286   1.562  -0.002  0.00  0.00    +0.130 C 
BRANCH  13  14
ATOM     14  C   UNL     1       2.040   1.127  -1.261  0.00  0.00    -0.041 C 
ATOM     15  C   UNL     1       1.262   1.575  -2.500  0.00  0.00    -0.011 C 
BRANCH  14  16
ATOM     16  N   UNL     1       2.169  -0.342  -1.265  0.00  0.00    +0.383 N 
ATOM     17  H   UNL     1       1.319  -0.756  -1.665  0.00  0.00    -0.085 HD
ATOM     18  H   UNL     1       2.289  -0.674  -0.301  0.00  0.00    -0.085 HD
BRANCH  16  19
ATOM     19  C   UNL     1       3.335  -0.751  -2.070  0.00  0.00    -0.082 C 
BRANCH  19  20
ATOM     20  C   UNL     1       3.444  -2.277  -2.056  0.00  0.00    -0.019 C 
BRANCH  20  21
ATOM     21  C   UNL     1       4.652  -2.711  -2.889  0.00  0.00    -0.005 C 
ATOM     22  C   UNL     1       4.760  -4.237  -2.875  0.00  0.00    +0.004 C 
ENDBRANCH  20  21
ENDBRANCH  19  20
ENDBRANCH  16  19
ENDBRANCH  14  16
ENDBRANCH  13  14
BRANCH  13  23
ATOM     23  O   UNL     1      -0.011   0.963   0.007  0.00  0.00    -0.389 OA
ATOM     24  H   UNL     1       0.002  -0.004   0.002  0.00  0.00    +0.210 HD
ENDBRANCH  13  23
ENDBRANCH  10  13
ENDBRANCH   4   7
BRANCH   1  25
ATOM     25  C   UNL     1       6.385  -1.375   8.127  0.00  0.00    +0.130 C 
BRANCH  25  26
ATOM     26  C   UNL     1       7.841  -1.647   7.744  0.00  0.00    -0.041 C 
ATOM     27  C   UNL     1       8.619  -2.095   8.983  0.00  0.00    -0.011 C 
BRANCH  26  28
ATOM     28  N   UNL     1       8.439  -0.409   7.208  0.00  0.00    +0.383 N 
ATOM     29  H   UNL     1       7.727   0.112   6.684  0.00  0.00    -0.085 HD
ATOM     30  H   UNL     1       8.781   0.167   7.986  0.00  0.00    -0.085 HD
BRANCH  28  31
ATOM     31  C   UNL     1       9.565  -0.732   6.310  0.00  0.00    -0.082 C 
BRANCH  31  32
ATOM     32  C   UNL     1      10.164   0.569   5.770  0.00  0.00    -0.019 C 
BRANCH  32  34
ATOM     33  C   UNL     1      11.932   1.543   4.298  0.00  0.00    +0.004 C 
ATOM     34  C   UNL     1      11.332   0.243   4.838  0.00  0.00    -0.005 C 
ENDBRANCH  32  34
ENDBRANCH  31  32
ENDBRANCH  28  31
ENDBRANCH  26  28
ENDBRANCH  25  26
BRANCH  25  35
ATOM     35  O   UNL     1       6.337  -0.347   9.117  0.00  0.00    -0.389 OA
ATOM     36  H   UNL     1       6.717   0.494   8.830  0.00  0.00    +0.210 HD
ENDBRANCH  25  35
ENDBRANCH   1  25
TORSDOF 15
