REMARK  Name = ZINC32802506
REMARK  5 active torsions:
REMARK  status: ('A' for Active; 'I' for Inactive)
REMARK    1  A    between atoms: C_9  and  N_11
REMARK    2  A    between atoms: N_17  and  C_20
REMARK    3  A    between atoms: C_20  and  C_21
REMARK    4  A    between atoms: N_23  and  C_24
REMARK    5  A    between atoms: C_29  and  C_30
REMARK                            x       y       z     vdW  Elec       q    Type
REMARK                         _______ _______ _______ _____ _____    ______ ____
ROOT
ATOM      1  N   UNL     1      -5.078   1.928  -0.793  0.00  0.00    -0.292 N 
ATOM      2  C   UNL     1      -4.346   2.957  -1.263  0.00  0.00    +0.303 C 
ATOM      3  O   UNL     1      -3.141   2.969  -1.100  0.00  0.00    -0.253 OA
ATOM      4  N   UNL     1      -4.949   3.972  -1.912  0.00  0.00    -0.289 N 
ATOM      5  C   UNL     1      -4.159   5.053  -2.522  0.00  0.00    +0.091 C 
ATOM      6  C   UNL     1      -4.614   5.218  -3.981  0.00  0.00    -0.059 C 
ATOM      7  N   UNL     1      -6.069   5.418  -4.014  0.00  0.00    +0.387 N 
ATOM      8  C   UNL     1      -6.780   4.240  -3.498  0.00  0.00    -0.059 C 
ATOM      9  C   UNL     1      -6.414   4.032  -2.025  0.00  0.00    +0.091 C 
ATOM     10  H   UNL     1      -6.175   1.955  -0.866  0.00  0.00    +0.151 HD
ATOM     11  H   UNL     1      -6.306   6.267  -3.357  0.00  0.00    -0.081 HD
ENDROOT
BRANCH   1  20
ATOM     12  C   UNL     1      -3.661  -2.482  -2.840  0.00  0.00    +0.000 A 
ATOM     13  C   UNL     1      -3.340  -1.222  -3.308  0.00  0.00    +0.000 A 
ATOM     14  C   UNL     1      -3.553  -0.115  -2.509  0.00  0.00    +0.006 A 
ATOM     15  C   UNL     1      -4.088  -0.264  -1.240  0.00  0.00    -0.024 A 
ATOM     16  C   UNL     1      -4.410  -1.526  -0.773  0.00  0.00    -0.042 A 
ATOM     17  C   UNL     1      -4.194  -2.632  -1.575  0.00  0.00    +0.004 A 
ATOM     18  C   UNL     1      -4.972  -1.421   0.629  0.00  0.00    +0.037 C 
ATOM     19  C   UNL     1      -5.367   0.061   0.798  0.00  0.00    +0.032 C 
ATOM     20  C   UNL     1      -4.413   0.772  -0.186  0.00  0.00    +0.105 C 
ENDBRANCH   1  20
BRANCH   7  21
ATOM     21  C   UNL     1      -6.523   5.754  -5.370  0.00  0.00    +0.019 C 
BRANCH  21  22
ATOM     22  C   UNL     1      -6.201   4.617  -6.305  0.00  0.00    +0.201 C 
ATOM     23  O   UNL     1      -5.602   3.645  -5.894  0.00  0.00    -0.278 OA
ATOM     24  N   UNL     1      -6.578   4.679  -7.597  0.00  0.00    -0.287 N 
ATOM     25  H   UNL     1      -7.059   5.588  -7.987  0.00  0.00    +0.155 HD
BRANCH  24  26
ATOM     26  C   UNL     1      -6.357   3.587  -8.444  0.00  0.00    +0.045 A 
ATOM     27  C   UNL     1      -6.391   2.294  -7.936  0.00  0.00    +0.024 A 
ATOM     28  C   UNL     1      -6.178   1.218  -8.775  0.00  0.00    +0.002 A 
ATOM     29  C   UNL     1      -5.920   1.427 -10.117  0.00  0.00    +0.001 A 
ATOM     30  C   UNL     1      -5.881   2.712 -10.625  0.00  0.00    +0.014 A 
ATOM     31  C   UNL     1      -6.098   3.793  -9.792  0.00  0.00    +0.076 A 
BRANCH  31  32
ATOM     32  C   UNL     1      -6.053   5.193 -10.346  0.00  0.00    +0.419 C 
ATOM     33  F   UNL     1      -5.778   5.144 -11.717  0.00  0.00    -0.166 F 
ATOM     34  F   UNL     1      -7.290   5.815 -10.141  0.00  0.00    -0.166 F 
ATOM     35  F   UNL     1      -5.052   5.921  -9.695  0.00  0.00    -0.166 F 
ENDBRANCH  31  32
ENDBRANCH  24  26
ENDBRANCH  21  22
ENDBRANCH   7  21
TORSDOF 5
