REMARK  Name = ZINC39021383
REMARK  6 active torsions:
REMARK  status: ('A' for Active; 'I' for Inactive)
REMARK    1  A    between atoms: C_3  and  N_8
REMARK    2  A    between atoms: C_9  and  C_11
REMARK    3  A    between atoms: C_11  and  S_12
REMARK    4  A    between atoms: S_12  and  C_13
REMARK    5  A    between atoms: C_16  and  C_20
REMARK    6  A    between atoms: N_18  and  N_19
REMARK                            x       y       z     vdW  Elec       q    Type
REMARK                         _______ _______ _______ _____ _____    ______ ____
ROOT
ATOM      1  C   UNL     1       8.855   2.133   0.388  0.00  0.00    +0.189 C 
ATOM      2  N   UNL     1       8.801   3.422   0.397  0.00  0.00    -0.161 NA
ATOM      3  N   UNL     1      10.078   3.987   0.499  0.00  0.00    -0.243 N 
ATOM      4  C   UNL     1      11.023   2.859   0.558  0.00  0.00    +0.222 C 
ATOM      5  N   UNL     1      10.158   1.669   0.486  0.00  0.00    -0.223 N 
ATOM      6  H   UNL     1      10.297   4.932   0.525  0.00  0.00    +0.170 HD
ENDROOT
BRANCH   4   7
ATOM      7  C   UNL     1      11.800   2.877   1.876  0.00  0.00    +0.197 C 
ATOM      8  C   UNL     1      12.567   4.174   2.029  0.00  0.00    -0.017 C 
ATOM      9  C   UNL     1      12.060   4.741   3.122  0.00  0.00    +0.065 C 
ATOM     10  C   UNL     1      12.754   6.066   3.384  0.00  0.00    +0.057 C 
ATOM     11  C   UNL     1      14.046   6.016   2.540  0.00  0.00    +0.011 C 
ATOM     12  C   UNL     1      13.652   5.025   1.422  0.00  0.00    +0.035 C 
ATOM     13  N   UNL     1      11.086   3.948   3.646  0.00  0.00    -0.158 NA
ATOM     14  N   UNL     1      10.878   2.900   3.024  0.00  0.00    -0.176 NA
ENDBRANCH   4   7
BRANCH   5  15
ATOM     15  N   UNL     1      10.560   0.364   0.509  0.00  0.00    -0.250 NA
ATOM     16  H   UNL     1       9.770  -0.260   0.443  0.00  0.00    +0.141 HD
ATOM     17  H   UNL     1      11.229   0.179  -0.224  0.00  0.00    +0.141 HD
ENDBRANCH   5  15
BRANCH   1  18
ATOM     18  S   UNL     1       7.441   1.088   0.271  0.00  0.00    -0.078 S 
BRANCH  18  19
ATOM     19  C   UNL     1       6.047   2.244   0.171  0.00  0.00    +0.173 C 
BRANCH  19  21
ATOM     20  N   UNL     1       3.584   2.125  -0.021  0.00  0.00    -0.285 N 
ATOM     21  C   UNL     1       4.758   1.470   0.066  0.00  0.00    +0.227 C 
ATOM     22  O   UNL     1       4.778   0.258   0.060  0.00  0.00    -0.275 OA
ATOM     23  H   UNL     1       3.572   3.092  -0.093  0.00  0.00    +0.155 HD
BRANCH  20  26
ATOM     24  C   UNL     1       1.086  -0.461   0.750  0.00  0.00    +0.003 A 
ATOM     25  C   UNL     1       2.274   0.243   0.738  0.00  0.00    +0.023 A 
ATOM     26  C   UNL     1       2.381   1.410  -0.007  0.00  0.00    +0.035 A 
ATOM     27  C   UNL     1       1.292   1.866  -0.738  0.00  0.00    +0.043 A 
ATOM     28  C   UNL     1       0.106   1.158  -0.722  0.00  0.00    +0.043 A 
ATOM     29  C   UNL     1       0.003  -0.005   0.022  0.00  0.00    +0.020 A 
ATOM     30 CL   UNL     1      -1.257   1.727  -1.635  0.00  0.00    -0.083 Cl
ENDBRANCH  20  26
ENDBRANCH  19  21
ENDBRANCH  18  19
ENDBRANCH   1  18
TORSDOF 6
