REMARK  Name = ZINC04555382
REMARK  8 active torsions:
REMARK  status: ('A' for Active; 'I' for Inactive)
REMARK    1  A    between atoms: C_1  and  C_2
REMARK    2  A    between atoms: C_2  and  C_3
REMARK    3  A    between atoms: C_3  and  C_4
REMARK    4  A    between atoms: C_6  and  C_26
REMARK    5  A    between atoms: C_8  and  C_20
REMARK    6  A    between atoms: C_11  and  C_12
REMARK    7  A    between atoms: C_11  and  O_19
REMARK    8  A    between atoms: C_12  and  C_13
REMARK                            x       y       z     vdW  Elec       q    Type
REMARK                         _______ _______ _______ _____ _____    ______ ____
ROOT
ATOM      1  C   UNL     1      -3.473   4.382  -0.194  0.00  0.00    +0.011 C 
ATOM      2  C   UNL     1      -2.461   3.827   0.810  0.00  0.00    -0.034 C 
ATOM      3  C   UNL     1      -1.448   2.433  -0.893  0.00  0.00    -0.037 C 
ATOM      4  C   UNL     1      -2.430   2.946  -1.949  0.00  0.00    +0.024 C 
ATOM      5  C   UNL     1      -3.749   3.328  -1.270  0.00  0.00    +0.070 C 
ATOM      6  N   UNL     1      -1.206   3.483   0.114  0.00  0.00    +0.388 N 
ATOM      7  H   UNL     1      -0.522   3.143   0.799  0.00  0.00    -0.084 HD
ATOM      8  H   UNL     1      -0.838   4.320  -0.352  0.00  0.00    -0.084 HD
ENDROOT
BRANCH   3   9
ATOM      9  C   UNL     1      -0.142   2.075  -1.555  0.00  0.00    -0.061 A 
ATOM     10  C   UNL     1       0.765   3.067  -1.874  0.00  0.00    +0.002 A 
ATOM     11  C   UNL     1       1.960   2.739  -2.487  0.00  0.00    +0.000 A 
ATOM     12  C   UNL     1       2.248   1.419  -2.779  0.00  0.00    +0.000 A 
ATOM     13  C   UNL     1       1.341   0.427  -2.459  0.00  0.00    +0.000 A 
ATOM     14  C   UNL     1       0.145   0.754  -1.847  0.00  0.00    +0.002 A 
ENDBRANCH   3   9
BRANCH   2  15
ATOM     15  C   UNL     1      -2.172   4.869   1.860  0.00  0.00    -0.061 A 
ATOM     16  C   UNL     1      -1.018   5.626   1.783  0.00  0.00    +0.002 A 
ATOM     17  C   UNL     1      -0.755   6.586   2.742  0.00  0.00    +0.000 A 
ATOM     18  C   UNL     1      -1.641   6.781   3.786  0.00  0.00    +0.000 A 
ATOM     19  C   UNL     1      -2.792   6.020   3.866  0.00  0.00    +0.000 A 
ATOM     20  C   UNL     1      -3.058   5.064   2.903  0.00  0.00    +0.002 A 
ENDBRANCH   2  15
BRANCH   5  21
ATOM     21  O   UNL     1      -4.328   2.169  -0.666  0.00  0.00    -0.388 OA
ATOM     22  H   UNL     1      -4.525   1.457  -1.291  0.00  0.00    +0.210 HD
ENDBRANCH   5  21
BRANCH   1  23
ATOM     23  C   UNL     1      -2.905   5.643  -0.849  0.00  0.00    +0.005 C 
BRANCH  23  25
ATOM     24  C   UNL     1      -2.664   8.120  -0.624  0.00  0.00    +0.004 C 
ATOM     25  C   UNL     1      -3.107   6.838   0.085  0.00  0.00    -0.003 C 
ENDBRANCH  23  25
ENDBRANCH   1  23
BRANCH   5  26
ATOM     26  C   UNL     1      -4.714   3.899  -2.311  0.00  0.00    +0.070 C 
BRANCH  26  27
ATOM     27  C   UNL     1      -4.978   2.863  -3.372  0.00  0.00    -0.045 A 
ATOM     28  C   UNL     1      -4.174   2.804  -4.496  0.00  0.00    +0.004 A 
ATOM     29  C   UNL     1      -4.413   1.850  -5.467  0.00  0.00    +0.000 A 
ATOM     30  C   UNL     1      -5.463   0.962  -5.321  0.00  0.00    +0.000 A 
ATOM     31  C   UNL     1      -6.269   1.024  -4.200  0.00  0.00    +0.000 A 
ATOM     32  C   UNL     1      -6.027   1.975  -3.226  0.00  0.00    +0.004 A 
ENDBRANCH  26  27
ENDBRANCH   5  26
TORSDOF 7
