REMARK  Name = ZINC59017023
REMARK  7 active torsions:
REMARK  status: ('A' for Active; 'I' for Inactive)
REMARK    1  A    between atoms: C_1  and  C_2
REMARK    2  A    between atoms: C_6  and  C_8
REMARK    3  A    between atoms: C_8  and  S_9
REMARK    4  A    between atoms: S_9  and  C_10
REMARK    5  A    between atoms: N_16  and  N_17
REMARK    6  A    between atoms: C_18  and  C_19
REMARK    7  A    between atoms: C_24  and  O_25
REMARK                            x       y       z     vdW  Elec       q    Type
REMARK                         _______ _______ _______ _____ _____    ______ ____
ROOT
ATOM      1  C   UNL     1       1.622  -4.015   4.517  0.00  0.00    +0.191 A 
ATOM      2  N   UNL     1       2.655  -4.453   5.295  0.00  0.00    -0.303 N 
ATOM      3  H   UNL     1       3.599  -4.331   5.111  0.00  0.00    +0.171 HD
ATOM      4  C   UNL     1       2.124  -5.095   6.380  0.00  0.00    +0.235 A 
ATOM      5  N   UNL     1       0.818  -5.055   6.275  0.00  0.00    -0.111 NA
ATOM      6  N   UNL     1       0.499  -4.365   5.098  0.00  0.00    -0.121 NA
ATOM      7  N   UNL     1       2.842  -5.686   7.409  0.00  0.00    -0.205 N 
ATOM      8  H   UNL     1       3.812  -5.665   7.399  0.00  0.00    +0.177 HD
ENDROOT
BRANCH   7   9
ATOM      9  N   UNL     1       2.166  -6.313   8.464  0.00  0.00    -0.187 NA
ATOM     10  C   UNL     1       2.838  -6.866   9.428  0.00  0.00    +0.142 C 
BRANCH  10  11
ATOM     11  C   UNL     1       2.128  -7.525  10.538  0.00  0.00    +0.038 A 
ATOM     12  C   UNL     1       2.847  -8.116  11.580  0.00  0.00    +0.028 A 
ATOM     13  C   UNL     1       2.175  -8.732  12.616  0.00  0.00    +0.020 A 
ATOM     14  C   UNL     1       0.791  -8.767  12.628  0.00  0.00    +0.034 A 
ATOM     15  C   UNL     1       0.068  -8.185  11.602  0.00  0.00    +0.061 A 
ATOM     16  C   UNL     1       0.727  -7.558  10.557  0.00  0.00    +0.139 A 
ATOM     17 BR   UNL     1      -1.822  -8.240  11.630  0.00  0.00    -0.046 Br
ATOM     18 BR   UNL     1       3.149  -9.533  14.026  0.00  0.00    -0.050 Br
BRANCH  16  19
ATOM     19  O   UNL     1       0.018  -6.981   9.552  0.00  0.00    -0.505 OA
ATOM     20  H   UNL     1      -0.176  -7.577   8.815  0.00  0.00    +0.292 HD
ENDBRANCH  16  19
ENDBRANCH  10  11
ENDBRANCH   7   9
BRANCH   1  21
ATOM     21  S   UNL     1       1.770  -3.127   3.002  0.00  0.00    -0.081 S 
BRANCH  21  22
ATOM     22  C   UNL     1       0.054  -2.845   2.489  0.00  0.00    +0.112 C 
BRANCH  22  28
ATOM     23  C   UNL     1      -0.018   1.503   0.010  0.00  0.00    +0.044 C 
ATOM     24  C   UNL     1       0.002  -0.004   0.002  0.00  0.00    -0.050 A 
ATOM     25  C   UNL     1       0.006  -0.689  -1.199  0.00  0.00    +0.003 A 
ATOM     26  C   UNL     1       0.025  -2.071  -1.207  0.00  0.00    +0.001 A 
ATOM     27  C   UNL     1       0.040  -2.768  -0.013  0.00  0.00    +0.004 A 
ATOM     28  C   UNL     1       0.037  -2.084   1.188  0.00  0.00    -0.037 A 
ATOM     29  C   UNL     1       0.023  -0.702   1.195  0.00  0.00    +0.007 A 
ENDBRANCH  22  28
ENDBRANCH  21  22
ENDBRANCH   1  21
TORSDOF 6
