REMARK  Name = ZINC22780349
REMARK  12 active torsions:
REMARK  status: ('A' for Active; 'I' for Inactive)
REMARK    1  A    between atoms: C_4  and  C_7
REMARK    2  A    between atoms: C_7  and  C_9
REMARK    3  A    between atoms: C_7  and  C_34
REMARK    4  A    between atoms: C_9  and  C_10
REMARK    5  A    between atoms: C_10  and  N_11
REMARK    6  A    between atoms: N_14  and  C_17
REMARK    7  A    between atoms: C_17  and  C_18
REMARK    8  A    between atoms: C_18  and  C_19
REMARK    9  A    between atoms: C_19  and  C_21
REMARK   10  A    between atoms: C_19  and  C_27
REMARK   11  A    between atoms: C_32  and  O_33
REMARK   12  A    between atoms: C_39  and  O_40
REMARK                            x       y       z     vdW  Elec       q    Type
REMARK                         _______ _______ _______ _____ _____    ______ ____
ROOT
ATOM      1  N   UNL     1       5.253  -0.642   3.919  0.00  0.00    +0.381 N 
ATOM      2  C   UNL     1       6.194  -1.739   4.179  0.00  0.00    -0.063 C 
ATOM      3  C   UNL     1       5.609  -2.671   5.243  0.00  0.00    +0.066 C 
ATOM      4  N   UNL     1       5.364  -1.909   6.476  0.00  0.00    -0.306 NA
ATOM      5  C   UNL     1       4.443  -0.792   6.225  0.00  0.00    +0.066 C 
ATOM      6  C   UNL     1       5.037   0.124   5.153  0.00  0.00    -0.063 C 
ATOM      7  H   UNL     1       4.373  -1.022   3.601  0.00  0.00    -0.082 HD
ENDROOT
BRANCH   1   8
ATOM      8  C   UNL     1       5.806   0.242   2.884  0.00  0.00    -0.078 C 
BRANCH   8   9
ATOM      9  C   UNL     1       5.914  -0.523   1.564  0.00  0.00    -0.006 C 
BRANCH   9  10
ATOM     10  C   UNL     1       6.491   0.398   0.486  0.00  0.00    +0.051 C 
BRANCH  10  14
ATOM     11  C   UNL     1       3.753   3.587  -0.278  0.00  0.00    +0.000 A 
ATOM     12  C   UNL     1       5.077   3.865   0.006  0.00  0.00    +0.000 A 
ATOM     13  C   UNL     1       5.963   2.834   0.254  0.00  0.00    +0.004 A 
ATOM     14  C   UNL     1       5.525   1.523   0.218  0.00  0.00    -0.040 A 
ATOM     15  C   UNL     1       4.201   1.244  -0.065  0.00  0.00    +0.004 A 
ATOM     16  C   UNL     1       3.315   2.276  -0.314  0.00  0.00    +0.000 A 
ENDBRANCH  10  14
BRANCH  10  17
ATOM     17  C   UNL     1       6.712  -0.388  -0.780  0.00  0.00    +0.001 A 
ATOM     18  C   UNL     1       5.679  -1.125  -1.326  0.00  0.00    +0.008 A 
ATOM     19  C   UNL     1       5.881  -1.846  -2.488  0.00  0.00    +0.001 A 
ATOM     20  C   UNL     1       7.118  -1.832  -3.107  0.00  0.00    +0.004 A 
ATOM     21  C   UNL     1       8.154  -1.097  -2.565  0.00  0.00    +0.046 A 
ATOM     22  C   UNL     1       7.952  -0.367  -1.402  0.00  0.00    +0.121 A 
BRANCH  22  23
ATOM     23  O   UNL     1       8.968   0.361  -0.870  0.00  0.00    -0.506 OA
ATOM     24  H   UNL     1       9.514  -0.127  -0.238  0.00  0.00    +0.292 HD
ENDBRANCH  22  23
ENDBRANCH  10  17
ENDBRANCH   9  10
ENDBRANCH   8   9
ENDBRANCH   1   8
BRANCH   4  25
ATOM     25  C   UNL     1       4.854  -2.782   7.542  0.00  0.00    +0.085 C 
BRANCH  25  26
ATOM     26  C   UNL     1       4.848  -2.019   8.867  0.00  0.00    +0.028 C 
BRANCH  26  27
ATOM     27  C   UNL     1       4.317  -2.928   9.977  0.00  0.00    +0.054 C 
BRANCH  27  28
ATOM     28  C   UNL     1       4.425  -2.219  11.303  0.00  0.00    -0.040 A 
ATOM     29  C   UNL     1       5.047  -2.839  12.370  0.00  0.00    +0.004 A 
ATOM     30  C   UNL     1       5.146  -2.188  13.586  0.00  0.00    +0.000 A 
ATOM     31  C   UNL     1       4.624  -0.917  13.734  0.00  0.00    +0.000 A 
ATOM     32  C   UNL     1       4.002  -0.297  12.666  0.00  0.00    +0.000 A 
ATOM     33  C   UNL     1       3.907  -0.946  11.450  0.00  0.00    +0.004 A 
ENDBRANCH  27  28
BRANCH  27  34
ATOM     34  C   UNL     1       2.874  -3.264   9.704  0.00  0.00    +0.001 A 
ATOM     35  C   UNL     1       1.955  -2.253   9.497  0.00  0.00    +0.008 A 
ATOM     36  C   UNL     1       0.631  -2.561   9.247  0.00  0.00    +0.001 A 
ATOM     37  C   UNL     1       0.222  -3.882   9.202  0.00  0.00    +0.004 A 
ATOM     38  C   UNL     1       1.137  -4.896   9.408  0.00  0.00    +0.046 A 
ATOM     39  C   UNL     1       2.467  -4.590   9.654  0.00  0.00    +0.121 A 
BRANCH  39  40
ATOM     40  O   UNL     1       3.370  -5.586   9.851  0.00  0.00    -0.506 OA
ATOM     41  H   UNL     1       3.463  -5.856  10.775  0.00  0.00    +0.292 HD
ENDBRANCH  39  40
ENDBRANCH  27  34
ENDBRANCH  26  27
ENDBRANCH  25  26
ENDBRANCH   4  25
TORSDOF 12
