REMARK  Name = ZINC39426671
REMARK  13 active torsions:
REMARK  status: ('A' for Active; 'I' for Inactive)
REMARK    1  A    between atoms: C_1  and  C_2
REMARK    2  A    between atoms: C_2  and  C_4
REMARK    3  A    between atoms: C_2  and  S_15
REMARK    4  A    between atoms: N_6  and  C_7
REMARK    5  A    between atoms: C_11  and  O_13
REMARK    6  A    between atoms: O_13  and  C_14
REMARK    7  A    between atoms: S_15  and  C_16
REMARK    8  A    between atoms: C_19  and  C_20
REMARK    9  A    between atoms: C_23  and  O_28
REMARK   10  A    between atoms: C_25  and  O_26
REMARK   11  A    between atoms: O_26  and  C_27
REMARK   12  A    between atoms: O_28  and  C_29
REMARK   13  A    between atoms: N_32  and  C_33
REMARK                            x       y       z     vdW  Elec       q    Type
REMARK                         _______ _______ _______ _____ _____    ______ ____
ROOT
ATOM      1  C   UNL     1       2.762   0.216  -1.373  0.00  0.00    +0.169 C 
ATOM      2  N   UNL     1       3.306   0.687  -0.281  0.00  0.00    -0.220 NA
ATOM      3  C   UNL     1       4.559   1.155  -0.569  0.00  0.00    +0.130 C 
ATOM      4  C   UNL     1       5.453   1.727   0.309  0.00  0.00    +0.044 C 
ATOM      5  C   UNL     1       4.757   0.922  -2.009  0.00  0.00    +0.275 C 
ATOM      6  O   UNL     1       5.742   1.193  -2.671  0.00  0.00    -0.268 OA
ATOM      7  N   UNL     1       3.618   0.337  -2.441  0.00  0.00    -0.214 N 
ENDROOT
BRANCH   4   8
ATOM      8  C   UNL     1       6.819   2.019  -0.124  0.00  0.00    +0.019 A 
ATOM      9  C   UNL     1       7.529   1.087  -0.896  0.00  0.00    +0.015 A 
ATOM     10  C   UNL     1       8.803   1.363  -1.299  0.00  0.00    +0.046 A 
ATOM     11  C   UNL     1       9.408   2.567  -0.949  0.00  0.00    +0.124 A 
ATOM     12  C   UNL     1       8.721   3.501  -0.186  0.00  0.00    +0.091 A 
ATOM     13  C   UNL     1       7.427   3.239   0.226  0.00  0.00    +0.131 A 
BRANCH  13  14
ATOM     14  O   UNL     1       6.749   4.151   0.968  0.00  0.00    -0.494 OA
ATOM     15  C   UNL     1       7.431   5.366   1.284  0.00  0.00    +0.277 C 
ENDBRANCH  13  14
BRANCH  11  16
ATOM     16  O   UNL     1      10.676   2.829  -1.356  0.00  0.00    -0.495 OA
ATOM     17  C   UNL     1      11.327   1.825  -2.138  0.00  0.00    +0.277 C 
ENDBRANCH  11  16
ENDBRANCH   4   8
BRANCH   7  18
ATOM     18  C   UNL     1       3.353  -0.072  -3.755  0.00  0.00    +0.044 A 
ATOM     19  C   UNL     1       2.358   0.557  -4.492  0.00  0.00    +0.024 A 
ATOM     20  C   UNL     1       2.099   0.151  -5.787  0.00  0.00    +0.002 A 
ATOM     21  C   UNL     1       2.829  -0.881  -6.348  0.00  0.00    +0.000 A 
ATOM     22  C   UNL     1       3.819  -1.510  -5.616  0.00  0.00    +0.002 A 
ATOM     23  C   UNL     1       4.087  -1.104  -4.324  0.00  0.00    +0.024 A 
ENDBRANCH   7  18
BRANCH   1  24
ATOM     24  S   UNL     1       1.149  -0.487  -1.460  0.00  0.00    -0.077 S 
BRANCH  24  26
ATOM     25  C   UNL     1       0.373   1.106   0.623  0.00  0.00    +0.029 C 
ATOM     26  C   UNL     1       0.525  -0.367   0.238  0.00  0.00    +0.137 C 
BRANCH  26  27
ATOM     27  C   UNL     1      -0.815  -1.051   0.331  0.00  0.00    +0.230 C 
ATOM     28  O   UNL     1      -1.468  -1.244  -0.673  0.00  0.00    -0.274 OA
ATOM     29  N   UNL     1      -1.288  -1.448   1.529  0.00  0.00    -0.284 N 
ATOM     30  H   UNL     1      -0.738  -1.354   2.323  0.00  0.00    +0.155 HD
BRANCH  29  31
ATOM     31  C   UNL     1      -2.572  -1.994   1.628  0.00  0.00    +0.037 A 
ATOM     32  C   UNL     1      -3.352  -1.738   2.749  0.00  0.00    +0.023 A 
ATOM     33  C   UNL     1      -4.620  -2.278   2.846  0.00  0.00    +0.005 A 
ATOM     34  C   UNL     1      -5.115  -3.074   1.831  0.00  0.00    +0.046 A 
ATOM     35  C   UNL     1      -4.340  -3.333   0.710  0.00  0.00    +0.122 A 
ATOM     36  C   UNL     1      -3.070  -2.788   0.605  0.00  0.00    +0.069 A 
BRANCH  35  37
ATOM     37  O   UNL     1      -4.828  -4.117  -0.288  0.00  0.00    -0.495 OA
ATOM     38  C   UNL     1      -6.147  -4.639  -0.116  0.00  0.00    +0.277 C 
ENDBRANCH  35  37
ENDBRANCH  29  31
ENDBRANCH  26  27
ENDBRANCH  24  26
ENDBRANCH   1  24
TORSDOF 9
