REMARK  Name = ZINC09222802
REMARK  6 active torsions:
REMARK  status: ('A' for Active; 'I' for Inactive)
REMARK    1  A    between atoms: C_3  and  S_10
REMARK    2  A    between atoms: S_10  and  N_13
REMARK    3  A    between atoms: C_18  and  C_19
REMARK    4  A    between atoms: C_18  and  N_47
REMARK    5  A    between atoms: N_21  and  C_22
REMARK    6  A    between atoms: C_23  and  C_27
REMARK                            x       y       z     vdW  Elec       q    Type
REMARK                         _______ _______ _______ _____ _____    ______ ____
ROOT
ATOM      1  N   UNL     1       4.759   5.539   0.740  0.00  0.00    -0.180 NA
ATOM      2  C   UNL     1       3.973   5.998  -0.415  0.00  0.00    +0.091 C 
ATOM      3  C   UNL     1       2.523   5.538  -0.231  0.00  0.00    -0.061 C 
ATOM      4  C   UNL     1       3.200   3.733   1.242  0.00  0.00    -0.061 C 
ATOM      5  C   UNL     1       4.678   4.120   1.118  0.00  0.00    +0.091 C 
ATOM      6  N   UNL     1       2.513   4.074  -0.023  0.00  0.00    +0.387 N 
ATOM      7  H   UNL     1       3.007   3.624  -0.802  0.00  0.00    -0.081 HD
ENDROOT
BRANCH   1   8
ATOM      8  S   UNL     1       5.711   6.592   1.593  0.00  0.00    +0.064 S 
ATOM      9  O   UNL     1       6.716   5.811   2.225  0.00  0.00    -0.153 OA
ATOM     10  O   UNL     1       6.020   7.664   0.714  0.00  0.00    -0.153 OA
BRANCH   8  13
ATOM     11  C   UNL     1       4.241   7.531   5.214  0.00  0.00    +0.043 A 
ATOM     12  C   UNL     1       5.018   6.998   4.202  0.00  0.00    +0.034 A 
ATOM     13  C   UNL     1       4.716   7.268   2.881  0.00  0.00    +0.144 A 
ATOM     14  C   UNL     1       3.628   8.065   2.568  0.00  0.00    +0.187 A 
ATOM     15  C   UNL     1       2.845   8.596   3.580  0.00  0.00    +0.195 A 
ATOM     16  C   UNL     1       3.153   8.328   4.905  0.00  0.00    +0.161 A 
ATOM     17  F   UNL     1       2.391   8.844   5.894  0.00  0.00    -0.202 F 
ATOM     18  F   UNL     1       1.783   9.374   3.277  0.00  0.00    -0.199 F 
ATOM     19  F   UNL     1       3.330   8.325   1.276  0.00  0.00    -0.200 F 
ENDBRANCH   8  13
ENDBRANCH   1   8
BRANCH   6  20
ATOM     20  C   UNL     1       1.121   3.579   0.011  0.00  0.00    +0.019 C 
BRANCH  20  21
ATOM     21  C   UNL     1       1.141   2.072   0.002  0.00  0.00    +0.201 C 
ATOM     22  O   UNL     1       2.200   1.480  -0.011  0.00  0.00    -0.278 OA
ATOM     23  N   UNL     1      -0.017   1.382   0.010  0.00  0.00    -0.281 N 
ATOM     24  H   UNL     1      -0.863   1.856   0.016  0.00  0.00    +0.155 HD
BRANCH  23  25
ATOM     25  C   UNL     1       0.002  -0.004   0.002  0.00  0.00    +0.084 A 
ATOM     26  C   UNL     1      -1.075  -0.882   0.013  0.00  0.00    +0.065 A 
ATOM     27  C   UNL     1      -0.764  -2.292  -0.003  0.00  0.00    +0.022 A 
ATOM     28  C   UNL     1       0.537  -2.633  -0.017  0.00  0.00    +0.048 A 
ATOM     29  S   UNL     1       1.373  -1.061  -0.016  0.00  0.00    -0.081 S 
BRANCH  26  30
ATOM     30  C   UNL     1      -2.460  -0.401   0.037  0.00  0.00    +0.244 C 
ATOM     31  O   UNL     1      -2.688   0.795   0.047  0.00  0.00    -0.270 OA
ATOM     32  N   UNL     1      -3.480  -1.282   0.047  0.00  0.00    -0.325 N 
ATOM     33  H   UNL     1      -3.298  -2.234   0.039  0.00  0.00    +0.145 HD
ATOM     34  H   UNL     1      -4.396  -0.963   0.062  0.00  0.00    +0.145 HD
ENDBRANCH  26  30
ENDBRANCH  23  25
ENDBRANCH  20  21
ENDBRANCH   6  20
TORSDOF 6
