REMARK  Name = ZINC35339295
REMARK  10 active torsions:
REMARK  status: ('A' for Active; 'I' for Inactive)
REMARK    1  A    between atoms: C_1  and  C_2
REMARK    2  A    between atoms: C_2  and  C_3
REMARK    3  A    between atoms: C_2  and  N_4
REMARK    4  A    between atoms: N_4  and  C_5
REMARK    5  A    between atoms: C_5  and  C_6
REMARK    6  A    between atoms: C_8  and  C_11
REMARK    7  A    between atoms: N_13  and  C_14
REMARK    8  A    between atoms: C_14  and  C_15
REMARK    9  A    between atoms: C_15  and  N_16
REMARK   10  A    between atoms: N_24  and  C_25
REMARK                            x       y       z     vdW  Elec       q    Type
REMARK                         _______ _______ _______ _____ _____    ______ ____
ROOT
ATOM      1  C   UNL     1      -2.360  -1.726  -1.759  0.00  0.00    +0.096 A 
ATOM      2  N   UNL     1      -3.525  -2.262  -1.518  0.00  0.00    -0.238 NA
ATOM      3  C   UNL     1      -3.659  -3.584  -1.666  0.00  0.00    +0.133 A 
ATOM      4  C   UNL     1      -2.538  -4.261  -2.065  0.00  0.00    +0.080 A 
ATOM      5  S   UNL     1      -1.403  -3.031  -2.208  0.00  0.00    -0.078 S 
ENDROOT
BRANCH   3   6
ATOM      6  C   UNL     1      -4.937  -4.271  -1.415  0.00  0.00    +0.263 C 
ATOM      7  O   UNL     1      -5.019  -5.475  -1.561  0.00  0.00    -0.269 OA
ATOM      8  N   UNL     1      -6.016  -3.564  -1.024  0.00  0.00    -0.312 N 
ATOM      9  H   UNL     1      -5.951  -2.604  -0.907  0.00  0.00    +0.149 HD
BRANCH   8  10
ATOM     10  C   UNL     1      -7.288  -4.248  -0.774  0.00  0.00    +0.086 C 
BRANCH  10  11
ATOM     11  C   UNL     1      -8.341  -3.224  -0.345  0.00  0.00    -0.060 C 
BRANCH  11  12
ATOM     12  N   UNL     1      -9.616  -3.909  -0.095  0.00  0.00    +0.381 N 
ATOM     13  C   UNL     1     -10.114  -4.489  -1.348  0.00  0.00    -0.079 C 
ATOM     14  C   UNL     1     -11.400  -5.272  -1.078  0.00  0.00    -0.019 C 
ATOM     15  C   UNL     1     -12.455  -4.326  -0.497  0.00  0.00    -0.004 C 
ATOM     16  C   UNL     1     -11.897  -3.672   0.770  0.00  0.00    -0.019 C 
ATOM     17  C   UNL     1     -10.592  -2.947   0.431  0.00  0.00    -0.079 C 
ATOM     18  H   UNL     1      -9.475  -4.646   0.581  0.00  0.00    -0.082 HD
ENDBRANCH  11  12
ENDBRANCH  10  11
ENDBRANCH   8  10
ENDBRANCH   3   6
BRANCH   1  19
ATOM     19  C   UNL     1      -1.966  -0.275  -1.663  0.00  0.00    +0.172 C 
BRANCH  19  20
ATOM     20  N   UNL     1      -1.474   0.010  -0.313  0.00  0.00    -0.277 N 
ATOM     21  C   UNL     1      -2.332   0.412   0.646  0.00  0.00    +0.307 C 
ATOM     22  O   UNL     1      -3.495   0.630   0.368  0.00  0.00    -0.252 OA
ATOM     23  N   UNL     1      -1.899   0.574   1.912  0.00  0.00    -0.269 N 
ATOM     24  H   UNL     1      -0.953   0.499   2.115  0.00  0.00    +0.156 HD
BRANCH  23  25
ATOM     25  C   UNL     1      -2.814   0.849   2.935  0.00  0.00    +0.036 A 
ATOM     26  C   UNL     1      -4.088   0.297   2.895  0.00  0.00    +0.025 A 
ATOM     27  C   UNL     1      -4.990   0.570   3.905  0.00  0.00    +0.023 A 
ATOM     28  C   UNL     1      -4.626   1.393   4.956  0.00  0.00    +0.059 A 
ATOM     29  C   UNL     1      -3.357   1.945   4.998  0.00  0.00    +0.061 A 
ATOM     30  C   UNL     1      -2.449   1.670   3.993  0.00  0.00    +0.044 A 
ATOM     31 CL   UNL     1      -2.904   2.978   6.318  0.00  0.00    -0.082 Cl
ATOM     32 CL   UNL     1      -5.763   1.735   6.223  0.00  0.00    -0.082 Cl
ENDBRANCH  23  25
BRANCH  20  34
ATOM     33  C   UNL     1       0.407  -1.551  -0.390  0.00  0.00    +0.028 C 
ATOM     34  C   UNL     1      -0.050  -0.143  -0.005  0.00  0.00    +0.072 C 
ATOM     35  C   UNL     1       0.756   0.889  -0.796  0.00  0.00    +0.028 C 
ENDBRANCH  20  34
ENDBRANCH  19  20
ENDBRANCH   1  19
TORSDOF 8
