REMARK  Name = ZINC20919131
REMARK  13 active torsions:
REMARK  status: ('A' for Active; 'I' for Inactive)
REMARK    1  A    between atoms: C_1  and  C_2
REMARK    2  A    between atoms: C_5  and  N_9
REMARK    3  A    between atoms: C_6  and  C_8
REMARK    4  A    between atoms: C_10  and  C_12
REMARK    5  A    between atoms: C_12  and  C_13
REMARK    6  A    between atoms: C_13  and  S_14
REMARK    7  A    between atoms: S_14  and  C_15
REMARK    8  A    between atoms: N_19  and  N_20
REMARK    9  A    between atoms: N_21  and  N_22
REMARK   10  A    between atoms: C_23  and  C_24
REMARK   11  A    between atoms: C_23  and  C_31
REMARK   12  A    between atoms: C_24  and  C_25
REMARK   13  A    between atoms: C_31  and  C_32
REMARK                            x       y       z     vdW  Elec       q    Type
REMARK                         _______ _______ _______ _____ _____    ______ ____
ROOT
ATOM      1  C   UNL     1      -2.073   1.789  -1.020  0.00  0.00    +0.210 A 
ATOM      2  N   UNL     1      -2.406   2.230  -2.209  0.00  0.00    -0.119 NA
ATOM      3  N   UNL     1      -1.251   2.253  -3.002  0.00  0.00    -0.109 NA
ATOM      4  C   UNL     1      -0.249   1.831  -2.269  0.00  0.00    +0.254 A 
ATOM      5  N   UNL     1      -0.733   1.527  -1.027  0.00  0.00    -0.211 N 
ATOM      6  N   UNL     1       1.070   1.710  -2.684  0.00  0.00    -0.204 N 
ATOM      7  H   UNL     1       1.835   1.340  -1.984  0.00  0.00    +0.177 HD
ENDROOT
BRANCH   5   8
ATOM      8  N   UNL     1      -0.002   1.052   0.024  0.00  0.00    -0.294 N 
ATOM      9  H   UNL     1       1.078   0.876  -0.091  0.00  0.00    +0.163 HD
ATOM     10  H   UNL     1      -0.493   0.845   0.987  0.00  0.00    +0.163 HD
ENDBRANCH   5   8
BRANCH   6  11
ATOM     11  N   UNL     1       1.429   2.058  -3.992  0.00  0.00    -0.188 NA
ATOM     12  C   UNL     1       2.645   1.946  -4.374  0.00  0.00    +0.045 C 
BRANCH  12  13
ATOM     13  C   UNL     1       3.692   1.440  -3.416  0.00  0.00    +0.088 C 
BRANCH  13  14
ATOM     14  C   UNL     1       3.786  -0.061  -3.522  0.00  0.00    -0.042 A 
ATOM     15  C   UNL     1       2.999  -0.861  -2.714  0.00  0.00    +0.004 A 
ATOM     16  C   UNL     1       3.081  -2.237  -2.814  0.00  0.00    +0.000 A 
ATOM     17  C   UNL     1       3.957  -2.813  -3.715  0.00  0.00    +0.000 A 
ATOM     18  C   UNL     1       4.748  -2.014  -4.518  0.00  0.00    +0.000 A 
ATOM     19  C   UNL     1       4.662  -0.637  -4.422  0.00  0.00    +0.004 A 
ENDBRANCH  13  14
ENDBRANCH  12  13
BRANCH  12  20
ATOM     20  C   UNL     1       3.031   2.321  -5.782  0.00  0.00    +0.088 C 
BRANCH  20  21
ATOM     21  C   UNL     1       3.961   3.506  -5.749  0.00  0.00    -0.042 A 
ATOM     22  C   UNL     1       3.449   4.789  -5.800  0.00  0.00    +0.004 A 
ATOM     23  C   UNL     1       4.302   5.876  -5.765  0.00  0.00    +0.000 A 
ATOM     24  C   UNL     1       5.668   5.680  -5.690  0.00  0.00    +0.000 A 
ATOM     25  C   UNL     1       6.181   4.397  -5.645  0.00  0.00    +0.000 A 
ATOM     26  C   UNL     1       5.328   3.310  -5.674  0.00  0.00    +0.004 A 
ENDBRANCH  20  21
ENDBRANCH  12  20
ENDBRANCH   6  11
BRANCH   1  27
ATOM     27  S   UNL     1      -3.164   1.572   0.347  0.00  0.00    -0.084 S 
BRANCH  27  28
ATOM     28  C   UNL     1      -4.779   2.092  -0.294  0.00  0.00    +0.086 C 
BRANCH  28  29
ATOM     29  C   UNL     1      -5.833   1.952   0.806  0.00  0.00    +0.107 C 
BRANCH  29  31
ATOM     30  N   UNL     1      -8.261   2.346   1.072  0.00  0.00    -0.285 N 
ATOM     31  C   UNL     1      -7.176   2.384   0.274  0.00  0.00    +0.218 C 
ATOM     32  O   UNL     1      -7.279   2.766  -0.873  0.00  0.00    -0.275 OA
ATOM     33  H   UNL     1      -8.187   1.915   2.081  0.00  0.00    +0.155 HD
BRANCH  30  38
ATOM     34  C   UNL     1     -13.213   4.408  -0.775  0.00  0.00    +0.044 C 
ATOM     35  C   UNL     1     -11.898   3.860  -0.284  0.00  0.00    -0.050 A 
ATOM     36  C   UNL     1     -10.712   4.326  -0.823  0.00  0.00    +0.005 A 
ATOM     37  C   UNL     1      -9.505   3.826  -0.376  0.00  0.00    +0.024 A 
ATOM     38  C   UNL     1      -9.482   2.854   0.616  0.00  0.00    +0.036 A 
ATOM     39  C   UNL     1     -10.675   2.384   1.151  0.00  0.00    -0.029 A 
ATOM     40  C   UNL     1     -11.879   2.892   0.703  0.00  0.00    +0.008 A 
ATOM     41  C   UNL     1     -10.655   1.325   2.223  0.00  0.00    +0.045 C 
ENDBRANCH  30  38
ENDBRANCH  29  31
ENDBRANCH  28  29
ENDBRANCH  27  28
ENDBRANCH   1  27
TORSDOF 11
