REMARK  Name = ZINC45552429
REMARK  11 active torsions:
REMARK  status: ('A' for Active; 'I' for Inactive)
REMARK    1  A    between atoms: C_1  and  C_2
REMARK    2  A    between atoms: C_2  and  C_3
REMARK    3  A    between atoms: C_2  and  N_4
REMARK    4  A    between atoms: N_4  and  C_5
REMARK    5  A    between atoms: C_5  and  C_6
REMARK    6  A    between atoms: C_5  and  C_7
REMARK    7  A    between atoms: C_5  and  C_18
REMARK    8  A    between atoms: C_7  and  C_8
REMARK    9  A    between atoms: C_8  and  C_9
REMARK   10  A    between atoms: C_9  and  S_10
REMARK   11  A    between atoms: S_10  and  C_11
REMARK                            x       y       z     vdW  Elec       q    Type
REMARK                         _______ _______ _______ _____ _____    ______ ____
ROOT
ATOM      1  C   UNL     1      -1.763  -0.585  -1.221  0.00  0.00    +0.007 C 
ATOM      2  C   UNL     1      -2.282   0.853  -1.297  0.00  0.00    -0.001 C 
ENDROOT
BRANCH   1   3
ATOM      3  C   UNL     1      -0.807  -0.835  -2.358  0.00  0.00    +0.199 C 
ATOM      4  O   UNL     1      -0.832  -0.122  -3.339  0.00  0.00    -0.278 OA
ATOM      5  N   UNL     1       0.075  -1.851  -2.286  0.00  0.00    -0.330 N 
ATOM      6  H   UNL     1       0.095  -2.421  -1.502  0.00  0.00    +0.145 HD
ATOM      7  H   UNL     1       0.691  -2.012  -3.018  0.00  0.00    +0.145 HD
ENDBRANCH   1   3
BRANCH   1   8
ATOM      8  N   UNL     1      -1.067  -0.787   0.057  0.00  0.00    +0.390 N 
ATOM      9  H   UNL     1      -0.622  -1.692   0.058  0.00  0.00    -0.084 HD
ATOM     10  H   UNL     1      -1.733  -0.739   0.814  0.00  0.00    -0.084 HD
BRANCH   8  12
ATOM     11  C   UNL     1       0.541   0.165   1.640  0.00  0.00    -0.014 C 
ATOM     12  C   UNL     1      -0.051   0.259   0.232  0.00  0.00    -0.077 C 
ATOM     13  C   UNL     1       1.061   0.067  -0.802  0.00  0.00    -0.014 C 
ENDBRANCH   8  12
ENDBRANCH   1   8
BRANCH   1  14
ATOM     14  C   UNL     1      -2.940  -1.557  -1.320  0.00  0.00    -0.003 C 
BRANCH  14  15
ATOM     15  C   UNL     1      -3.665  -1.346  -2.651  0.00  0.00    +0.010 C 
BRANCH  15  16
ATOM     16  C   UNL     1      -4.842  -2.319  -2.751  0.00  0.00    +0.074 C 
BRANCH  16  17
ATOM     17  S   UNL     1      -5.701  -2.069  -4.329  0.00  0.00    -0.124 S 
BRANCH  17  18
ATOM     18  C   UNL     1      -7.011  -3.246  -4.292  0.00  0.00    +0.022 A 
ATOM     19  C   UNL     1      -7.169  -4.079  -3.190  0.00  0.00    +0.016 A 
ATOM     20  C   UNL     1      -8.197  -5.000  -3.164  0.00  0.00    +0.001 A 
ATOM     21  C   UNL     1      -9.070  -5.095  -4.233  0.00  0.00    +0.001 A 
ATOM     22  C   UNL     1      -8.917  -4.269  -5.331  0.00  0.00    +0.016 A 
ATOM     23  C   UNL     1      -7.894  -3.341  -5.362  0.00  0.00    +0.031 A 
ATOM     24 BR   UNL     1      -7.690  -2.206  -6.860  0.00  0.00    -0.049 Br
ENDBRANCH  17  18
ENDBRANCH  16  17
ENDBRANCH  15  16
ENDBRANCH  14  15
ENDBRANCH   1  14
TORSDOF 8
