REMARK  Name = ZINC43307496
REMARK  9 active torsions:
REMARK  status: ('A' for Active; 'I' for Inactive)
REMARK    1  A    between atoms: C_1  and  C_2
REMARK    2  A    between atoms: C_7  and  N_8
REMARK    3  A    between atoms: N_11  and  N_12
REMARK    4  A    between atoms: N_15  and  C_16
REMARK    5  A    between atoms: C_16  and  C_17
REMARK    6  A    between atoms: C_17  and  C_19
REMARK    7  A    between atoms: C_17  and  N_26
REMARK    8  A    between atoms: N_26  and  C_27
REMARK    9  A    between atoms: N_26  and  C_28
REMARK                            x       y       z     vdW  Elec       q    Type
REMARK                         _______ _______ _______ _____ _____    ______ ____
ROOT
ATOM      1  N   UNL     1      -0.411   1.382   4.758  0.00  0.00    -0.217 N 
ATOM      2  C   UNL     1      -0.401   2.049   5.929  0.00  0.00    +0.316 C 
ATOM      3  O   UNL     1      -0.331   3.263   5.937  0.00  0.00    -0.251 OA
ATOM      4  N   UNL     1      -0.467   1.371   7.092  0.00  0.00    -0.299 N 
ATOM      5  H   UNL     1      -0.363   1.871   3.921  0.00  0.00    +0.174 HD
ATOM      6  H   UNL     1      -0.523   0.402   7.085  0.00  0.00    +0.150 HD
ENDROOT
BRANCH   1  10
ATOM      7  N   UNL     1      -0.436  -0.005   2.415  0.00  0.00    -0.268 N 
ATOM      8  C   UNL     1      -0.503  -0.683   3.578  0.00  0.00    +0.320 C 
ATOM      9  O   UNL     1      -0.573  -1.897   3.570  0.00  0.00    -0.251 OA
ATOM     10  N   UNL     1      -0.492  -0.016   4.749  0.00  0.00    -0.217 N 
ATOM     11  H   UNL     1      -0.310   0.957   2.422  0.00  0.00    +0.156 HD
ATOM     12  H   UNL     1      -0.540  -0.505   5.586  0.00  0.00    +0.174 HD
BRANCH   7  19
ATOM     13  C   UNL     1      -1.738   1.307   0.252  0.00  0.00    +0.045 C 
ATOM     14  C   UNL     1      -1.176  -0.084   0.117  0.00  0.00    -0.029 A 
ATOM     15  C   UNL     1      -1.280  -0.759  -1.083  0.00  0.00    +0.005 A 
ATOM     16  C   UNL     1      -0.764  -2.036  -1.208  0.00  0.00    +0.000 A 
ATOM     17  C   UNL     1      -0.144  -2.642  -0.130  0.00  0.00    +0.002 A 
ATOM     18  C   UNL     1      -0.037  -1.973   1.073  0.00  0.00    +0.023 A 
ATOM     19  C   UNL     1      -0.548  -0.688   1.199  0.00  0.00    +0.038 A 
ENDBRANCH   7  19
ENDBRANCH   1  10
BRANCH   4  20
ATOM     20  C   UNL     1      -0.455   2.096   8.364  0.00  0.00    +0.095 C 
BRANCH  20  21
ATOM     21  C   UNL     1      -0.414   1.095   9.521  0.00  0.00    -0.020 C 
BRANCH  21  22
ATOM     22  C   UNL     1       0.890   0.342   9.487  0.00  0.00    -0.041 A 
ATOM     23  C   UNL     1       0.965  -0.884   8.852  0.00  0.00    +0.003 A 
ATOM     24  C   UNL     1       2.161  -1.575   8.821  0.00  0.00    +0.000 A 
ATOM     25  C   UNL     1       3.285  -1.041   9.425  0.00  0.00    +0.001 A 
ATOM     26  C   UNL     1       3.212   0.184  10.060  0.00  0.00    +0.020 A 
ATOM     27  C   UNL     1       2.015   0.879  10.087  0.00  0.00    +0.043 A 
ATOM     28 CL   UNL     1       1.924   2.421  10.879  0.00  0.00    -0.083 Cl
ENDBRANCH  21  22
BRANCH  21  29
ATOM     29  N   UNL     1      -1.530   0.148   9.389  0.00  0.00    +0.382 N 
ATOM     30  C   UNL     1      -1.560  -0.739  10.559  0.00  0.00    -0.096 C 
ATOM     31  C   UNL     1      -2.795   0.891   9.306  0.00  0.00    -0.096 C 
ATOM     32  H   UNL     1      -1.407  -0.402   8.553  0.00  0.00    -0.082 HD
ENDBRANCH  21  29
ENDBRANCH  20  21
ENDBRANCH   4  20
TORSDOF 6
