REMARK  Name = ZINC35003271
REMARK  10 active torsions:
REMARK  status: ('A' for Active; 'I' for Inactive)
REMARK    1  A    between atoms: C_1  and  C_2
REMARK    2  A    between atoms: C_2  and  C_3
REMARK    3  A    between atoms: C_2  and  C_4
REMARK    4  A    between atoms: C_7  and  N_10
REMARK    5  A    between atoms: N_16  and  C_19
REMARK    6  A    between atoms: C_19  and  C_20
REMARK    7  A    between atoms: C_20  and  N_21
REMARK    8  A    between atoms: N_21  and  C_22
REMARK    9  A    between atoms: C_22  and  C_23
REMARK   10  A    between atoms: C_30  and  C_32
REMARK                            x       y       z     vdW  Elec       q    Type
REMARK                         _______ _______ _______ _____ _____    ______ ____
ROOT
ATOM      1  N   UNL     1       3.856  -2.135  -3.760  0.00  0.00    -0.269 N 
ATOM      2  C   UNL     1       5.022  -2.797  -3.901  0.00  0.00    +0.306 C 
ATOM      3  O   UNL     1       5.655  -3.128  -2.917  0.00  0.00    -0.252 OA
ATOM      4  N   UNL     1       5.486  -3.090  -5.131  0.00  0.00    -0.289 N 
ATOM      5  C   UNL     1       4.812  -2.580  -6.335  0.00  0.00    +0.091 C 
ATOM      6  C   UNL     1       4.570  -3.754  -7.290  0.00  0.00    -0.059 C 
ATOM      7  N   UNL     1       5.841  -4.441  -7.552  0.00  0.00    +0.383 N 
ATOM      8  C   UNL     1       6.350  -5.040  -6.312  0.00  0.00    -0.059 C 
ATOM      9  C   UNL     1       6.684  -3.925  -5.309  0.00  0.00    +0.091 C 
ATOM     10  H   UNL     1       3.308  -1.948  -4.538  0.00  0.00    +0.156 HD
ATOM     11  H   UNL     1       6.514  -3.777  -7.905  0.00  0.00    -0.082 HD
ENDROOT
BRANCH   1  15
ATOM     12  C   UNL     1       2.604  -0.898   0.016  0.00  0.00    -0.045 A 
ATOM     13  C   UNL     1       2.231  -0.179  -1.105  0.00  0.00    +0.006 A 
ATOM     14  C   UNL     1       2.644  -0.587  -2.358  0.00  0.00    +0.023 A 
ATOM     15  C   UNL     1       3.436  -1.720  -2.492  0.00  0.00    +0.035 A 
ATOM     16  C   UNL     1       3.809  -2.439  -1.364  0.00  0.00    +0.023 A 
ATOM     17  C   UNL     1       3.397  -2.023  -0.113  0.00  0.00    +0.006 A 
BRANCH  12  19
ATOM     18  C   UNL     1       2.669   0.964   1.653  0.00  0.00    +0.012 C 
ATOM     19  C   UNL     1       2.152  -0.450   1.382  0.00  0.00    +0.013 C 
ATOM     20  C   UNL     1       0.623  -0.453   1.439  0.00  0.00    +0.012 C 
ENDBRANCH  12  19
ENDBRANCH   1  15
BRANCH   7  21
ATOM     21  C   UNL     1       5.628  -5.496  -8.552  0.00  0.00    -0.059 C 
BRANCH  21  22
ATOM     22  C   UNL     1       6.971  -6.130  -8.918  0.00  0.00    +0.090 C 
BRANCH  22  23
ATOM     23  N   UNL     1       6.759  -7.183  -9.915  0.00  0.00    -0.292 N 
ATOM     24  C   UNL     1       6.415  -8.425  -9.521  0.00  0.00    +0.282 C 
ATOM     25  O   UNL     1       6.358  -9.327 -10.335  0.00  0.00    -0.267 OA
BRANCH  24  26
ATOM     26  C   UNL     1       6.109  -8.688  -8.111  0.00  0.00    +0.189 A 
ATOM     27  C   UNL     1       5.980  -9.919  -7.535  0.00  0.00    +0.054 A 
ATOM     28  C   UNL     1       5.689  -9.702  -6.179  0.00  0.00    +0.042 A 
ATOM     29  C   UNL     1       5.654  -8.364  -5.989  0.00  0.00    +0.196 A 
ATOM     30  O   UNL     1       5.913  -7.757  -7.155  0.00  0.00    -0.458 OA
ENDBRANCH  24  26
BRANCH  23  31
ATOM     31  C   UNL     1       6.920  -6.885 -11.340  0.00  0.00    +0.143 C 
BRANCH  31  32
ATOM     32  C   UNL     1       8.349  -7.137 -11.748  0.00  0.00    -0.030 A 
ATOM     33  C   UNL     1       9.282  -6.120 -11.661  0.00  0.00    +0.008 A 
ATOM     34  C   UNL     1      10.593  -6.351 -12.033  0.00  0.00    +0.038 A 
ATOM     35  C   UNL     1      10.972  -7.600 -12.494  0.00  0.00    +0.123 A 
ATOM     36  C   UNL     1      10.037  -8.618 -12.581  0.00  0.00    +0.038 A 
ATOM     37  C   UNL     1       8.728  -8.386 -12.202  0.00  0.00    +0.008 A 
ATOM     38  F   UNL     1      12.253  -7.826 -12.859  0.00  0.00    -0.205 F 
ENDBRANCH  31  32
ENDBRANCH  23  31
ENDBRANCH  22  23
ENDBRANCH  21  22
ENDBRANCH   7  21
TORSDOF 8
