REMARK  Name = ZINC29853769
REMARK  15 active torsions:
REMARK  status: ('A' for Active; 'I' for Inactive)
REMARK    1  A    between atoms: C_1  and  C_2
REMARK    2  A    between atoms: C_2  and  C_3
REMARK    3  A    between atoms: C_3  and  C_4
REMARK    4  A    between atoms: C_4  and  N_5
REMARK    5  A    between atoms: N_5  and  C_6
REMARK    6  A    between atoms: N_5  and  C_10
REMARK    7  A    between atoms: C_6  and  C_7
REMARK    8  A    between atoms: C_7  and  C_8
REMARK    9  A    between atoms: C_8  and  C_9
REMARK   10  A    between atoms: C_10  and  C_11
REMARK   11  A    between atoms: N_13  and  C_14
REMARK   12  A    between atoms: C_16  and  S_22
REMARK   13  A    between atoms: C_18  and  C_21
REMARK   14  A    between atoms: C_19  and  C_20
REMARK   15  A    between atoms: S_22  and  N_25
REMARK                            x       y       z     vdW  Elec       q    Type
REMARK                         _______ _______ _______ _____ _____    ______ ____
ROOT
ATOM      1  C   UNL     1      -3.947  -0.550   2.925  0.00  0.00    +0.201 C 
ATOM      2  O   UNL     1      -3.498  -0.819   1.831  0.00  0.00    -0.278 OA
ATOM      3  N   UNL     1      -3.660   0.635   3.499  0.00  0.00    -0.287 N 
ATOM      4  H   UNL     1      -3.996   0.845   4.525  0.00  0.00    +0.155 HD
ENDROOT
BRANCH   3   5
ATOM      5  C   UNL     1      -2.936   1.599   2.789  0.00  0.00    +0.038 A 
ATOM      6  C   UNL     1      -1.981   1.207   1.859  0.00  0.00    +0.052 A 
ATOM      7  C   UNL     1      -1.268   2.161   1.161  0.00  0.00    +0.107 A 
ATOM      8  C   UNL     1      -1.499   3.505   1.390  0.00  0.00    +0.032 A 
ATOM      9  C   UNL     1      -2.452   3.898   2.311  0.00  0.00    -0.044 A 
ATOM     10  C   UNL     1      -3.170   2.949   3.013  0.00  0.00    -0.026 A 
ATOM     11  C   UNL     1      -4.205   3.379   4.020  0.00  0.00    +0.046 C 
ATOM     12  C   UNL     1      -2.706   5.364   2.552  0.00  0.00    +0.044 C 
BRANCH   7  13
ATOM     13  S   UNL     1      -0.056   1.665  -0.018  0.00  0.00    +0.056 S 
ATOM     14  O   UNL     1       0.359   0.357   0.351  0.00  0.00    -0.153 OA
ATOM     15  O   UNL     1       0.857   2.747  -0.142  0.00  0.00    -0.153 OA
BRANCH  13  16
ATOM     16  N   UNL     1      -0.823   1.523  -1.479  0.00  0.00    -0.204 NA
ATOM     17  H   UNL     1      -0.098   1.214  -2.246  0.00  0.00    +0.144 HD
ATOM     18  H   UNL     1      -1.261   2.493  -1.759  0.00  0.00    +0.144 HD
ENDBRANCH  13  16
ENDBRANCH   7  13
ENDBRANCH   3   5
BRANCH   1  19
ATOM     19  C   UNL     1      -4.825  -1.542   3.643  0.00  0.00    +0.019 C 
BRANCH  19  20
ATOM     20  N   UNL     1      -4.872  -2.797   2.881  0.00  0.00    +0.385 N 
ATOM     21  H   UNL     1      -4.963  -2.541   1.815  0.00  0.00    -0.081 HD
BRANCH  20  22
ATOM     22  C   UNL     1      -3.633  -3.567   3.056  0.00  0.00    -0.078 C 
BRANCH  22  23
ATOM     23  C   UNL     1      -3.611  -4.731   2.064  0.00  0.00    -0.019 C 
BRANCH  23  25
ATOM     24  C   UNL     1      -2.299  -6.697   1.255  0.00  0.00    +0.004 C 
ATOM     25  C   UNL     1      -2.321  -5.533   2.247  0.00  0.00    -0.005 C 
ENDBRANCH  23  25
ENDBRANCH  22  23
ENDBRANCH  20  22
BRANCH  20  26
ATOM     26  C   UNL     1      -6.046  -3.596   3.254  0.00  0.00    -0.078 C 
BRANCH  26  27
ATOM     27  C   UNL     1      -7.298  -2.996   2.612  0.00  0.00    -0.019 C 
BRANCH  27  28
ATOM     28  C   UNL     1      -8.534  -3.761   3.090  0.00  0.00    -0.005 C 
ATOM     29  C   UNL     1      -9.786  -3.160   2.447  0.00  0.00    +0.004 C 
ENDBRANCH  27  28
ENDBRANCH  26  27
ENDBRANCH  20  26
ENDBRANCH  19  20
ENDBRANCH   1  19
TORSDOF 11
