REMARK  Name = ZINC44165476
REMARK  9 active torsions:
REMARK  status: ('A' for Active; 'I' for Inactive)
REMARK    1  A    between atoms: C_1  and  C_2
REMARK    2  A    between atoms: C_2  and  N_3
REMARK    3  A    between atoms: N_3  and  C_4
REMARK    4  A    between atoms: N_3  and  C_6
REMARK    5  A    between atoms: C_4  and  C_5
REMARK    6  A    between atoms: C_9  and  C_12
REMARK    7  A    between atoms: C_17  and  C_20
REMARK    8  A    between atoms: N_22  and  C_23
REMARK    9  A    between atoms: C_23  and  C_24
REMARK                            x       y       z     vdW  Elec       q    Type
REMARK                         _______ _______ _______ _____ _____    ______ ____
ROOT
ATOM      1  C   UNL     1      -3.990  -1.484   4.922  0.00  0.00    -0.030 C 
ATOM      2  C   UNL     1      -3.909  -2.986   5.217  0.00  0.00    +0.058 C 
ATOM      3  S   UNL     1      -4.679  -3.292   6.838  0.00  0.00    -0.163 S 
ATOM      4  C   UNL     1      -6.271  -2.422   6.692  0.00  0.00    +0.062 C 
ATOM      5  C   UNL     1      -5.999  -1.004   6.176  0.00  0.00    +0.027 C 
ATOM      6  N   UNL     1      -5.392  -1.069   4.845  0.00  0.00    +0.392 N 
ATOM      7  H   UNL     1      -5.444  -0.158   4.414  0.00  0.00    -0.084 HD
ATOM      8  H   UNL     1      -5.902  -1.730   4.280  0.00  0.00    -0.084 HD
ENDROOT
BRANCH   1  12
ATOM      9  C   UNL     1      -2.059  -0.664   1.198  0.00  0.00    +0.030 A 
ATOM     10  C   UNL     1      -1.392  -0.431   2.395  0.00  0.00    +0.023 A 
ATOM     11  C   UNL     1      -2.019  -0.697   3.596  0.00  0.00    +0.004 A 
ATOM     12  C   UNL     1      -3.309  -1.194   3.609  0.00  0.00    -0.060 A 
ATOM     13  C   UNL     1      -3.976  -1.428   2.420  0.00  0.00    +0.004 A 
ATOM     14  C   UNL     1      -3.357  -1.159   1.215  0.00  0.00    +0.023 A 
BRANCH   9  15
ATOM     15  N   UNL     1      -1.428  -0.396  -0.018  0.00  0.00    -0.330 N 
BRANCH  15  17
ATOM     16  C   UNL     1      -0.096   1.655  -0.009  0.00  0.00    +0.024 C 
ATOM     17  C   UNL     1      -0.059   0.126  -0.034  0.00  0.00    +0.102 C 
ENDBRANCH  15  17
BRANCH  15  18
ATOM     18  C   UNL     1      -2.134  -0.637  -1.279  0.00  0.00    +0.102 C 
ATOM     19  C   UNL     1      -1.867  -2.068  -1.748  0.00  0.00    +0.024 C 
ENDBRANCH  15  18
ENDBRANCH   9  15
ENDBRANCH   1  12
BRANCH   5  20
ATOM     20  C   UNL     1      -5.059  -0.299   7.121  0.00  0.00    +0.200 C 
ATOM     21  O   UNL     1      -4.226   0.468   6.687  0.00  0.00    -0.278 OA
ATOM     22  N   UNL     1      -5.146  -0.521   8.447  0.00  0.00    -0.314 N 
ATOM     23  H   UNL     1      -5.812  -1.134   8.794  0.00  0.00    +0.149 HD
BRANCH  22  24
ATOM     24  C   UNL     1      -4.232   0.164   9.366  0.00  0.00    +0.135 C 
BRANCH  24  25
ATOM     25  C   UNL     1      -4.540  -0.261  10.803  0.00  0.00    +0.135 C 
ATOM     26  C   UNL     1      -3.608   0.479  11.794  0.00  0.00    +0.035 C 
ATOM     27  C   UNL     1      -4.461   0.435  13.091  0.00  0.00    +0.031 C 
ATOM     28  C   UNL     1      -5.899   0.547  12.541  0.00  0.00    +0.160 C 
ATOM     29  O   UNL     1      -5.871   0.139  11.167  0.00  0.00    -0.375 OA
ENDBRANCH  24  25
ENDBRANCH  22  24
ENDBRANCH   5  20
TORSDOF 7
