REMARK  Name = ZINC66532084
REMARK  10 active torsions:
REMARK  status: ('A' for Active; 'I' for Inactive)
REMARK    1  A    between atoms: C_1  and  C_2
REMARK    2  A    between atoms: C_7  and  C_28
REMARK    3  A    between atoms: N_9  and  C_10
REMARK    4  A    between atoms: C_10  and  C_11
REMARK    5  A    between atoms: N_13  and  C_14
REMARK    6  A    between atoms: C_14  and  C_15
REMARK    7  A    between atoms: C_18  and  N_21
REMARK    8  A    between atoms: N_24  and  C_25
REMARK    9  A    between atoms: C_25  and  C_26
REMARK   10  A    between atoms: C_25  and  C_27
REMARK                            x       y       z     vdW  Elec       q    Type
REMARK                         _______ _______ _______ _____ _____    ______ ____
ROOT
ATOM      1  C   UNL     1       5.135  -0.582   3.835  0.00  0.00    +0.139 C 
ENDROOT
BRANCH   1   2
ATOM      2  C   UNL     1       6.512   0.032   3.858  0.00  0.00    -0.030 A 
ATOM      3  C   UNL     1       7.564  -0.612   3.233  0.00  0.00    +0.007 A 
ATOM      4  C   UNL     1       8.827  -0.052   3.252  0.00  0.00    +0.023 A 
ATOM      5  C   UNL     1       9.038   1.158   3.900  0.00  0.00    +0.035 A 
ATOM      6  C   UNL     1       7.979   1.802   4.527  0.00  0.00    +0.023 A 
ATOM      7  C   UNL     1       6.718   1.239   4.499  0.00  0.00    +0.007 A 
BRANCH   5   8
ATOM      8  N   UNL     1      10.316   1.728   3.921  0.00  0.00    -0.269 N 
ATOM      9  C   UNL     1      11.405   0.938   4.006  0.00  0.00    +0.304 C 
ATOM     10  O   UNL     1      11.282  -0.272   3.977  0.00  0.00    -0.253 OA
ATOM     11  N   UNL     1      12.630   1.488   4.123  0.00  0.00    -0.297 N 
ATOM     12  H   UNL     1      10.419   2.691   3.875  0.00  0.00    +0.156 HD
ATOM     13  H   UNL     1      12.728   2.453   4.147  0.00  0.00    +0.151 HD
BRANCH  11  14
ATOM     14  C   UNL     1      13.813   0.629   4.216  0.00  0.00    +0.068 C 
ATOM     15  C   UNL     1      15.041   1.398   3.725  0.00  0.00    +0.027 C 
ATOM     16  C   UNL     1      14.024   0.206   5.671  0.00  0.00    +0.027 C 
ENDBRANCH  11  14
ENDBRANCH   5   8
ENDBRANCH   1   2
BRANCH   1  19
ATOM     17  C   UNL     1       3.150  -0.530   2.424  0.00  0.00    +0.197 C 
ATOM     18  O   UNL     1       2.617  -1.299   3.196  0.00  0.00    -0.278 OA
ATOM     19  N   UNL     1       4.410  -0.110   2.654  0.00  0.00    -0.313 N 
ATOM     20  H   UNL     1       4.836   0.505   2.036  0.00  0.00    +0.149 HD
BRANCH  17  21
ATOM     21  C   UNL     1       2.403  -0.044   1.208  0.00  0.00    +0.019 C 
BRANCH  21  28
ATOM     22  C   UNL     1       1.863  -2.494  -0.054  0.00  0.00    -0.013 C 
ATOM     23  C   UNL     1       1.085  -2.046   1.185  0.00  0.00    -0.071 C 
ATOM     24  C   UNL     1      -0.338  -2.605   1.123  0.00  0.00    -0.016 C 
ATOM     25  C   UNL     1      -1.113  -2.155   2.365  0.00  0.00    -0.003 C 
ATOM     26  C   UNL     1      -1.094  -0.625   2.439  0.00  0.00    -0.016 C 
ATOM     27  C   UNL     1       0.357  -0.139   2.453  0.00  0.00    -0.071 C 
ATOM     28  N   UNL     1       1.035  -0.579   1.228  0.00  0.00    +0.389 N 
ATOM     29  C   UNL     1       0.382   1.389   2.527  0.00  0.00    -0.013 C 
ATOM     30  H   UNL     1       0.531  -0.237   0.423  0.00  0.00    -0.080 HD
ENDBRANCH  21  28
ENDBRANCH  17  21
ENDBRANCH   1  19
TORSDOF 6
