REMARK  Name = ZINC06919969
REMARK  14 active torsions:
REMARK  status: ('A' for Active; 'I' for Inactive)
REMARK    1  A    between atoms: C_1  and  C_2
REMARK    2  A    between atoms: C_2  and  C_3
REMARK    3  A    between atoms: C_3  and  C_4
REMARK    4  A    between atoms: C_4  and  N_61
REMARK    5  A    between atoms: C_5  and  N_61
REMARK    6  A    between atoms: C_6  and  C_7
REMARK    7  A    between atoms: C_6  and  N_61
REMARK    8  A    between atoms: C_7  and  C_8
REMARK    9  A    between atoms: C_8  and  N_9
REMARK   10  A    between atoms: C_10  and  C_12
REMARK   11  A    between atoms: C_21  and  C_24
REMARK   12  A    between atoms: C_24  and  C_26
REMARK   13  A    between atoms: C_24  and  C_27
REMARK   14  A    between atoms: C_27  and  C_28
REMARK                            x       y       z     vdW  Elec       q    Type
REMARK                         _______ _______ _______ _____ _____    ______ ____
ROOT
ATOM      1  C   UNL     1       0.001   4.162   0.032  0.00  0.00    +0.039 A 
ATOM      2  C   UNL     1      -1.211   3.466   0.037  0.00  0.00    +0.015 A 
ATOM      3  C   UNL     1      -1.216   2.088   0.031  0.00  0.00    +0.025 A 
ATOM      4  C   UNL     1      -0.017   1.392   0.010  0.00  0.00    +0.049 A 
ATOM      5  C   UNL     1       1.202   2.080   0.002  0.00  0.00    +0.055 A 
ATOM      6  C   UNL     1       1.211   3.460   0.015  0.00  0.00    +0.038 A 
ATOM      7  N   UNL     1       2.402   1.358  -0.022  0.00  0.00    -0.282 N 
ATOM      8  C   UNL     1       2.414   0.038   0.246  0.00  0.00    +0.238 C 
ATOM      9  O   UNL     1       3.457  -0.578   0.178  0.00  0.00    -0.273 OA
ATOM     10  C   UNL     1       1.147  -0.681   0.629  0.00  0.00    +0.160 C 
ATOM     11  N   UNL     1       0.002  -0.004   0.002  0.00  0.00    -0.331 N 
ATOM     12  H   UNL     1       3.232   1.813  -0.233  0.00  0.00    +0.155 HD
ATOM     13  H   UNL     1      -0.718  -0.511  -0.404  0.00  0.00    +0.147 HD
ENDROOT
BRANCH   1  15
ATOM     14  N   UNL     1      -1.161   6.314   0.063  0.00  0.00    -0.311 N 
ATOM     15  C   UNL     1       0.005   5.637   0.046  0.00  0.00    +0.244 C 
ATOM     16  O   UNL     1       1.059   6.242   0.043  0.00  0.00    -0.270 OA
ATOM     17  H   UNL     1      -2.002   5.831   0.066  0.00  0.00    +0.149 HD
BRANCH  14  18
ATOM     18  C   UNL     1      -1.157   7.779   0.077  0.00  0.00    +0.102 C 
BRANCH  18  19
ATOM     19  C   UNL     1      -2.598   8.292   0.095  0.00  0.00    +0.000 C 
BRANCH  19  20
ATOM     20  C   UNL     1      -2.594   9.822   0.110  0.00  0.00    -0.078 C 
BRANCH  20  22
ATOM     21  C   UNL     1      -4.672   9.979  -1.124  0.00  0.00    -0.096 C 
ATOM     22  N   UNL     1      -3.992  10.302   0.148  0.00  0.00    +0.378 N 
ATOM     23  H   UNL     1      -4.484   9.833   0.918  0.00  0.00    -0.082 HD
BRANCH  22  24
ATOM     24  C   UNL     1      -4.018  11.761   0.379  0.00  0.00    -0.079 C 
BRANCH  24  25
ATOM     25  C   UNL     1      -5.463  12.194   0.637  0.00  0.00    -0.019 C 
BRANCH  25  27
ATOM     26  C   UNL     1      -6.950  14.133   1.158  0.00  0.00    +0.004 C 
ATOM     27  C   UNL     1      -5.505  13.701   0.900  0.00  0.00    -0.005 C 
ENDBRANCH  25  27
ENDBRANCH  24  25
ENDBRANCH  22  24
ENDBRANCH  20  22
ENDBRANCH  19  20
ENDBRANCH  18  19
ENDBRANCH  14  18
ENDBRANCH   1  15
BRANCH  10  28
ATOM     28  C   UNL     1       0.984  -0.659   2.150  0.00  0.00    +0.015 C 
ATOM     29  C   UNL     1      -0.308  -1.380   2.536  0.00  0.00    +0.010 C 
BRANCH  28  30
ATOM     30  C   UNL     1       2.176  -1.364   2.801  0.00  0.00    +0.002 C 
ATOM     31  C   UNL     1       2.078  -1.233   4.322  0.00  0.00    +0.004 C 
ENDBRANCH  28  30
ENDBRANCH  10  28
TORSDOF 10
