REMARK  Name = ZINC43563533
REMARK  6 active torsions:
REMARK  status: ('A' for Active; 'I' for Inactive)
REMARK    1  A    between atoms: C_1  and  C_2
REMARK    2  A    between atoms: C_2  and  C_4
REMARK    3  A    between atoms: C_2  and  N_17
REMARK    4  A    between atoms: N_9  and  C_10
REMARK    5  A    between atoms: C_10  and  C_11
REMARK    6  A    between atoms: C_21  and  O_24
REMARK                            x       y       z     vdW  Elec       q    Type
REMARK                         _______ _______ _______ _____ _____    ______ ____
ROOT
ATOM      1  C   UNL     1       0.793  -0.386  -1.223  0.00  0.00    +0.207 C 
ATOM      2  O   UNL     1       1.869  -0.931  -1.103  0.00  0.00    -0.277 OA
ATOM      3  N   UNL     1       0.304  -0.121  -2.450  0.00  0.00    -0.242 N 
ATOM      4  C   UNL     1       1.011  -0.463  -3.546  0.00  0.00    +0.306 C 
ATOM      5  O   UNL     1       2.090  -1.009  -3.426  0.00  0.00    -0.252 OA
ATOM      6  N   UNL     1       0.522  -0.198  -4.773  0.00  0.00    -0.297 N 
ATOM      7  H   UNL     1      -0.557   0.315  -2.546  0.00  0.00    +0.159 HD
ATOM      8  H   UNL     1      -0.339   0.238  -4.869  0.00  0.00    +0.150 HD
ENDROOT
BRANCH   1  10
ATOM      9  C   UNL     1       0.360   1.425   0.416  0.00  0.00    -0.004 C 
ATOM     10  C   UNL     1       0.002  -0.004   0.002  0.00  0.00    +0.017 C 
BRANCH  10  11
ATOM     11  N   UNL     1       0.323  -0.926   1.099  0.00  0.00    +0.389 N 
ATOM     12  C   UNL     1      -0.004  -2.299   0.694  0.00  0.00    -0.078 C 
ATOM     13  C   UNL     1       0.404  -3.272   1.802  0.00  0.00    -0.016 C 
ATOM     14  C   UNL     1      -0.355  -2.923   3.086  0.00  0.00    +0.027 C 
ATOM     15  C   UNL     1      -0.065  -1.466   3.458  0.00  0.00    +0.098 C 
ATOM     16  C   UNL     1      -0.455  -0.559   2.288  0.00  0.00    -0.046 C 
ATOM     17  H   UNL     1       1.308  -0.866   1.311  0.00  0.00    -0.081 HD
BRANCH  15  18
ATOM     18  O   UNL     1      -0.825  -1.109   4.614  0.00  0.00    -0.394 OA
ATOM     19  H   UNL     1      -0.631  -1.646   5.394  0.00  0.00    +0.210 HD
ENDBRANCH  15  18
ENDBRANCH  10  11
ENDBRANCH   1  10
BRANCH   6  20
ATOM     20  C   UNL     1       1.291  -0.569  -5.964  0.00  0.00    +0.137 C 
BRANCH  20  21
ATOM     21  C   UNL     1       0.517  -0.161  -7.219  0.00  0.00    +0.135 C 
ATOM     22  C   UNL     1       1.261  -0.655  -8.477  0.00  0.00    +0.035 C 
ATOM     23  C   UNL     1       1.072   0.533  -9.460  0.00  0.00    +0.031 C 
ATOM     24  C   UNL     1       1.102   1.733  -8.481  0.00  0.00    +0.160 C 
ATOM     25  O   UNL     1       0.434   1.267  -7.295  0.00  0.00    -0.375 OA
ENDBRANCH  20  21
ENDBRANCH   6  20
TORSDOF 5
