REMARK  Name = ZINC43285157
REMARK  8 active torsions:
REMARK  status: ('A' for Active; 'I' for Inactive)
REMARK    1  A    between atoms: C_1  and  C_2
REMARK    2  A    between atoms: C_2  and  C_3
REMARK    3  A    between atoms: C_3  and  C_5
REMARK    4  A    between atoms: C_3  and  N_21
REMARK    5  A    between atoms: C_5  and  C_7
REMARK    6  A    between atoms: C_5  and  N_13
REMARK    7  A    between atoms: C_16  and  C_19
REMARK    8  A    between atoms: C_19  and  O_20
REMARK                            x       y       z     vdW  Elec       q    Type
REMARK                         _______ _______ _______ _____ _____    ______ ____
ROOT
ATOM      1  C   UNL     1      -1.413  -2.059   0.130  0.00  0.00    +0.079 C 
ENDROOT
BRANCH   1   2
ATOM      2  C   UNL     1      -2.665  -2.847  -0.160  0.00  0.00    +0.006 A 
ATOM      3  C   UNL     1      -3.157  -3.258  -1.354  0.00  0.00    +0.028 A 
ATOM      4  C   UNL     1      -4.337  -3.978  -1.381  0.00  0.00    +0.025 A 
ATOM      5  C   UNL     1      -4.967  -4.251  -0.211  0.00  0.00    +0.060 A 
ATOM      6  S   UNL     1      -3.880  -3.487   0.981  0.00  0.00    -0.099 S 
ATOM      7 BR   UNL     1      -5.062  -4.573  -3.023  0.00  0.00    -0.050 Br
ENDBRANCH   1   2
BRANCH   1   8
ATOM      8  N   UNL     1      -0.644  -2.732   1.186  0.00  0.00    -0.296 NA
ATOM      9  C   UNL     1      -1.362  -2.692   2.466  0.00  0.00    +0.085 C 
ATOM     10  C   UNL     1      -0.473  -3.270   3.569  0.00  0.00    +0.021 C 
ATOM     11  C   UNL     1      -0.102  -4.713   3.215  0.00  0.00    +0.017 C 
ATOM     12  C   UNL     1       0.601  -4.732   1.855  0.00  0.00    +0.021 C 
ATOM     13  C   UNL     1      -0.319  -4.112   0.802  0.00  0.00    +0.085 C 
BRANCH  11  14
ATOM     14  C   UNL     1       0.837  -5.277   4.284  0.00  0.00    +0.159 C 
BRANCH  14  15
ATOM     15  O   UNL     1       1.089  -6.657   4.016  0.00  0.00    -0.395 OA
ATOM     16  H   UNL     1       1.679  -7.081   4.655  0.00  0.00    +0.209 HD
ENDBRANCH  14  15
ENDBRANCH  11  14
ENDBRANCH   1   8
BRANCH   1  17
ATOM     17  C   UNL     1      -1.793  -0.651   0.594  0.00  0.00    -0.053 C 
BRANCH  17  18
ATOM     18  N   UNL     1      -2.562   0.021  -0.461  0.00  0.00    +0.381 N 
ATOM     19  H   UNL     1      -2.001   0.083  -1.298  0.00  0.00    -0.090 HD
ATOM     20  H   UNL     1      -3.400  -0.506  -0.655  0.00  0.00    -0.090 HD
ATOM     21  H   UNL     1      -2.812   0.950  -0.155  0.00  0.00    -0.090 HD
ENDBRANCH  17  18
BRANCH  17  23
ATOM     22  C   UNL     1      -0.901   1.512   1.470  0.00  0.00    +0.002 C 
ATOM     23  C   UNL     1      -0.522   0.149   0.889  0.00  0.00    -0.018 C 
ENDBRANCH  17  23
ENDBRANCH   1  17
TORSDOF 7
