REMARK  Name = ZINC02316646
REMARK  8 active torsions:
REMARK  status: ('A' for Active; 'I' for Inactive)
REMARK    1  A    between atoms: C_1  and  C_2
REMARK    2  A    between atoms: C_2  and  N_50
REMARK    3  A    between atoms: C_8  and  N_13
REMARK    4  A    between atoms: C_9  and  C_10
REMARK    5  A    between atoms: N_13  and  C_14
REMARK    6  A    between atoms: C_14  and  N_16
REMARK    7  A    between atoms: C_17  and  C_19
REMARK    8  A    between atoms: C_20  and  C_21
REMARK                            x       y       z     vdW  Elec       q    Type
REMARK                         _______ _______ _______ _____ _____    ______ ____
ROOT
ATOM      1  C   UNL     1      -3.691  10.175   0.517  0.00  0.00    -0.074 C 
ATOM      2  C   UNL     1      -4.332   8.857   0.074  0.00  0.00    +0.018 C 
ATOM      3  C   UNL     1      -3.251   7.783   0.060  0.00  0.00    -0.027 A 
ATOM      4  C   UNL     1      -1.945   8.136   0.055  0.00  0.00    -0.021 A 
ATOM      5  S   UNL     1      -1.064   6.603   0.042  0.00  0.00    -0.079 S 
ATOM      6  C   UNL     1      -2.407   5.508   0.043  0.00  0.00    +0.084 A 
ATOM      7  C   UNL     1      -3.507   6.356   0.048  0.00  0.00    +0.068 A 
ATOM      8  C   UNL     1      -1.401   9.530   0.058  0.00  0.00    -0.035 C 
ATOM      9  N   UNL     1      -2.504  10.448  -0.319  0.00  0.00    +0.383 N 
ATOM     10  H   UNL     1      -2.746  10.293  -1.304  0.00  0.00    -0.081 HD
ENDROOT
BRANCH   7  11
ATOM     11  C   UNL     1      -4.875   5.828   0.043  0.00  0.00    +0.244 C 
ATOM     12  O   UNL     1      -5.444   5.603   1.095  0.00  0.00    -0.270 OA
ATOM     13  N   UNL     1      -5.503   5.592  -1.126  0.00  0.00    -0.325 N 
ATOM     14  H   UNL     1      -5.049   5.771  -1.965  0.00  0.00    +0.145 HD
ATOM     15  H   UNL     1      -6.408   5.243  -1.129  0.00  0.00    +0.145 HD
ENDBRANCH   7  11
BRANCH   9  17
ATOM     16  C   UNL     1      -1.806  12.151   1.331  0.00  0.00    -0.017 C 
ATOM     17  C   UNL     1      -2.074  11.852  -0.145  0.00  0.00    -0.082 C 
ENDBRANCH   9  17
BRANCH   6  18
ATOM     18  N   UNL     1      -2.389   4.122   0.036  0.00  0.00    -0.291 N 
ATOM     19  H   UNL     1      -3.222   3.626   0.037  0.00  0.00    +0.154 HD
BRANCH  18  20
ATOM     20  C   UNL     1      -1.212   3.464   0.027  0.00  0.00    +0.141 C 
ATOM     21  S   UNL     1       0.259   4.340   0.024  0.00  0.00    -0.018 S 
BRANCH  20  22
ATOM     22  N   UNL     1      -1.194   2.116   0.019  0.00  0.00    -0.264 N 
ATOM     23  C   UNL     1      -0.018   1.458   0.010  0.00  0.00    +0.242 C 
ATOM     24  O   UNL     1       1.028   2.081   0.003  0.00  0.00    -0.270 OA
ATOM     25  H   UNL     1      -2.027   1.620   0.021  0.00  0.00    +0.157 HD
BRANCH  23  26
ATOM     26  C   UNL     1       0.002  -0.004   0.002  0.00  0.00    +0.068 C 
ATOM     27  C   UNL     1       1.179  -0.663  -0.013  0.00  0.00    +0.013 C 
BRANCH  27  28
ATOM     28  C   UNL     1       1.199  -2.134  -0.021  0.00  0.00    -0.025 A 
ATOM     29  C   UNL     1      -0.000  -2.853  -0.007  0.00  0.00    +0.009 A 
ATOM     30  C   UNL     1       0.026  -4.231  -0.021  0.00  0.00    +0.016 A 
ATOM     31  C   UNL     1       1.237  -4.904  -0.036  0.00  0.00    +0.018 A 
ATOM     32  C   UNL     1       2.429  -4.199  -0.044  0.00  0.00    +0.016 A 
ATOM     33  C   UNL     1       2.418  -2.820  -0.036  0.00  0.00    +0.009 A 
ATOM     34 BR   UNL     1       1.263  -6.795  -0.046  0.00  0.00    -0.050 Br
ENDBRANCH  27  28
ENDBRANCH  23  26
ENDBRANCH  20  22
ENDBRANCH  18  20
ENDBRANCH   6  18
TORSDOF 7
