REMARK  Name = ZINC48442955
REMARK  10 active torsions:
REMARK  status: ('A' for Active; 'I' for Inactive)
REMARK    1  A    between atoms: C_1  and  C_2
REMARK    2  A    between atoms: C_6  and  C_19
REMARK    3  A    between atoms: C_7  and  N_8
REMARK    4  A    between atoms: N_8  and  C_9
REMARK    5  A    between atoms: C_9  and  C_10
REMARK    6  A    between atoms: N_12  and  C_13
REMARK    7  A    between atoms: C_13  and  C_15
REMARK    8  A    between atoms: C_13  and  C_16
REMARK    9  A    between atoms: C_16  and  O_17
REMARK   10  A    between atoms: O_17  and  C_18
REMARK                            x       y       z     vdW  Elec       q    Type
REMARK                         _______ _______ _______ _____ _____    ______ ____
ROOT
ATOM      1  N   UNL     1       1.370  -0.529   2.220  0.00  0.00    -0.335 N 
ATOM      2  H   UNL     1       1.996   0.207   2.145  0.00  0.00    +0.147 HD
ENDROOT
BRANCH   1   9
ATOM      3  C   UNL     1       0.795   1.414   0.223  0.00  0.00    +0.046 C 
ATOM      4  C   UNL     1       0.319  -0.012   0.110  0.00  0.00    -0.028 A 
ATOM      5  C   UNL     1      -0.415  -0.410  -0.990  0.00  0.00    +0.020 A 
ATOM      6  C   UNL     1      -0.853  -1.718  -1.095  0.00  0.00    +0.018 A 
ATOM      7  C   UNL     1      -0.557  -2.631  -0.098  0.00  0.00    +0.020 A 
ATOM      8  C   UNL     1       0.176  -2.239   1.004  0.00  0.00    -0.028 A 
ATOM      9  C   UNL     1       0.622  -0.927   1.109  0.00  0.00    +0.033 A 
ATOM     10  C   UNL     1       0.497  -3.234   2.090  0.00  0.00    +0.046 C 
ATOM     11 BR   UNL     1      -1.858  -2.259  -2.602  0.00  0.00    -0.050 Br
ENDBRANCH   1   9
BRANCH   1  12
ATOM     12  C   UNL     1       1.206  -1.223   3.500  0.00  0.00    +0.197 C 
BRANCH  12  13
ATOM     13  C   UNL     1       1.934  -0.465   4.580  0.00  0.00    +0.230 C 
ATOM     14  O   UNL     1       2.530   0.556   4.307  0.00  0.00    -0.274 OA
ATOM     15  N   UNL     1       1.923  -0.920   5.848  0.00  0.00    -0.309 N 
ATOM     16  H   UNL     1       1.446  -1.736   6.066  0.00  0.00    +0.149 HD
BRANCH  15  17
ATOM     17  C   UNL     1       2.630  -0.182   6.898  0.00  0.00    +0.095 C 
ATOM     18  C   UNL     1       1.725   0.925   7.442  0.00  0.00    +0.030 C 
BRANCH  17  19
ATOM     19  C   UNL     1       3.003  -1.140   8.031  0.00  0.00    +0.181 C 
BRANCH  19  20
ATOM     20  O   UNL     1       1.812  -1.631   8.651  0.00  0.00    -0.381 OA
ATOM     21  C   UNL     1       2.050  -2.538   9.729  0.00  0.00    +0.194 C 
ENDBRANCH  19  20
ENDBRANCH  17  19
ENDBRANCH  15  17
ENDBRANCH  12  13
ENDBRANCH   1  12
TORSDOF 6
