REMARK  Name = ZINC36824782
REMARK  12 active torsions:
REMARK  status: ('A' for Active; 'I' for Inactive)
REMARK    1  A    between atoms: C_1  and  C_2
REMARK    2  A    between atoms: C_2  and  O_3
REMARK    3  A    between atoms: O_3  and  C_4
REMARK    4  A    between atoms: C_6  and  C_17
REMARK    5  A    between atoms: C_9  and  O_10
REMARK    6  A    between atoms: O_10  and  C_11
REMARK    7  A    between atoms: C_11  and  C_12
REMARK    8  A    between atoms: C_12  and  C_13
REMARK    9  A    between atoms: C_17  and  N_18
REMARK   10  A    between atoms: N_18  and  C_19
REMARK   11  A    between atoms: C_19  and  C_20
REMARK   12  A    between atoms: C_19  and  C_21
REMARK                            x       y       z     vdW  Elec       q    Type
REMARK                         _______ _______ _______ _____ _____    ______ ____
ROOT
ATOM      1  C   UNL     1       0.802  -1.825   1.306  0.00  0.00    +0.163 A 
ATOM      2  C   UNL     1       0.260  -2.673   0.352  0.00  0.00    +0.051 A 
ATOM      3  C   UNL     1       0.371  -4.043   0.502  0.00  0.00    -0.060 A 
ATOM      4  C   UNL     1       1.022  -4.571   1.602  0.00  0.00    +0.021 A 
ATOM      5  C   UNL     1       1.565  -3.730   2.557  0.00  0.00    +0.063 A 
ATOM      6  C   UNL     1       1.462  -2.356   2.409  0.00  0.00    +0.176 A 
ATOM      7 BR   UNL     1       2.453  -4.456   4.061  0.00  0.00    -0.046 Br
ENDROOT
BRANCH   1   8
ATOM      8  O   UNL     1       0.693  -0.477   1.160  0.00  0.00    -0.489 OA
BRANCH   8  10
ATOM      9  C   UNL     1      -0.019   1.526   0.010  0.00  0.00    +0.048 C 
ATOM     10  C   UNL     1       0.002  -0.004   0.002  0.00  0.00    +0.226 C 
ENDBRANCH   8  10
ENDBRANCH   1   8
BRANCH   6  11
ATOM     11  O   UNL     1       2.000  -1.528   3.345  0.00  0.00    -0.487 OA
BRANCH  11  12
ATOM     12  C   UNL     1       1.161  -1.151   4.438  0.00  0.00    +0.238 C 
BRANCH  12  13
ATOM     13  C   UNL     1       1.933  -0.225   5.379  0.00  0.00    +0.136 C 
BRANCH  13  14
ATOM     14  C   UNL     1       1.048   0.172   6.532  0.00  0.00    +0.214 C 
ATOM     15  O   UNL     1      -0.090  -0.244   6.595  0.00  0.00    -0.276 OA
ATOM     16  N   UNL     1       1.519   0.991   7.493  0.00  0.00    -0.329 N 
ATOM     17  H   UNL     1       2.429   1.324   7.443  0.00  0.00    +0.145 HD
ATOM     18  H   UNL     1       0.949   1.246   8.235  0.00  0.00    +0.145 HD
ENDBRANCH  13  14
ENDBRANCH  12  13
ENDBRANCH  11  12
ENDBRANCH   6  11
BRANCH   3  19
ATOM     19  C   UNL     1      -0.219  -4.963  -0.535  0.00  0.00    -0.046 C 
BRANCH  19  20
ATOM     20  N   UNL     1       0.785  -5.241  -1.571  0.00  0.00    +0.383 N 
ATOM     21  H   UNL     1       1.066  -4.376  -2.008  0.00  0.00    -0.085 HD
ATOM     22  H   UNL     1       1.589  -5.681  -1.149  0.00  0.00    -0.085 HD
BRANCH  20  23
ATOM     23  C   UNL     1       0.210  -6.138  -2.582  0.00  0.00    -0.078 C 
ATOM     24  C   UNL     1       1.211  -6.328  -3.723  0.00  0.00    -0.014 C 
ATOM     25  C   UNL     1      -0.101  -7.493  -1.944  0.00  0.00    -0.014 C 
ENDBRANCH  20  23
ENDBRANCH  19  20
ENDBRANCH   3  19
TORSDOF 9
