REMARK  Name = ZINC56226029
REMARK  5 active torsions:
REMARK  status: ('A' for Active; 'I' for Inactive)
REMARK    1  A    between atoms: C_1  and  N_2
REMARK    2  A    between atoms: N_2  and  C_3
REMARK    3  A    between atoms: C_9  and  C_12
REMARK    4  A    between atoms: N_14  and  C_15
REMARK    5  A    between atoms: N_14  and  C_16
REMARK                            x       y       z     vdW  Elec       q    Type
REMARK                         _______ _______ _______ _____ _____    ______ ____
ROOT
ATOM      1  C   UNL     1       4.394  -4.324  -0.074  0.00  0.00    +0.223 C 
ATOM      2  O   UNL     1       4.590  -4.283   1.122  0.00  0.00    -0.275 OA
ATOM      3  N   UNL     1       5.321  -4.862  -0.891  0.00  0.00    -0.274 N 
ATOM      4  C   UNL     1       5.084  -4.912  -2.335  0.00  0.00    +0.138 C 
ENDROOT
BRANCH   1  13
ATOM      5  C   UNL     1      -0.605   1.218   0.044  0.00  0.00    +0.133 C 
ATOM      6  N   UNL     1       0.231   0.015   0.047  0.00  0.00    -0.292 N 
ATOM      7  C   UNL     1       0.563  -0.643   1.313  0.00  0.00    +0.133 C 
ATOM      8  C   UNL     1       0.695  -0.486  -1.115  0.00  0.00    +0.304 C 
ATOM      9  O   UNL     1       0.630   0.176  -2.132  0.00  0.00    -0.252 OA
ATOM     10  N   UNL     1       1.232  -1.722  -1.149  0.00  0.00    -0.285 N 
ATOM     11  C   UNL     1       0.925  -2.701  -0.097  0.00  0.00    +0.110 C 
ATOM     12  C   UNL     1       2.241  -3.227   0.486  0.00  0.00    +0.032 C 
ATOM     13  C   UNL     1       3.113  -3.774  -0.647  0.00  0.00    +0.078 C 
ATOM     14  C   UNL     1       3.437  -2.649  -1.632  0.00  0.00    +0.032 C 
ATOM     15  C   UNL     1       2.131  -2.118  -2.242  0.00  0.00    +0.110 C 
ENDBRANCH   1  13
BRANCH   3  16
ATOM     16  C   UNL     1       6.508  -5.372  -0.360  0.00  0.00    +0.044 A 
ATOM     17  C   UNL     1       6.588  -6.694   0.020  0.00  0.00    +0.024 A 
ATOM     18  C   UNL     1       7.766  -7.212   0.551  0.00  0.00    +0.002 A 
ATOM     19  C   UNL     1       8.869  -6.429   0.708  0.00  0.00    +0.008 A 
ATOM     20  C   UNL     1       8.829  -5.076   0.333  0.00  0.00    -0.016 A 
ATOM     21  C   UNL     1       7.637  -4.539  -0.213  0.00  0.00    +0.004 A 
ATOM     22  C   UNL     1       7.600  -3.188  -0.592  0.00  0.00    +0.010 A 
ATOM     23  C   UNL     1       8.709  -2.413  -0.435  0.00  0.00    +0.001 A 
ATOM     24  C   UNL     1       9.884  -2.942   0.096  0.00  0.00    +0.001 A 
ATOM     25  C   UNL     1       9.952  -4.245   0.484  0.00  0.00    +0.008 A 
ENDBRANCH   3  16
TORSDOF 2
