REMARK  Name = ZINC04729228
REMARK  10 active torsions:
REMARK  status: ('A' for Active; 'I' for Inactive)
REMARK    1  A    between atoms: C_1  and  C_2
REMARK    2  A    between atoms: C_2  and  O_3
REMARK    3  A    between atoms: O_3  and  C_4
REMARK    4  A    between atoms: C_8  and  C_11
REMARK    5  A    between atoms: C_9  and  O_10
REMARK    6  A    between atoms: C_14  and  C_26
REMARK    7  A    between atoms: C_16  and  C_18
REMARK    8  A    between atoms: C_23  and  O_24
REMARK    9  A    between atoms: O_24  and  C_25
REMARK   10  A    between atoms: C_29  and  C_32
REMARK                            x       y       z     vdW  Elec       q    Type
REMARK                         _______ _______ _______ _____ _____    ______ ____
ROOT
ATOM      1  C   UNL     1       3.670   2.198  -0.021  0.00  0.00    -0.028 C 
ATOM      2  C   UNL     1       4.156   2.378  -1.462  0.00  0.00    +0.044 C 
ATOM      3  C   UNL     1       5.251   3.408  -1.497  0.00  0.00    +0.040 C 
ATOM      4  N   UNL     1       5.481   4.216  -0.531  0.00  0.00    -0.298 NA
ATOM      5  C   UNL     1       4.728   4.236   0.716  0.00  0.00    +0.084 C 
ATOM      6  N   UNL     1       3.445   3.535   0.562  0.00  0.00    +0.401 N 
ATOM      7  H   UNL     1       2.999   3.435   1.482  0.00  0.00    -0.081 HD
ATOM      8  H   UNL     1       2.832   4.078  -0.058  0.00  0.00    -0.081 HD
ENDROOT
BRANCH   3   9
ATOM      9  C   UNL     1       6.100   3.492  -2.701  0.00  0.00    -0.004 A 
ATOM     10  C   UNL     1       5.883   2.624  -3.774  0.00  0.00    +0.010 A 
ATOM     11  C   UNL     1       6.677   2.711  -4.898  0.00  0.00    +0.004 A 
ATOM     12  C   UNL     1       7.693   3.647  -4.961  0.00  0.00    -0.050 A 
ATOM     13  C   UNL     1       7.917   4.507  -3.900  0.00  0.00    +0.004 A 
ATOM     14  C   UNL     1       7.127   4.435  -2.772  0.00  0.00    +0.010 A 
ATOM     15  C   UNL     1       8.560   3.732  -6.191  0.00  0.00    +0.044 C 
ENDBRANCH   3   9
BRANCH   1  20
ATOM     16  C   UNL     1       1.211  -0.680  -0.013  0.00  0.00    +0.162 A 
ATOM     17  C   UNL     1       0.002  -0.004   0.002  0.00  0.00    +0.049 A 
ATOM     18  C   UNL     1      -0.017   1.378   0.010  0.00  0.00    +0.004 A 
ATOM     19  C   UNL     1       1.169   2.089   0.002  0.00  0.00    +0.006 A 
ATOM     20  C   UNL     1       2.379   1.420  -0.013  0.00  0.00    -0.016 A 
ATOM     21  C   UNL     1       2.405   0.035  -0.021  0.00  0.00    +0.160 A 
BRANCH  21  22
ATOM     22  O   UNL     1       3.594  -0.625  -0.035  0.00  0.00    -0.503 OA
ATOM     23  H   UNL     1       3.930  -0.811  -0.923  0.00  0.00    +0.292 HD
ENDBRANCH  21  22
BRANCH  16  24
ATOM     24  O   UNL     1       1.232  -2.040  -0.020  0.00  0.00    -0.489 OA
BRANCH  24  26
ATOM     25  C   UNL     1       0.191  -4.221  -0.021  0.00  0.00    +0.048 C 
ATOM     26  C   UNL     1      -0.032  -2.708  -0.011  0.00  0.00    +0.226 C 
ENDBRANCH  24  26
ENDBRANCH  16  24
ENDBRANCH   1  20
BRANCH   5  27
ATOM     27  C   UNL     1       4.464   5.665   1.114  0.00  0.00    +0.001 A 
ATOM     28  C   UNL     1       3.287   5.998   1.757  0.00  0.00    +0.007 A 
ATOM     29  C   UNL     1       3.046   7.308   2.126  0.00  0.00    +0.000 A 
ATOM     30  C   UNL     1       3.978   8.291   1.844  0.00  0.00    +0.004 A 
ATOM     31  C   UNL     1       5.153   7.965   1.196  0.00  0.00    +0.046 A 
ATOM     32  C   UNL     1       5.399   6.649   0.829  0.00  0.00    +0.123 A 
BRANCH  32  33
ATOM     33  O   UNL     1       6.556   6.325   0.192  0.00  0.00    -0.495 OA
ATOM     34  C   UNL     1       7.473   7.390  -0.068  0.00  0.00    +0.277 C 
ENDBRANCH  32  33
ENDBRANCH   5  27
TORSDOF 7
