REMARK  Name = ZINC20504800
REMARK  11 active torsions:
REMARK  status: ('A' for Active; 'I' for Inactive)
REMARK    1  A    between atoms: C_1  and  C_2
REMARK    2  A    between atoms: C_2  and  C_3
REMARK    3  A    between atoms: C_3  and  C_4
REMARK    4  A    between atoms: C_4  and  N_5
REMARK    5  A    between atoms: C_14  and  C_30
REMARK    6  A    between atoms: C_15  and  C_17
REMARK    7  A    between atoms: C_17  and  C_18
REMARK    8  A    between atoms: C_23  and  O_29
REMARK    9  A    between atoms: C_25  and  C_26
REMARK   10  A    between atoms: C_25  and  C_27
REMARK   11  A    between atoms: C_27  and  O_28
REMARK                            x       y       z     vdW  Elec       q    Type
REMARK                         _______ _______ _______ _____ _____    ______ ____
ROOT
ATOM      1  N   UNL     1       2.031  -1.972   0.344  0.00  0.00    -0.325 N 
ATOM      2  C   UNL     1       1.356  -0.762   0.289  0.00  0.00    +0.136 A 
ATOM      3  N   UNL     1       1.847   0.456   0.188  0.00  0.00    -0.340 N 
ATOM      4  C   UNL     1       1.065   1.534   0.146  0.00  0.00    +0.032 A 
ATOM      5  C   UNL     1      -0.270   1.304   0.210  0.00  0.00    +0.013 A 
ATOM      6  S   UNL     1      -0.356  -0.463   0.332  0.00  0.00    -0.059 S 
ATOM      7  C   UNL     1      -1.369   2.306   0.177  0.00  0.00    +0.049 C 
ATOM      8  C   UNL     1      -0.780   3.701   0.421  0.00  0.00    +0.011 C 
ATOM      9  C   UNL     1       0.466   3.884  -0.447  0.00  0.00    -0.020 C 
ATOM     10  C   UNL     1       1.590   2.958   0.037  0.00  0.00    +0.053 C 
ATOM     11  C   UNL     1       0.982   5.323  -0.348  0.00  0.00    +0.010 C 
ATOM     12  C   UNL     1      -0.095   6.315  -0.739  0.00  0.00    +0.032 C 
ATOM     13  C   UNL     1      -1.299   6.148   0.194  0.00  0.00    +0.123 C 
ATOM     14  C   UNL     1      -1.848   4.731   0.038  0.00  0.00    +0.021 C 
ATOM     15  C   UNL     1      -3.067   4.558   0.946  0.00  0.00    +0.016 C 
ATOM     16  C   UNL     1       0.128   3.560  -1.904  0.00  0.00    +0.012 C 
ATOM     17  H   UNL     1       3.130  -1.990   0.304  0.00  0.00    +0.148 HD
ATOM     18  H   UNL     1       2.935   0.609   0.137  0.00  0.00    +0.167 HD
ENDROOT
BRANCH  13  19
ATOM     19  O   UNL     1      -2.311   7.095  -0.155  0.00  0.00    -0.391 OA
ATOM     20  H   UNL     1      -3.255   7.125   0.409  0.00  0.00    +0.210 HD
ENDBRANCH  13  19
BRANCH   1  21
ATOM     21  C   UNL     1       1.280  -3.224   0.457  0.00  0.00    +0.103 C 
BRANCH  21  22
ATOM     22  C   UNL     1       2.257  -4.402   0.499  0.00  0.00    +0.018 C 
BRANCH  22  24
ATOM     23  C   UNL     1       2.449  -6.888   0.659  0.00  0.00    +0.004 C 
ATOM     24  C   UNL     1       1.473  -5.710   0.616  0.00  0.00    -0.002 C 
ENDBRANCH  22  24
ENDBRANCH  21  22
ENDBRANCH   1  21
BRANCH  10  25
ATOM     25  C   UNL     1       2.750   2.999  -0.959  0.00  0.00    +0.135 C 
BRANCH  25  26
ATOM     26  C   UNL     1       3.926   2.247  -0.392  0.00  0.00    +0.357 C 
ATOM     27  O   UNL     1       3.845   1.731   0.697  0.00  0.00    -0.246 OA
ATOM     28  O   UNL     1       5.064   2.150  -1.098  0.00  0.00    -0.246 OA
ENDBRANCH  25  26
ENDBRANCH  10  25
BRANCH  14  29
ATOM     29  C   UNL     1      -2.268   4.508  -1.416  0.00  0.00    +0.165 C 
BRANCH  29  30
ATOM     30  O   UNL     1      -3.375   5.356  -1.727  0.00  0.00    -0.394 OA
ATOM     31  H   UNL     1      -3.818   5.335  -2.734  0.00  0.00    +0.209 HD
ENDBRANCH  29  30
ENDBRANCH  14  29
TORSDOF 8
