REMARK  Name = ZINC64271510
REMARK  12 active torsions:
REMARK  status: ('A' for Active; 'I' for Inactive)
REMARK    1  A    between atoms: C_1  and  C_2
REMARK    2  A    between atoms: C_2  and  C_3
REMARK    3  A    between atoms: C_3  and  C_4
REMARK    4  A    between atoms: C_3  and  C_6
REMARK    5  A    between atoms: C_3  and  O_27
REMARK    6  A    between atoms: C_4  and  C_5
REMARK    7  A    between atoms: C_6  and  N_7
REMARK    8  A    between atoms: C_8  and  C_10
REMARK    9  A    between atoms: N_12  and  C_13
REMARK   10  A    between atoms: C_16  and  C_19
REMARK   11  A    between atoms: C_19  and  C_20
REMARK   12  A    between atoms: C_20  and  N_21
REMARK                            x       y       z     vdW  Elec       q    Type
REMARK                         _______ _______ _______ _____ _____    ______ ____
ROOT
ATOM      1  C   UNL     1       5.075   3.777   1.438  0.00  0.00    +0.303 C 
ATOM      2  O   UNL     1       5.948   4.506   1.862  0.00  0.00    -0.265 OA
ATOM      3  N   UNL     1       3.996   4.303   0.825  0.00  0.00    -0.278 N 
ATOM      4  H   UNL     1       3.265   3.727   0.552  0.00  0.00    +0.155 HD
ENDROOT
BRANCH   3   5
ATOM      5  C   UNL     1       3.932   5.677   0.582  0.00  0.00    +0.034 A 
ATOM      6  C   UNL     1       2.713   6.340   0.650  0.00  0.00    +0.023 A 
ATOM      7  C   UNL     1       2.653   7.699   0.409  0.00  0.00    +0.005 A 
ATOM      8  C   UNL     1       3.804   8.399   0.100  0.00  0.00    -0.049 A 
ATOM      9  C   UNL     1       5.019   7.742   0.030  0.00  0.00    +0.005 A 
ATOM     10  C   UNL     1       5.088   6.385   0.276  0.00  0.00    +0.023 A 
BRANCH   8  11
ATOM     11  C   UNL     1       3.735   9.882  -0.163  0.00  0.00    +0.016 C 
BRANCH  11  12
ATOM     12  C   UNL     1       3.931  10.642   1.151  0.00  0.00    -0.074 C 
BRANCH  12  13
ATOM     13  N   UNL     1       3.751  12.080   0.915  0.00  0.00    +0.381 N 
ATOM     14  C   UNL     1       4.134  12.816   2.122  0.00  0.00    -0.068 C 
ATOM     15  C   UNL     1       4.314  14.302   1.791  0.00  0.00    +0.050 C 
ATOM     16  S   UNL     1       2.716  14.955   1.215  0.00  0.00    -0.164 S 
ATOM     17  C   UNL     1       2.220  13.739  -0.046  0.00  0.00    +0.050 C 
ATOM     18  C   UNL     1       2.354  12.337   0.559  0.00  0.00    -0.068 C 
ATOM     19  H   UNL     1       4.345  12.367   0.152  0.00  0.00    -0.082 HD
ENDBRANCH  12  13
ENDBRANCH  11  12
ENDBRANCH   8  11
ENDBRANCH   3   5
BRANCH   1  21
ATOM     20  N   UNL     1       6.275   1.771   2.209  0.00  0.00    -0.305 N 
ATOM     21  C   UNL     1       5.197   2.297   1.596  0.00  0.00    +0.299 C 
ATOM     22  O   UNL     1       4.324   1.568   1.172  0.00  0.00    -0.265 OA
ATOM     23  H   UNL     1       6.973   2.353   2.548  0.00  0.00    +0.149 HD
BRANCH  20  24
ATOM     24  C   UNL     1       6.394   0.319   2.364  0.00  0.00    +0.139 C 
BRANCH  24  25
ATOM     25  C   UNL     1       7.757  -0.019   2.973  0.00  0.00    +0.081 C 
BRANCH  25  27
ATOM     26  C   UNL     1       6.817  -2.132   3.918  0.00  0.00    +0.007 C 
ATOM     27  C   UNL     1       7.922  -1.538   3.042  0.00  0.00    +0.033 C 
ENDBRANCH  25  27
BRANCH  25  28
ATOM     28  C   UNL     1       8.866   0.575   2.102  0.00  0.00    +0.033 C 
ATOM     29  C   UNL     1      10.229   0.133   2.640  0.00  0.00    +0.007 C 
ENDBRANCH  25  28
BRANCH  25  30
ATOM     30  O   UNL     1       7.840   0.530   4.290  0.00  0.00    -0.387 OA
ATOM     31  H   UNL     1       7.743   1.492   4.322  0.00  0.00    +0.210 HD
ENDBRANCH  25  30
ENDBRANCH  24  25
ENDBRANCH  20  24
ENDBRANCH   1  21
TORSDOF 10
