REMARK  Name = ZINC11423112
REMARK  8 active torsions:
REMARK  status: ('A' for Active; 'I' for Inactive)
REMARK    1  A    between atoms: C_1  and  C_2
REMARK    2  A    between atoms: C_2  and  C_4
REMARK    3  A    between atoms: C_2  and  N_16
REMARK    4  A    between atoms: N_6  and  C_7
REMARK    5  A    between atoms: C_9  and  C_14
REMARK    6  A    between atoms: C_9  and  C_15
REMARK    7  A    between atoms: C_10  and  C_12
REMARK    8  A    between atoms: C_10  and  C_13
REMARK                            x       y       z     vdW  Elec       q    Type
REMARK                         _______ _______ _______ _____ _____    ______ ____
ROOT
ATOM      1  C   UNL     1       1.147   1.655   0.000  0.00  0.00    +0.233 C 
ATOM      2  O   UNL     1       1.130   2.868   0.007  0.00  0.00    -0.274 OA
ATOM      3  N   UNL     1      -0.011   0.966   0.007  0.00  0.00    -0.311 N 
ATOM      4  H   UNL     1       0.002  -0.004   0.002  0.00  0.00    +0.149 HD
ENDROOT
BRANCH   3   5
ATOM      5  C   UNL     1      -1.292   1.683   0.017  0.00  0.00    +0.070 C 
ATOM      6  C   UNL     1      -1.681   1.999   1.461  0.00  0.00    +0.009 C 
ATOM      7  C   UNL     1      -3.022   2.727   1.503  0.00  0.00    -0.072 C 
ATOM      8  C   UNL     1      -3.724   1.502  -0.574  0.00  0.00    -0.072 C 
ATOM      9  C   UNL     1      -2.373   0.790  -0.592  0.00  0.00    +0.009 C 
ATOM     10  C   UNL     1      -3.754   2.572  -1.672  0.00  0.00    -0.010 C 
ATOM     11  C   UNL     1      -4.805   0.456  -0.925  0.00  0.00    -0.010 C 
ATOM     12  C   UNL     1      -2.830   4.181   1.057  0.00  0.00    -0.010 C 
ATOM     13  C   UNL     1      -3.489   2.759   2.975  0.00  0.00    -0.010 C 
ATOM     14  N   UNL     1      -4.118   2.065   0.745  0.00  0.00    +0.386 N 
ATOM     15  H   UNL     1      -4.859   2.759   0.586  0.00  0.00    -0.084 HD
ATOM     16  H   UNL     1      -4.485   1.298   1.321  0.00  0.00    -0.084 HD
ENDBRANCH   3   5
BRANCH   1  18
ATOM     17  C   UNL     1       2.567   0.035   1.227  0.00  0.00    +0.038 C 
ATOM     18  C   UNL     1       2.462   0.920  -0.017  0.00  0.00    +0.155 C 
BRANCH  18  19
ATOM     19  N   UNL     1       3.562   1.887  -0.022  0.00  0.00    -0.316 N 
ATOM     20  C   UNL     1       4.789   1.532  -0.540  0.00  0.00    +0.150 C 
ATOM     21  N   UNL     1       4.977   0.346  -1.024  0.00  0.00    -0.113 NA
ATOM     22  S   UNL     1       6.567   0.311  -1.544  0.00  0.00    +0.101 S 
ATOM     23  O   UNL     1       7.277  -0.590  -0.704  0.00  0.00    -0.146 OA
ATOM     24  O   UNL     1       6.558   0.217  -2.962  0.00  0.00    -0.146 OA
ATOM     25  C   UNL     1       7.064   1.956  -1.113  0.00  0.00    +0.123 A 
ATOM     26  C   UNL     1       5.898   2.498  -0.554  0.00  0.00    +0.043 A 
ATOM     27  C   UNL     1       5.958   3.822  -0.093  0.00  0.00    +0.013 A 
ATOM     28  C   UNL     1       7.125   4.545  -0.206  0.00  0.00    +0.001 A 
ATOM     29  C   UNL     1       8.258   3.985  -0.768  0.00  0.00    +0.002 A 
ATOM     30  C   UNL     1       8.218   2.674  -1.224  0.00  0.00    +0.030 A 
ATOM     31  H   UNL     1       3.428   2.777   0.339  0.00  0.00    +0.148 HD
ENDBRANCH  18  19
ENDBRANCH   1  18
TORSDOF 3
