REMARK  Name = ZINC39324863
REMARK  10 active torsions:
REMARK  status: ('A' for Active; 'I' for Inactive)
REMARK    1  A    between atoms: C_1  and  C_2
REMARK    2  A    between atoms: C_7  and  C_14
REMARK    3  A    between atoms: C_14  and  N_15
REMARK    4  A    between atoms: N_15  and  C_16
REMARK    5  A    between atoms: N_15  and  S_24
REMARK    6  A    between atoms: C_16  and  C_17
REMARK    7  A    between atoms: S_24  and  C_27
REMARK    8  A    between atoms: C_30  and  C_33
REMARK    9  A    between atoms: C_33  and  O_35
REMARK   10  A    between atoms: O_35  and  C_36
REMARK                            x       y       z     vdW  Elec       q    Type
REMARK                         _______ _______ _______ _____ _____    ______ ____
ROOT
ATOM      1  N   UNL     1      -1.041  -6.678   2.477  0.00  0.00    -0.171 NA
ENDROOT
BRANCH   1   2
ATOM      2  S   UNL     1      -0.204  -8.102   2.358  0.00  0.00    +0.061 S 
ATOM      3  O   UNL     1      -0.653  -8.927   3.424  0.00  0.00    -0.153 OA
ATOM      4  O   UNL     1      -0.281  -8.506   0.998  0.00  0.00    -0.153 OA
BRANCH   2   5
ATOM      5  C   UNL     1       1.490  -7.739   2.680  0.00  0.00    +0.106 A 
ATOM      6  C   UNL     1       2.330  -7.389   1.638  0.00  0.00    +0.029 A 
ATOM      7  C   UNL     1       3.657  -7.104   1.883  0.00  0.00    +0.017 A 
ATOM      8  C   UNL     1       4.152  -7.169   3.187  0.00  0.00    +0.059 A 
ATOM      9  C   UNL     1       3.299  -7.523   4.234  0.00  0.00    +0.017 A 
ATOM     10  C   UNL     1       1.972  -7.800   3.976  0.00  0.00    +0.029 A 
BRANCH   8  11
ATOM     11  C   UNL     1       5.572  -6.866   3.458  0.00  0.00    +0.339 C 
ATOM     12  O   UNL     1       6.312  -6.559   2.545  0.00  0.00    -0.245 OA
BRANCH  11  13
ATOM     13  O   UNL     1       6.047  -6.930   4.717  0.00  0.00    -0.464 OA
ATOM     14  C   UNL     1       7.430  -6.623   4.905  0.00  0.00    +0.280 C 
ENDBRANCH  11  13
ENDBRANCH   8  11
ENDBRANCH   2   5
ENDBRANCH   1   2
BRANCH   1  15
ATOM     15  C   UNL     1      -1.222  -5.833   1.293  0.00  0.00    +0.126 C 
BRANCH  15  22
ATOM     16  C   UNL     1      -0.163   1.523   0.309  0.00  0.00    +0.044 C 
ATOM     17  C   UNL     1      -0.170   0.020   0.203  0.00  0.00    -0.049 A 
ATOM     18  C   UNL     1      -0.349  -0.561  -1.053  0.00  0.00    +0.004 A 
ATOM     19  C   UNL     1      -0.364  -1.910  -1.212  0.00  0.00    +0.010 A 
ATOM     20  C   UNL     1      -0.187  -2.761  -0.035  0.00  0.00    -0.007 A 
ATOM     21  C   UNL     1      -0.194  -4.120  -0.147  0.00  0.00    -0.003 C 
ATOM     22  C   UNL     1      -0.003  -4.923   1.125  0.00  0.00    +0.114 C 
ATOM     23  C   UNL     1       0.180  -4.153   2.413  0.00  0.00    +0.225 C 
ATOM     24  O   UNL     1       0.338  -4.747   3.463  0.00  0.00    -0.275 OA
ATOM     25  N   UNL     1       0.169  -2.830   2.394  0.00  0.00    -0.284 N 
ATOM     26  C   UNL     1       0.001  -2.120   1.278  0.00  0.00    +0.041 A 
ATOM     27  C   UNL     1       0.005  -0.714   1.333  0.00  0.00    +0.027 A 
ATOM     28  H   UNL     1       0.288  -2.355   3.231  0.00  0.00    +0.155 HD
ENDBRANCH  15  22
ENDBRANCH   1  15
BRANCH   1  29
ATOM     29  C   UNL     1      -1.601  -6.262   3.765  0.00  0.00    +0.144 C 
BRANCH  29  30
ATOM     30  C   UNL     1      -3.033  -6.721   3.862  0.00  0.00    -0.031 A 
ATOM     31  C   UNL     1      -4.052  -5.904   3.411  0.00  0.00    +0.008 A 
ATOM     32  C   UNL     1      -5.366  -6.324   3.499  0.00  0.00    +0.038 A 
ATOM     33  C   UNL     1      -5.661  -7.564   4.040  0.00  0.00    +0.123 A 
ATOM     34  C   UNL     1      -4.639  -8.382   4.491  0.00  0.00    +0.038 A 
ATOM     35  C   UNL     1      -3.326  -7.962   4.397  0.00  0.00    +0.008 A 
ATOM     36  F   UNL     1      -6.945  -7.975   4.127  0.00  0.00    -0.205 F 
ENDBRANCH  29  30
ENDBRANCH   1  29
TORSDOF 8
