REMARK  Name = ZINC36660399
REMARK  12 active torsions:
REMARK  status: ('A' for Active; 'I' for Inactive)
REMARK    1  A    between atoms: C_1  and  C_2
REMARK    2  A    between atoms: C_2  and  C_3
REMARK    3  A    between atoms: N_12  and  C_13
REMARK    4  A    between atoms: C_13  and  C_14
REMARK    5  A    between atoms: C_14  and  N_15
REMARK    6  A    between atoms: N_15  and  C_16
REMARK    7  A    between atoms: N_15  and  C_17
REMARK    8  A    between atoms: C_18  and  C_20
REMARK    9  A    between atoms: N_25  and  S_26
REMARK   10  A    between atoms: S_26  and  C_29
REMARK   11  A    between atoms: C_32  and  O_35
REMARK   12  A    between atoms: O_35  and  C_36
REMARK                            x       y       z     vdW  Elec       q    Type
REMARK                         _______ _______ _______ _____ _____    ______ ____
ROOT
ATOM      1  C   UNL     1       0.018   0.482  -2.293  0.00  0.00    -0.046 A 
ATOM      2  C   UNL     1      -0.460   0.292  -3.583  0.00  0.00    +0.006 A 
ATOM      3  C   UNL     1       0.315  -0.284  -4.555  0.00  0.00    +0.029 A 
ATOM      4  C   UNL     1       1.634  -0.707  -4.272  0.00  0.00    +0.080 A 
ATOM      5  C   UNL     1       2.086  -0.497  -2.949  0.00  0.00    +0.041 A 
ATOM      6  C   UNL     1       1.306   0.086  -1.983  0.00  0.00    +0.021 A 
ATOM      7  S   UNL     1       3.740  -1.145  -3.008  0.00  0.00    -0.052 S 
ATOM      8  C   UNL     1       3.728  -1.637  -4.726  0.00  0.00    +0.168 A 
ATOM      9  N   UNL     1       2.522  -1.287  -5.109  0.00  0.00    -0.224 NA
ATOM     10  N   UNL     1       4.735  -2.235  -5.466  0.00  0.00    -0.251 N 
ATOM     11  C   UNL     1       5.959  -2.401  -4.927  0.00  0.00    +0.240 C 
ATOM     12  O   UNL     1       6.862  -2.849  -5.601  0.00  0.00    -0.273 OA
ENDROOT
BRANCH  11  13
ATOM     13  C   UNL     1       6.205  -2.030  -3.487  0.00  0.00    +0.166 C 
ATOM     14  C   UNL     1       5.602  -3.104  -2.558  0.00  0.00    +0.031 C 
ATOM     15  C   UNL     1       6.823  -4.001  -2.225  0.00  0.00    +0.019 C 
ATOM     16  C   UNL     1       7.967  -2.958  -2.160  0.00  0.00    +0.110 C 
ATOM     17  N   UNL     1       7.651  -1.982  -3.223  0.00  0.00    -0.165 NA
BRANCH  17  18
ATOM     18  S   UNL     1       8.740  -0.999  -3.992  0.00  0.00    +0.062 S 
ATOM     19  O   UNL     1      10.009  -1.628  -3.872  0.00  0.00    -0.153 OA
ATOM     20  O   UNL     1       8.170  -0.668  -5.250  0.00  0.00    -0.153 OA
BRANCH  18  21
ATOM     21  C   UNL     1       8.831   0.499  -3.069  0.00  0.00    +0.106 A 
ATOM     22  C   UNL     1       7.978   1.546  -3.368  0.00  0.00    +0.032 A 
ATOM     23  C   UNL     1       8.047   2.722  -2.646  0.00  0.00    +0.047 A 
ATOM     24  C   UNL     1       8.973   2.852  -1.622  0.00  0.00    +0.120 A 
ATOM     25  C   UNL     1       9.828   1.800  -1.324  0.00  0.00    +0.047 A 
ATOM     26  C   UNL     1       9.751   0.624  -2.045  0.00  0.00    +0.032 A 
BRANCH  24  27
ATOM     27  O   UNL     1       9.044   4.008  -0.911  0.00  0.00    -0.495 OA
ATOM     28  C   UNL     1      10.021   4.072   0.130  0.00  0.00    +0.277 C 
ENDBRANCH  24  27
ENDBRANCH  18  21
ENDBRANCH  17  18
ENDBRANCH  11  13
BRANCH   1  30
ATOM     29  C   UNL     1      -0.661   2.636  -1.270  0.00  0.00    +0.009 C 
ATOM     30  C   UNL     1      -0.857   1.119  -1.244  0.00  0.00    +0.032 C 
ENDBRANCH   1  30
BRANCH  10  31
ATOM     31  C   UNL     1       4.469  -2.687  -6.834  0.00  0.00    +0.097 C 
BRANCH  31  32
ATOM     32  C   UNL     1       4.771  -1.551  -7.814  0.00  0.00    -0.060 C 
BRANCH  32  33
ATOM     33  N   UNL     1       4.393  -1.963  -9.172  0.00  0.00    +0.377 N 
ATOM     34  C   UNL     1       4.571  -0.833 -10.094  0.00  0.00    -0.097 C 
ATOM     35  C   UNL     1       5.244  -3.082  -9.599  0.00  0.00    -0.097 C 
ATOM     36  H   UNL     1       3.427  -2.253  -9.178  0.00  0.00    -0.083 HD
ENDBRANCH  32  33
ENDBRANCH  31  32
ENDBRANCH  10  31
TORSDOF 8
