REMARK  Name = ZINC39444437
REMARK  6 active torsions:
REMARK  status: ('A' for Active; 'I' for Inactive)
REMARK    1  A    between atoms: C_1  and  C_2
REMARK    2  A    between atoms: C_10  and  C_15
REMARK    3  A    between atoms: C_17  and  N_25
REMARK    4  A    between atoms: C_19  and  N_21
REMARK    5  A    between atoms: C_22  and  C_24
REMARK    6  A    between atoms: C_26  and  C_28
REMARK                            x       y       z     vdW  Elec       q    Type
REMARK                         _______ _______ _______ _____ _____    ______ ____
ROOT
ATOM      1  C   UNL     1      -3.628  -7.276  -1.845  0.00  0.00    -0.002 A 
ATOM      2  C   UNL     1      -2.498  -7.964  -2.242  0.00  0.00    +0.030 A 
ATOM      3  C   UNL     1      -2.375  -8.403  -3.554  0.00  0.00    +0.036 A 
ATOM      4  C   UNL     1      -3.389  -8.150  -4.467  0.00  0.00    +0.046 A 
ATOM      5  C   UNL     1      -4.524  -7.460  -4.065  0.00  0.00    +0.036 A 
ATOM      6  C   UNL     1      -4.642  -7.027  -2.750  0.00  0.00    +0.030 A 
ENDROOT
BRANCH   1  16
ATOM      7  C   UNL     1      -2.087   0.274   2.999  0.00  0.00    +0.109 C 
ATOM      8  C   UNL     1      -1.975  -0.486   1.703  0.00  0.00    +0.214 C 
ATOM      9  O   UNL     1      -0.956  -0.414   1.043  0.00  0.00    -0.276 OA
ATOM     10  N   UNL     1      -2.990  -1.234   1.280  0.00  0.00    -0.286 N 
ATOM     11  C   UNL     1      -2.801  -2.530   1.018  0.00  0.00    +0.035 C 
ATOM     12  C   UNL     1      -1.509  -3.149   1.329  0.00  0.00    +0.025 C 
ATOM     13  C   UNL     1      -1.298  -4.452   1.073  0.00  0.00    +0.029 C 
ATOM     14  C   UNL     1      -2.382  -5.257   0.473  0.00  0.00    +0.060 C 
ATOM     15  N   UNL     1      -2.434  -6.512   0.134  0.00  0.00    -0.360 N 
ATOM     16  C   UNL     1      -3.758  -6.801  -0.421  0.00  0.00    +0.218 C 
ATOM     17  N   UNL     1      -4.519  -5.546  -0.376  0.00  0.00    -0.220 NA
ATOM     18  C   UNL     1      -3.675  -4.603   0.171  0.00  0.00    +0.075 C 
ATOM     19  C   UNL     1      -3.846  -3.283   0.452  0.00  0.00    +0.050 C 
ATOM     20  H   UNL     1      -3.868  -0.839   1.163  0.00  0.00    +0.155 HD
ATOM     21  H   UNL     1      -1.712  -7.152   0.232  0.00  0.00    +0.162 HD
ENDBRANCH   1  16
BRANCH   5  22
ATOM     22  N   UNL     1      -5.548  -7.202  -4.982  0.00  0.00    -0.286 N 
ATOM     23  C   UNL     1      -6.277  -6.073  -4.879  0.00  0.00    +0.214 C 
ATOM     24  O   UNL     1      -5.986  -5.237  -4.050  0.00  0.00    -0.276 OA
ATOM     25  C   UNL     1      -7.455  -5.850  -5.793  0.00  0.00    +0.109 C 
ATOM     26  H   UNL     1      -5.734  -7.836  -5.692  0.00  0.00    +0.155 HD
ENDBRANCH   5  22
BRANCH   3  27
ATOM     27  N   UNL     1      -1.229  -9.099  -3.956  0.00  0.00    -0.286 N 
ATOM     28  C   UNL     1      -1.331 -10.110  -4.842  0.00  0.00    +0.214 C 
ATOM     29  O   UNL     1      -2.400 -10.361  -5.355  0.00  0.00    -0.276 OA
ATOM     30  C   UNL     1      -0.115 -10.927  -5.194  0.00  0.00    +0.109 C 
ATOM     31  H   UNL     1      -0.362  -8.854  -3.596  0.00  0.00    +0.155 HD
ENDBRANCH   3  27
TORSDOF 3
