REMARK  Name = ZINC63893106
REMARK  11 active torsions:
REMARK  status: ('A' for Active; 'I' for Inactive)
REMARK    1  A    between atoms: C_1  and  N_2
REMARK    2  A    between atoms: N_2  and  C_3
REMARK    3  A    between atoms: C_7  and  S_9
REMARK    4  A    between atoms: S_9  and  C_10
REMARK    5  A    between atoms: C_10  and  C_11
REMARK    6  A    between atoms: N_13  and  C_14
REMARK    7  A    between atoms: C_14  and  C_15
REMARK    8  A    between atoms: C_15  and  C_17
REMARK    9  A    between atoms: C_15  and  C_25
REMARK   10  A    between atoms: C_20  and  O_23
REMARK   11  A    between atoms: O_23  and  C_24
REMARK                            x       y       z     vdW  Elec       q    Type
REMARK                         _______ _______ _______ _____ _____    ______ ____
ROOT
ATOM      1  C   UNL     1      -1.566  -9.434   5.647  0.00  0.00    +0.064 C 
ENDROOT
BRANCH   1   2
ATOM      2  C   UNL     1      -2.155  -9.863   4.327  0.00  0.00    -0.033 C 
ATOM      3  C   UNL     1      -1.481 -10.322   3.248  0.00  0.00    -0.000 A 
ATOM      4  C   UNL     1      -0.054 -10.548   2.988  0.00  0.00    +0.010 A 
ATOM      5  C   UNL     1       0.325 -11.025   1.780  0.00  0.00    +0.001 A 
ATOM      6  C   UNL     1      -0.608 -11.307   0.773  0.00  0.00    +0.002 A 
ATOM      7  C   UNL     1      -1.935 -11.125   0.937  0.00  0.00    +0.026 A 
ATOM      8  C   UNL     1      -2.446 -10.628   2.168  0.00  0.00    +0.043 A 
ATOM      9  N   UNL     1      -3.669 -10.370   2.565  0.00  0.00    -0.380 N 
ATOM     10  C   UNL     1      -3.618  -9.875   3.945  0.00  0.00    +0.145 C 
ATOM     11  H   UNL     1      -4.473 -10.490   2.035  0.00  0.00    +0.160 HD
ENDBRANCH   1   2
BRANCH   1  12
ATOM     12  C   UNL     1      -2.123 -10.298   6.749  0.00  0.00    -0.038 A 
ATOM     13  C   UNL     1      -3.486 -10.330   6.980  0.00  0.00    +0.008 A 
ATOM     14  C   UNL     1      -3.998 -11.121   7.990  0.00  0.00    +0.046 A 
ATOM     15  C   UNL     1      -3.144 -11.883   8.774  0.00  0.00    +0.120 A 
ATOM     16  C   UNL     1      -1.777 -11.850   8.540  0.00  0.00    +0.046 A 
ATOM     17  C   UNL     1      -1.270 -11.061   7.525  0.00  0.00    +0.008 A 
BRANCH  15  18
ATOM     18  O   UNL     1      -3.646 -12.662   9.768  0.00  0.00    -0.495 OA
ATOM     19  C   UNL     1      -2.708 -13.419  10.535  0.00  0.00    +0.277 C 
ENDBRANCH  15  18
ENDBRANCH   1  12
BRANCH   1  20
ATOM     20  C   UNL     1      -1.926  -7.972   5.914  0.00  0.00    +0.116 C 
BRANCH  20  23
ATOM     21  C   UNL     1      -1.463  -5.784   4.946  0.00  0.00    +0.223 C 
ATOM     22  O   UNL     1      -2.152  -5.287   5.811  0.00  0.00    -0.275 OA
ATOM     23  N   UNL     1      -1.286  -7.120   4.909  0.00  0.00    -0.314 N 
ATOM     24  H   UNL     1      -0.734  -7.517   4.217  0.00  0.00    +0.149 HD
BRANCH  21  25
ATOM     25  C   UNL     1      -0.804  -4.908   3.912  0.00  0.00    +0.172 C 
BRANCH  25  26
ATOM     26  S   UNL     1      -1.231  -3.173   4.229  0.00  0.00    -0.088 S 
BRANCH  26  30
ATOM     27  C   UNL     1       0.706  -0.527   1.180  0.00  0.00    +0.222 C 
ATOM     28  N   UNL     1       0.960  -1.981   1.055  0.00  0.00    -0.241 N 
ATOM     29  N   UNL     1       0.351  -2.767   2.007  0.00  0.00    -0.171 NA
ATOM     30  C   UNL     1      -0.396  -2.289   2.954  0.00  0.00    +0.151 C 
ATOM     31  S   UNL     1      -0.381  -0.525   2.666  0.00  0.00    -0.058 S 
ATOM     32  H   UNL     1       1.516  -2.352   0.352  0.00  0.00    +0.171 HD
BRANCH  27  34
ATOM     33  C   UNL     1      -0.018   1.465   0.010  0.00  0.00    +0.103 C 
ATOM     34  N   UNL     1       0.002  -0.004   0.002  0.00  0.00    -0.292 NA
ATOM     35  H   UNL     1      -0.933  -0.378  -0.056  0.00  0.00    +0.124 HD
ENDBRANCH  27  34
ENDBRANCH  26  30
ENDBRANCH  25  26
ENDBRANCH  21  25
ENDBRANCH  20  23
ENDBRANCH   1  20
TORSDOF 9
