REMARK  Name = ZINC13098043
REMARK  16 active torsions:
REMARK  status: ('A' for Active; 'I' for Inactive)
REMARK    1  A    between atoms: C_1  and  C_2
REMARK    2  A    between atoms: C_5  and  C_8
REMARK    3  A    between atoms: C_8  and  C_10
REMARK    4  A    between atoms: C_8  and  O_16
REMARK    5  A    between atoms: O_16  and  C_17
REMARK    6  A    between atoms: C_17  and  C_18
REMARK    7  A    between atoms: C_18  and  C_20
REMARK    8  A    between atoms: C_18  and  O_37
REMARK    9  A    between atoms: C_20  and  N_63
REMARK   10  A    between atoms: C_21  and  C_23
REMARK   11  A    between atoms: C_21  and  C_25
REMARK   12  A    between atoms: C_21  and  N_63
REMARK   13  A    between atoms: C_23  and  O_24
REMARK   14  A    between atoms: C_25  and  C_27
REMARK   15  A    between atoms: C_25  and  O_36
REMARK   16  A    between atoms: C_30  and  N_33
REMARK                            x       y       z     vdW  Elec       q    Type
REMARK                         _______ _______ _______ _____ _____    ______ ____
ROOT
ATOM      1  C   UNK A   0      -0.476   0.698  -2.337  0.00  0.00    -0.048 C 
ENDROOT
BRANCH   1   2
ATOM      2  N   UNK A   1      -0.729   1.581  -1.182  0.00  0.00    +0.386 N 
ATOM      3  H   UNK A   1      -1.737   1.602  -0.987  0.00  0.00    -0.085 HD
ATOM      4  H   UNK A   1      -0.404   2.530  -1.403  0.00  0.00    -0.085 HD
BRANCH   2   5
ATOM      5  C   UNK A   1      -0.013   1.086   0.008  0.00  0.00    -0.012 C 
BRANCH   5   6
ATOM      6  C   UNK A   1       1.423   1.615  -0.003  0.00  0.00    +0.143 C 
BRANCH   6   7
ATOM      7  O   UNK A   1       1.406   3.039   0.122  0.00  0.00    -0.397 OA
ATOM      8  H   UNK A   1       2.284   3.444   0.123  0.00  0.00    +0.209 HD
ENDBRANCH   6   7
ENDBRANCH   5   6
BRANCH   5   9
ATOM      9  C   UNK A   1      -0.729   1.579   1.267  0.00  0.00    +0.133 C 
BRANCH   9  10
ATOM     10  C   UNK A   1      -2.143   1.058   1.278  0.00  0.00    -0.020 A 
ATOM     11  C   UNK A   1      -3.117   1.686   0.525  0.00  0.00    +0.008 A 
ATOM     12  C   UNK A   1      -4.413   1.205   0.531  0.00  0.00    +0.033 A 
ATOM     13  C   UNK A   1      -4.737   0.101   1.297  0.00  0.00    +0.126 A 
ATOM     14  C   UNK A   1      -3.763  -0.524   2.054  0.00  0.00    +0.033 A 
ATOM     15  C   UNK A   1      -2.466  -0.046   2.044  0.00  0.00    +0.008 A 
BRANCH  13  16
ATOM     16  N   UNK A   1      -6.125  -0.411   1.308  0.00  0.00    +0.056 N 
ATOM     17  O   UNK A   1      -6.410  -1.384   1.984  0.00  0.00    -0.126 OA
ATOM     18  O   UNK A   1      -6.982   0.139   0.641  0.00  0.00    -0.126 OA
ENDBRANCH  13  16
ENDBRANCH   9  10
BRANCH   9  19
ATOM     19  O   UNK A   1      -0.748   3.008   1.275  0.00  0.00    -0.389 OA
ATOM     20  H   UNK A   1      -1.202   3.399   0.516  0.00  0.00    +0.210 HD
ENDBRANCH   9  19
ENDBRANCH   5   9
ENDBRANCH   2   5
ENDBRANCH   1   2
BRANCH   1  21
ATOM     21  C   UNK A   0      -1.231   1.236  -3.554  0.00  0.00    +0.123 C 
BRANCH  21  22
ATOM     22  O   UNK A   0      -0.696   2.509  -3.922  0.00  0.00    -0.391 OA
ATOM     23  H   UNK A   0       0.243   2.489  -4.154  0.00  0.00    +0.210 HD
ENDBRANCH  21  22
BRANCH  21  24
ATOM     24  C   UNK A   0      -1.076   0.261  -4.722  0.00  0.00    +0.190 C 
BRANCH  24  25
ATOM     25  O   UNK A   0      -1.875   0.703  -5.822  0.00  0.00    -0.365 OA
BRANCH  25  26
ATOM     26  C   UNK A   0      -1.801  -0.143  -6.971  0.00  0.00    +0.178 C 
BRANCH  26  31
ATOM     27  C   UNK A   0      -2.596   3.017 -11.743  0.00  0.00    +0.044 C 
ATOM     28  C   UNK A   0      -2.389   2.193 -10.499  0.00  0.00    -0.050 A 
ATOM     29  C   UNK A   0      -1.516   1.121 -10.517  0.00  0.00    +0.004 A 
ATOM     30  C   UNK A   0      -1.326   0.365  -9.375  0.00  0.00    +0.007 A 
ATOM     31  C   UNK A   0      -2.008   0.681  -8.216  0.00  0.00    -0.014 A 
ATOM     32  C   UNK A   0      -2.885   1.749  -8.199  0.00  0.00    +0.007 A 
ATOM     33  C   UNK A   0      -3.072   2.508  -9.339  0.00  0.00    +0.004 A 
ENDBRANCH  26  31
BRANCH  26  34
ATOM     34  C   UNK A   0      -2.871  -1.201  -6.885  0.00  0.00    -0.015 A 
ATOM     35  C   UNK A   0      -4.128  -0.876  -6.412  0.00  0.00    +0.006 A 
ATOM     36  C   UNK A   0      -5.111  -1.845  -6.338  0.00  0.00    +0.000 A 
ATOM     37  C   UNK A   0      -4.833  -3.142  -6.727  0.00  0.00    +0.000 A 
ATOM     38  C   UNK A   0      -3.574  -3.469  -7.196  0.00  0.00    +0.000 A 
ATOM     39  C   UNK A   0      -2.593  -2.498  -7.274  0.00  0.00    +0.006 A 
ENDBRANCH  26  34
ENDBRANCH  25  26
ENDBRANCH  24  25
ENDBRANCH  21  24
ENDBRANCH   1  21
TORSDOF 15
