REMARK  Name = ZINC59039854
REMARK  11 active torsions:
REMARK  status: ('A' for Active; 'I' for Inactive)
REMARK    1  A    between atoms: C_1  and  C_2
REMARK    2  A    between atoms: C_2  and  O_3
REMARK    3  A    between atoms: O_3  and  C_4
REMARK    4  A    between atoms: C_6  and  C_11
REMARK    5  A    between atoms: C_9  and  O_10
REMARK    6  A    between atoms: N_12  and  N_13
REMARK    7  A    between atoms: C_16  and  S_19
REMARK    8  A    between atoms: S_19  and  C_20
REMARK    9  A    between atoms: C_20  and  C_21
REMARK   10  A    between atoms: N_23  and  C_24
REMARK   11  A    between atoms: C_25  and  C_33
REMARK                            x       y       z     vdW  Elec       q    Type
REMARK                         _______ _______ _______ _____ _____    ______ ____
ROOT
ATOM      1  N   UNL     1       1.580  -7.082  -0.035  0.00  0.00    -0.205 N 
ATOM      2  C   UNL     1       1.412  -8.454  -0.040  0.00  0.00    +0.232 A 
ATOM      3  N   UNL     1       0.260  -9.093  -0.043  0.00  0.00    -0.186 NA
ATOM      4  C   UNL     1       0.478 -10.412  -0.049  0.00  0.00    +0.211 A 
ATOM      5  N   UNL     1       1.771 -10.631  -0.049  0.00  0.00    -0.144 NA
ATOM      6  N   UNL     1       2.399  -9.375  -0.050  0.00  0.00    -0.245 N 
ATOM      7  H   UNL     1       2.473  -6.703  -0.037  0.00  0.00    +0.177 HD
ATOM      8  H   UNL     1       3.354  -9.203  -0.054  0.00  0.00    +0.192 HD
ENDROOT
BRANCH   1  10
ATOM      9  C   UNL     1       0.619  -4.950  -0.019  0.00  0.00    +0.138 C 
ATOM     10  N   UNL     1       0.461  -6.239  -0.025  0.00  0.00    -0.188 NA
BRANCH   9  13
ATOM     11  C   UNL     1      -1.498  -1.849   0.006  0.00  0.00    +0.162 A 
ATOM     12  C   UNL     1      -0.391  -2.676  -0.003  0.00  0.00    +0.059 A 
ATOM     13  C   UNL     1      -0.559  -4.063  -0.009  0.00  0.00    -0.002 A 
ATOM     14  C   UNL     1      -1.845  -4.608  -0.005  0.00  0.00    +0.013 A 
ATOM     15  C   UNL     1      -2.946  -3.776   0.004  0.00  0.00    +0.050 A 
ATOM     16  C   UNL     1      -2.778  -2.399   0.016  0.00  0.00    +0.158 A 
BRANCH  16  17
ATOM     17  O   UNL     1      -3.866  -1.584   0.030  0.00  0.00    -0.503 OA
ATOM     18  H   UNL     1      -4.189  -1.343  -0.849  0.00  0.00    +0.292 HD
ENDBRANCH  16  17
BRANCH  11  19
ATOM     19  O   UNL     1      -1.339  -0.499   0.012  0.00  0.00    -0.489 OA
BRANCH  19  21
ATOM     20  C   UNL     1      -0.019   1.526   0.010  0.00  0.00    +0.048 C 
ATOM     21  C   UNL     1       0.002  -0.004   0.002  0.00  0.00    +0.226 C 
ENDBRANCH  19  21
ENDBRANCH  11  19
ENDBRANCH   9  13
ENDBRANCH   1  10
BRANCH   4  22
ATOM     22  S   UNL     1      -0.770 -11.656  -0.054  0.00  0.00    -0.075 S 
BRANCH  22  23
ATOM     23  C   UNL     1       0.161 -13.213  -0.060  0.00  0.00    +0.173 C 
BRANCH  23  24
ATOM     24  C   UNL     1      -0.801 -14.373  -0.065  0.00  0.00    +0.228 C 
ATOM     25  O   UNL     1      -1.997 -14.170  -0.065  0.00  0.00    -0.275 OA
ATOM     26  N   UNL     1      -0.332 -15.636  -0.071  0.00  0.00    -0.278 N 
ATOM     27  H   UNL     1       0.624 -15.799  -0.071  0.00  0.00    +0.155 HD
BRANCH  26  28
ATOM     28  C   UNL     1      -1.218 -16.705  -0.075  0.00  0.00    +0.090 A 
ATOM     29  C   UNL     1      -0.920 -18.058  -0.075  0.00  0.00    +0.084 A 
ATOM     30  C   UNL     1      -2.037 -18.985  -0.080  0.00  0.00    -0.018 A 
ATOM     31  C   UNL     1      -3.250 -18.388  -0.084  0.00  0.00    -0.004 A 
ATOM     32  S   UNL     1      -2.896 -16.655  -0.075  0.00  0.00    -0.077 S 
ATOM     33  C   UNL     1      -4.585 -19.065  -0.092  0.00  0.00    +0.043 C 
ATOM     34  C   UNL     1      -4.377 -20.538  -0.474  0.00  0.00    +0.005 C 
ATOM     35  C   UNL     1      -3.232 -21.111   0.366  0.00  0.00    +0.005 C 
ATOM     36  C   UNL     1      -1.902 -20.500  -0.080  0.00  0.00    +0.037 C 
BRANCH  29  37
ATOM     37  C   UNL     1       0.435 -18.523  -0.071  0.00  0.00    +0.102 C 
ATOM     38  N   UNL     1       1.509 -18.892  -0.068  0.00  0.00    -0.191 NA
ENDBRANCH  29  37
ENDBRANCH  26  28
ENDBRANCH  23  24
ENDBRANCH  22  23
ENDBRANCH   4  22
TORSDOF 10
