REMARK  Name = ZINC34795167
REMARK  8 active torsions:
REMARK  status: ('A' for Active; 'I' for Inactive)
REMARK    1  A    between atoms: C_2  and  C_3
REMARK    2  A    between atoms: C_3  and  N_4
REMARK    3  A    between atoms: N_7  and  C_10
REMARK    4  A    between atoms: C_15  and  N_16
REMARK    5  A    between atoms: C_17  and  C_19
REMARK    6  A    between atoms: C_19  and  S_20
REMARK    7  A    between atoms: S_20  and  C_21
REMARK    8  A    between atoms: N_25  and  C_26
REMARK                            x       y       z     vdW  Elec       q    Type
REMARK                         _______ _______ _______ _____ _____    ______ ____
ROOT
ATOM      1  N   UNL     1       1.605  -5.259   4.955  0.00  0.00    -0.283 N 
ATOM      2  C   UNL     1       2.049  -5.630   6.172  0.00  0.00    +0.228 C 
ATOM      3  O   UNL     1       2.738  -6.621   6.291  0.00  0.00    -0.275 OA
ATOM      4  H   UNL     1       1.123  -4.424   4.848  0.00  0.00    +0.155 HD
ENDROOT
BRANCH   1  10
ATOM      5  C   UNL     1       1.867  -5.531   2.562  0.00  0.00    +0.051 A 
ATOM      6  C   UNL     1       2.106  -6.348   1.466  0.00  0.00    +0.025 A 
ATOM      7  C   UNL     1       2.312  -7.702   1.647  0.00  0.00    +0.002 A 
ATOM      8  C   UNL     1       2.280  -8.248   2.917  0.00  0.00    +0.002 A 
ATOM      9  C   UNL     1       2.043  -7.441   4.014  0.00  0.00    +0.025 A 
ATOM     10  C   UNL     1       1.840  -6.080   3.844  0.00  0.00    +0.055 A 
BRANCH   5  14
ATOM     11  N   UNL     1       1.370  -1.691   1.103  0.00  0.00    +0.384 N 
ATOM     12  C   UNL     1       0.330  -2.714   0.937  0.00  0.00    -0.059 C 
ATOM     13  C   UNL     1       0.305  -3.620   2.172  0.00  0.00    +0.086 C 
ATOM     14  N   UNL     1       1.658  -4.159   2.382  0.00  0.00    -0.332 N 
ATOM     15  C   UNL     1       2.786  -3.214   2.397  0.00  0.00    +0.086 C 
ATOM     16  C   UNL     1       2.693  -2.326   1.152  0.00  0.00    -0.059 C 
ATOM     17  H   UNL     1       1.209  -1.186   1.961  0.00  0.00    -0.081 HD
BRANCH  11  18
ATOM     18  C   UNL     1       1.320  -0.756  -0.030  0.00  0.00    -0.052 C 
BRANCH  18  20
ATOM     19  C   UNL     1      -0.001   1.297  -0.007  0.00  0.00    +0.002 C 
ATOM     20  C   UNL     1       0.009  -0.013  -0.010  0.00  0.00    -0.053 C 
ENDBRANCH  18  20
ENDBRANCH  11  18
ENDBRANCH   5  14
ENDBRANCH   1  10
BRANCH   2  21
ATOM     21  C   UNL     1       1.690  -4.812   7.386  0.00  0.00    +0.173 C 
BRANCH  21  22
ATOM     22  S   UNL     1       2.432  -5.563   8.862  0.00  0.00    -0.075 S 
BRANCH  22  23
ATOM     23  C   UNL     1       1.927  -4.506  10.178  0.00  0.00    +0.214 A 
ATOM     24  N   UNL     1       1.176  -3.430  10.073  0.00  0.00    -0.101 NA
ATOM     25  N   UNL     1       0.998  -2.892  11.225  0.00  0.00    -0.022 NA
ATOM     26  N   UNL     1       1.608  -3.569  12.137  0.00  0.00    -0.038 NA
ATOM     27  N   UNL     1       2.233  -4.650  11.492  0.00  0.00    -0.187 N 
BRANCH  27  28
ATOM     28  C   UNL     1       3.010  -5.660  12.079  0.00  0.00    +0.070 A 
ATOM     29  C   UNL     1       2.969  -6.952  11.573  0.00  0.00    +0.029 A 
ATOM     30  C   UNL     1       3.735  -7.944  12.153  0.00  0.00    +0.017 A 
ATOM     31  C   UNL     1       4.541  -7.652  13.239  0.00  0.00    +0.018 A 
ATOM     32  C   UNL     1       4.583  -6.365  13.746  0.00  0.00    +0.017 A 
ATOM     33  C   UNL     1       3.824  -5.368  13.165  0.00  0.00    +0.029 A 
ATOM     34 BR   UNL     1       5.588  -9.013  14.031  0.00  0.00    -0.050 Br
ENDBRANCH  27  28
ENDBRANCH  22  23
ENDBRANCH  21  22
ENDBRANCH   2  21
TORSDOF 8
