REMARK  Name = ZINC36629467
REMARK  8 active torsions:
REMARK  status: ('A' for Active; 'I' for Inactive)
REMARK    1  A    between atoms: C_1  and  C_2
REMARK    2  A    between atoms: C_6  and  C_8
REMARK    3  A    between atoms: C_8  and  C_9
REMARK    4  A    between atoms: N_11  and  C_12
REMARK    5  A    between atoms: C_13  and  C_24
REMARK    6  A    between atoms: N_18  and  C_21
REMARK    7  A    between atoms: C_21  and  C_22
REMARK    8  A    between atoms: C_21  and  C_23
REMARK                            x       y       z     vdW  Elec       q    Type
REMARK                         _______ _______ _______ _____ _____    ______ ____
ROOT
ATOM      1  C   UNL     1       3.062  -3.853   4.460  0.00  0.00    +0.084 A 
ATOM      2  C   UNL     1       3.505  -4.527   5.589  0.00  0.00    +0.068 A 
ATOM      3  C   UNL     1       4.939  -4.642   5.768  0.00  0.00    -0.027 A 
ATOM      4  C   UNL     1       5.670  -4.063   4.789  0.00  0.00    -0.021 A 
ATOM      5  S   UNL     1       4.474  -3.401   3.670  0.00  0.00    -0.079 S 
ATOM      6  C   UNL     1       7.164  -4.020   4.710  0.00  0.00    -0.035 C 
ATOM      7  N   UNL     1       7.707  -4.364   6.037  0.00  0.00    +0.384 N 
ATOM      8  C   UNL     1       7.086  -5.604   6.520  0.00  0.00    -0.073 C 
ATOM      9  C   UNL     1       5.632  -5.342   6.929  0.00  0.00    +0.018 C 
ATOM     10  H   UNL     1       7.510  -3.615   6.685  0.00  0.00    -0.081 HD
ENDROOT
BRANCH   2  11
ATOM     11  C   UNL     1       2.565  -5.096   6.559  0.00  0.00    +0.244 C 
ATOM     12  O   UNL     1       2.169  -6.239   6.423  0.00  0.00    -0.270 OA
ATOM     13  N   UNL     1       2.139  -4.354   7.601  0.00  0.00    -0.325 N 
ATOM     14  H   UNL     1       2.455  -3.444   7.708  0.00  0.00    +0.145 HD
ATOM     15  H   UNL     1       1.517  -4.731   8.242  0.00  0.00    +0.145 HD
ENDBRANCH   2  11
BRANCH   1  18
ATOM     16  C   UNL     1       1.502  -2.941   2.930  0.00  0.00    +0.222 C 
ATOM     17  O   UNL     1       2.421  -2.545   2.244  0.00  0.00    -0.275 OA
ATOM     18  N   UNL     1       1.753  -3.613   4.071  0.00  0.00    -0.279 N 
ATOM     19  H   UNL     1       1.018  -3.929   4.619  0.00  0.00    +0.155 HD
BRANCH  16  20
ATOM     20  C   UNL     1       0.080  -2.680   2.506  0.00  0.00    +0.131 C 
BRANCH  20  26
ATOM     21  C   UNL     1       0.079   1.674   0.038  0.00  0.00    +0.044 C 
ATOM     22  C   UNL     1       0.073   0.167   0.026  0.00  0.00    -0.050 A 
ATOM     23  C   UNL     1       0.063  -0.515  -1.176  0.00  0.00    +0.003 A 
ATOM     24  C   UNL     1       0.058  -1.897  -1.187  0.00  0.00    +0.001 A 
ATOM     25  C   UNL     1       0.063  -2.598   0.005  0.00  0.00    +0.004 A 
ATOM     26  C   UNL     1       0.074  -1.916   1.207  0.00  0.00    -0.038 A 
ATOM     27  C   UNL     1       0.084  -0.534   1.218  0.00  0.00    +0.007 A 
ENDBRANCH  20  26
ENDBRANCH  16  20
ENDBRANCH   1  18
BRANCH   7  28
ATOM     28  C   UNL     1       9.161  -4.552   5.937  0.00  0.00    -0.074 C 
ATOM     29  C   UNL     1       9.794  -3.309   5.309  0.00  0.00    -0.014 C 
ATOM     30  C   UNL     1       9.745  -4.772   7.334  0.00  0.00    -0.014 C 
ENDBRANCH   7  28
TORSDOF 5
