REMARK  Name = ZINC37869298
REMARK  6 active torsions:
REMARK  status: ('A' for Active; 'I' for Inactive)
REMARK    1  A    between atoms: C_1  and  C_2
REMARK    2  A    between atoms: C_2  and  C_3
REMARK    3  A    between atoms: C_2  and  N_4
REMARK    4  A    between atoms: N_4  and  C_5
REMARK    5  A    between atoms: C_5  and  C_7
REMARK    6  A    between atoms: C_5  and  C_17
REMARK                            x       y       z     vdW  Elec       q    Type
REMARK                         _______ _______ _______ _____ _____    ______ ____
ROOT
ATOM      1  C   UNL     1      -1.359  -1.976  -0.116  0.00  0.00    +0.047 C 
ENDROOT
BRANCH   1   2
ATOM      2  C   UNL     1      -2.763  -2.508   0.018  0.00  0.00    -0.048 A 
ATOM      3  C   UNL     1      -2.995  -3.670   0.731  0.00  0.00    +0.052 A 
ATOM      4  C   UNL     1      -4.284  -4.161   0.855  0.00  0.00    +0.168 A 
ATOM      5  C   UNL     1      -5.345  -3.483   0.260  0.00  0.00    +0.180 A 
ATOM      6  C   UNL     1      -5.105  -2.319  -0.453  0.00  0.00    +0.063 A 
ATOM      7  C   UNL     1      -3.816  -1.831  -0.568  0.00  0.00    +0.021 A 
ATOM      8 BR   UNL     1      -6.542  -1.394  -1.262  0.00  0.00    -0.046 Br
ATOM      9  O   UNL     1      -6.500  -4.161   0.525  0.00  0.00    -0.451 OA
ATOM     10  C   UNL     1      -6.087  -5.476   0.940  0.00  0.00    +0.466 C 
ATOM     11  O   UNL     1      -4.774  -5.264   1.493  0.00  0.00    -0.453 OA
ENDBRANCH   1   2
BRANCH   1  12
ATOM     12  C   UNL     1      -0.804  -2.355  -1.465  0.00  0.00    +0.201 C 
ATOM     13  O   UNL     1      -0.458  -1.491  -2.243  0.00  0.00    -0.277 OA
ATOM     14  N   UNL     1      -0.694  -3.654  -1.808  0.00  0.00    -0.330 N 
ATOM     15  H   UNL     1      -0.972  -4.345  -1.186  0.00  0.00    +0.145 HD
ATOM     16  H   UNL     1      -0.337  -3.898  -2.676  0.00  0.00    +0.145 HD
ENDBRANCH   1  12
BRANCH   1  17
ATOM     17  N   UNL     1      -1.376  -0.512   0.012  0.00  0.00    +0.391 N 
ATOM     18  H   UNL     1      -1.823  -0.256   0.880  0.00  0.00    -0.084 HD
ATOM     19  H   UNL     1      -1.888  -0.113  -0.760  0.00  0.00    -0.084 HD
BRANCH  17  21
ATOM     20  C   UNL     1      -0.019   1.526   0.010  0.00  0.00    -0.014 C 
ATOM     21  C   UNL     1       0.002  -0.004   0.002  0.00  0.00    -0.077 C 
ATOM     22  C   UNL     1       0.742  -0.511   1.242  0.00  0.00    -0.014 C 
ENDBRANCH  17  21
ENDBRANCH   1  17
TORSDOF 4
