REMARK  Name = ZINC08735963
REMARK  7 active torsions:
REMARK  status: ('A' for Active; 'I' for Inactive)
REMARK    1  A    between atoms: C_1  and  C_2
REMARK    2  A    between atoms: C_2  and  C_29
REMARK    3  A    between atoms: N_5  and  C_9
REMARK    4  A    between atoms: C_9  and  C_10
REMARK    5  A    between atoms: C_16  and  C_18
REMARK    6  A    between atoms: C_32  and  O_35
REMARK    7  A    between atoms: O_35  and  C_36
REMARK                            x       y       z     vdW  Elec       q    Type
REMARK                         _______ _______ _______ _____ _____    ______ ____
ROOT
ATOM      1  C   UNL     1      -1.239   2.150   0.020  0.00  0.00    +0.213 C 
ENDROOT
BRANCH   1   6
ATOM      2  C   UNL     1       1.799  -1.187  -1.280  0.00  0.00    +0.047 C 
ATOM      3  C   UNL     1       1.467  -0.394  -0.014  0.00  0.00    +0.135 C 
ATOM      4  C   UNL     1       0.002  -0.004   0.002  0.00  0.00    +0.251 C 
ATOM      5  O   UNL     1      -0.954  -0.749   0.008  0.00  0.00    -0.272 OA
ATOM      6  N   UNL     1      -0.016   1.343   0.009  0.00  0.00    -0.215 N 
ATOM      7  C   UNL     1       1.220   1.854   0.000  0.00  0.00    +0.310 C 
ATOM      8  O   UNL     1       1.460   3.045   0.004  0.00  0.00    -0.252 OA
ATOM      9  N   UNL     1       2.170   0.901  -0.014  0.00  0.00    -0.281 N 
ATOM     10  H   UNL     1       3.130   1.039  -0.022  0.00  0.00    +0.152 HD
BRANCH   3  11
ATOM     11  C   UNL     1       1.817  -1.191   1.216  0.00  0.00    -0.015 A 
ATOM     12  C   UNL     1       0.857  -1.979   1.824  0.00  0.00    +0.010 A 
ATOM     13  C   UNL     1       1.177  -2.716   2.948  0.00  0.00    +0.046 A 
ATOM     14  C   UNL     1       2.459  -2.655   3.474  0.00  0.00    +0.120 A 
ATOM     15  C   UNL     1       3.419  -1.859   2.866  0.00  0.00    +0.046 A 
ATOM     16  C   UNL     1       3.095  -1.129   1.738  0.00  0.00    +0.010 A 
BRANCH  14  17
ATOM     17  O   UNL     1       2.775  -3.374   4.583  0.00  0.00    -0.495 OA
ATOM     18  C   UNL     1       1.737  -4.171   5.156  0.00  0.00    +0.277 C 
ENDBRANCH  14  17
ENDBRANCH   3  11
ENDBRANCH   1   6
BRANCH   1  19
ATOM     19  C   UNL     1      -1.652   2.419   1.444  0.00  0.00    +0.234 C 
ATOM     20  O   UNL     1      -0.989   1.980   2.360  0.00  0.00    -0.274 OA
ATOM     21  N   UNL     1      -2.757   3.147   1.700  0.00  0.00    -0.293 N 
ATOM     22  C   UNL     1      -3.650   3.737   0.686  0.00  0.00    +0.108 C 
ATOM     23  C   UNL     1      -4.339   4.923   1.408  0.00  0.00    +0.021 C 
ATOM     24  C   UNL     1      -4.534   4.347   2.835  0.00  0.00    +0.029 C 
ATOM     25  C   UNL     1      -3.275   3.478   3.035  0.00  0.00    +0.106 C 
BRANCH  25  26
ATOM     26  C   UNL     1      -3.632   2.215   3.774  0.00  0.00    -0.023 A 
ATOM     27  C   UNL     1      -4.246   1.173   3.102  0.00  0.00    +0.009 A 
ATOM     28  C   UNL     1      -4.577   0.010   3.774  0.00  0.00    +0.050 A 
ATOM     29  C   UNL     1      -4.291  -0.108   5.123  0.00  0.00    +0.162 A 
ATOM     30  C   UNL     1      -3.676   0.937   5.798  0.00  0.00    +0.162 A 
ATOM     31  C   UNL     1      -3.341   2.098   5.122  0.00  0.00    +0.055 A 
ATOM     32  O   UNL     1      -3.399   0.810   7.128  0.00  0.00    -0.488 OA
ATOM     33  C   UNL     1      -4.529   0.772   8.001  0.00  0.00    +0.232 C 
ATOM     34  C   UNL     1      -5.090  -0.638   8.098  0.00  0.00    +0.082 C 
ATOM     35  C   UNL     1      -5.649  -1.131   6.772  0.00  0.00    +0.232 C 
ATOM     36  O   UNL     1      -4.611  -1.251   5.797  0.00  0.00    -0.488 OA
ENDBRANCH  25  26
ENDBRANCH   1  19
TORSDOF 5
