REMARK  Name = ZINC02927454
REMARK  13 active torsions:
REMARK  status: ('A' for Active; 'I' for Inactive)
REMARK    1  A    between atoms: C_1  and  C_2
REMARK    2  A    between atoms: C_2  and  C_3
REMARK    3  A    between atoms: C_3  and  C_4
REMARK    4  A    between atoms: C_4  and  N_5
REMARK    5  A    between atoms: C_6  and  C_8
REMARK    6  A    between atoms: C_8  and  C_10
REMARK    7  A    between atoms: C_8  and  S_12
REMARK    8  A    between atoms: C_10  and  C_11
REMARK    9  A    between atoms: S_12  and  C_13
REMARK   10  A    between atoms: C_17  and  C_21
REMARK   11  A    between atoms: N_24  and  C_25
REMARK   12  A    between atoms: C_28  and  O_31
REMARK   13  A    between atoms: O_31  and  C_32
REMARK                            x       y       z     vdW  Elec       q    Type
REMARK                         _______ _______ _______ _____ _____    ______ ____
ROOT
ATOM      1  C   UNL     1      -4.579   2.420   2.280  0.00  0.00    +0.178 A 
ATOM      2  N   UNL     1      -3.555   2.610   3.076  0.00  0.00    -0.201 NA
ATOM      3  C   UNL     1      -2.296   2.333   2.704  0.00  0.00    +0.187 A 
ATOM      4  C   UNL     1      -2.047   1.819   1.424  0.00  0.00    +0.082 A 
ATOM      5  C   UNL     1      -0.661   1.618   1.315  0.00  0.00    +0.046 A 
ATOM      6  N   UNL     1      -0.101   1.994   2.432  0.00  0.00    -0.279 N 
ATOM      7  N   UNL     1      -1.087   2.439   3.321  0.00  0.00    -0.153 NA
ATOM      8  H   UNL     1       0.991   1.929   2.550  0.00  0.00    +0.189 HD
ATOM      9  C   UNL     1       0.061   1.093   0.101  0.00  0.00    +0.066 C 
ATOM     10  C   UNL     1      -3.189   1.609   0.525  0.00  0.00    +0.124 A 
ATOM     11  N   UNL     1      -3.024   1.145  -0.690  0.00  0.00    -0.384 N 
ATOM     12  N   UNL     1      -4.449   1.917   1.014  0.00  0.00    -0.275 N 
ATOM     13  H   UNL     1      -3.895   0.996  -1.345  0.00  0.00    +0.157 HD
ATOM     14  H   UNL     1      -2.015   0.904  -1.054  0.00  0.00    +0.157 HD
ENDROOT
BRANCH  12  15
ATOM     15  C   UNL     1      -5.583   1.731   0.210  0.00  0.00    +0.051 A 
ATOM     16  C   UNL     1      -5.957   0.451  -0.177  0.00  0.00    +0.030 A 
ATOM     17  C   UNL     1      -7.076   0.267  -0.965  0.00  0.00    +0.047 A 
ATOM     18  C   UNL     1      -7.821   1.362  -1.378  0.00  0.00    +0.120 A 
ATOM     19  C   UNL     1      -7.445   2.642  -0.996  0.00  0.00    +0.047 A 
ATOM     20  C   UNL     1      -6.328   2.826  -0.204  0.00  0.00    +0.030 A 
BRANCH  18  21
ATOM     21  O   UNL     1      -8.919   1.181  -2.158  0.00  0.00    -0.495 OA
ATOM     22  C   UNL     1      -9.248  -0.163  -2.513  0.00  0.00    +0.277 C 
ENDBRANCH  18  21
ENDBRANCH  12  15
BRANCH   1  23
ATOM     23  S   UNL     1      -6.191   2.823   2.867  0.00  0.00    -0.075 S 
BRANCH  23  24
ATOM     24  C   UNL     1      -5.798   3.284   4.572  0.00  0.00    +0.140 C 
BRANCH  24  26
ATOM     25  N   UNL     1      -4.205   4.870   5.606  0.00  0.00    -0.314 N 
ATOM     26  C   UNL     1      -5.025   4.579   4.577  0.00  0.00    +0.226 C 
ATOM     27  O   UNL     1      -5.142   5.358   3.655  0.00  0.00    -0.275 OA
ATOM     28  H   UNL     1      -4.100   4.163   6.442  0.00  0.00    +0.149 HD
BRANCH  25  29
ATOM     29  C   UNL     1      -3.454   6.128   5.611  0.00  0.00    +0.104 C 
BRANCH  29  30
ATOM     30  C   UNL     1      -2.606   6.211   6.882  0.00  0.00    +0.018 C 
BRANCH  30  32
ATOM     31  C   UNL     1      -0.974   7.607   8.158  0.00  0.00    +0.004 C 
ATOM     32  C   UNL     1      -1.822   7.525   6.887  0.00  0.00    -0.002 C 
ENDBRANCH  30  32
ENDBRANCH  29  30
ENDBRANCH  25  29
ENDBRANCH  24  26
BRANCH  24  33
ATOM     33  C   UNL     1      -7.095   3.461   5.365  0.00  0.00    +0.020 C 
ATOM     34  C   UNL     1      -7.810   2.114   5.479  0.00  0.00    +0.005 C 
ENDBRANCH  24  33
ENDBRANCH  23  24
ENDBRANCH   1  23
TORSDOF 9
