REMARK  Name = ZINC01133413
REMARK  7 active torsions:
REMARK  status: ('A' for Active; 'I' for Inactive)
REMARK    1  A    between atoms: C_3  and  C_8
REMARK    2  A    between atoms: N_10  and  C_11
REMARK    3  A    between atoms: C_14  and  N_17
REMARK    4  A    between atoms: N_17  and  C_18
REMARK    5  A    between atoms: C_18  and  N_20
REMARK    6  A    between atoms: C_21  and  C_23
REMARK    7  A    between atoms: C_26  and  N_30
REMARK                            x       y       z     vdW  Elec       q    Type
REMARK                         _______ _______ _______ _____ _____    ______ ____
ROOT
ATOM      1  N   UNL     1       1.583   3.482   0.254  0.00  0.00    -0.297 N 
ATOM      2  H   UNL     1       1.005   3.984  -0.342  0.00  0.00    +0.154 HD
ENDROOT
BRANCH   1   6
ATOM      3  C   UNL     1       1.524  -0.687   0.191  0.00  0.00    +0.034 A 
ATOM      4  C   UNL     1       0.335   0.026   0.110  0.00  0.00    +0.025 A 
ATOM      5  C   UNL     1       0.354   1.406   0.131  0.00  0.00    +0.025 A 
ATOM      6  C   UNL     1       1.563   2.082   0.233  0.00  0.00    +0.033 A 
ATOM      7  C   UNL     1       2.753   1.369   0.313  0.00  0.00    +0.025 A 
ATOM      8  C   UNL     1       2.733  -0.011   0.292  0.00  0.00    +0.025 A 
BRANCH   3  11
ATOM      9  C   UNL     1       0.578  -2.736  -0.562  0.00  0.00    +0.248 C 
ATOM     10  O   UNL     1      -0.176  -2.111  -1.282  0.00  0.00    -0.270 OA
ATOM     11  N   UNL     1       1.505  -2.087   0.169  0.00  0.00    -0.282 N 
ATOM     12  H   UNL     1       2.159  -2.589   0.680  0.00  0.00    +0.155 HD
BRANCH   9  15
ATOM     13  C   UNL     1      -0.568  -6.260  -1.175  0.00  0.00    +0.002 A 
ATOM     14  C   UNL     1      -0.480  -4.885  -1.246  0.00  0.00    +0.013 A 
ATOM     15  C   UNL     1       0.479  -4.210  -0.490  0.00  0.00    +0.038 A 
ATOM     16  C   UNL     1       1.347  -4.931   0.331  0.00  0.00    +0.033 A 
ATOM     17  C   UNL     1       1.246  -6.306   0.398  0.00  0.00    +0.042 A 
ATOM     18  C   UNL     1       0.292  -6.970  -0.356  0.00  0.00    +0.020 A 
ATOM     19 CL   UNL     1       2.320  -7.205   1.422  0.00  0.00    -0.084 Cl
ENDBRANCH   9  15
ENDBRANCH   3  11
ENDBRANCH   1   6
BRANCH   1  20
ATOM     20  C   UNL     1       2.405   4.132   1.101  0.00  0.00    +0.141 C 
ATOM     21  S   UNL     1       3.321   3.252   2.249  0.00  0.00    -0.018 S 
BRANCH  20  22
ATOM     22  N   UNL     1       2.507   5.474   1.044  0.00  0.00    -0.264 N 
ATOM     23  C   UNL     1       3.330   6.125   1.891  0.00  0.00    +0.251 C 
ATOM     24  O   UNL     1       3.979   5.500   2.706  0.00  0.00    -0.270 OA
ATOM     25  H   UNL     1       1.989   5.973   0.393  0.00  0.00    +0.157 HD
BRANCH  23  26
ATOM     26  C   UNL     1       3.441   7.596   1.828  0.00  0.00    +0.055 A 
ATOM     27  C   UNL     1       2.696   8.317   0.893  0.00  0.00    +0.017 A 
ATOM     28  C   UNL     1       2.805   9.691   0.840  0.00  0.00    +0.033 A 
ATOM     29  C   UNL     1       3.650  10.356   1.711  0.00  0.00    +0.128 A 
ATOM     30  C   UNL     1       4.391   9.650   2.641  0.00  0.00    +0.053 A 
ATOM     31  C   UNL     1       4.289   8.274   2.709  0.00  0.00    +0.055 A 
ATOM     32 CL   UNL     1       5.215   7.388   3.881  0.00  0.00    -0.083 Cl
BRANCH  29  33
ATOM     33  N   UNL     1       3.761  11.831   1.648  0.00  0.00    +0.056 N 
ATOM     34  O   UNL     1       3.109  12.456   0.831  0.00  0.00    -0.126 OA
ATOM     35  O   UNL     1       4.504  12.419   2.413  0.00  0.00    -0.126 OA
ENDBRANCH  29  33
ENDBRANCH  23  26
ENDBRANCH  20  22
ENDBRANCH   1  20
TORSDOF 7
