REMARK  Name = ZINC22940556
REMARK  6 active torsions:
REMARK  status: ('A' for Active; 'I' for Inactive)
REMARK    1  A    between atoms: C_4  and  C_32
REMARK    2  A    between atoms: C_6  and  N_7
REMARK    3  A    between atoms: C_8  and  C_10
REMARK    4  A    between atoms: C_10  and  N_11
REMARK    5  A    between atoms: N_14  and  C_17
REMARK    6  A    between atoms: C_17  and  C_18
REMARK                            x       y       z     vdW  Elec       q    Type
REMARK                         _______ _______ _______ _____ _____    ______ ____
ROOT
ATOM      1  N   UNL     1      -4.787   0.087   0.363  0.00  0.00    -0.298 NA
ATOM      2  C   UNL     1      -4.964   0.853  -0.879  0.00  0.00    +0.066 C 
ATOM      3  C   UNL     1      -6.108   1.854  -0.700  0.00  0.00    -0.063 C 
ATOM      4  N   UNL     1      -7.343   1.131  -0.369  0.00  0.00    +0.384 N 
ATOM      5  C   UNL     1      -7.159   0.391   0.886  0.00  0.00    -0.063 C 
ATOM      6  C   UNL     1      -6.024  -0.622   0.720  0.00  0.00    +0.066 C 
ATOM      7  H   UNL     1      -7.563   0.484  -1.111  0.00  0.00    -0.081 HD
ENDROOT
BRANCH   1   8
ATOM      8  C   UNL     1      -3.659  -0.846   0.249  0.00  0.00    +0.180 C 
BRANCH   8  10
ATOM      9  N   UNL     1      -1.200  -0.722   0.010  0.00  0.00    -0.284 N 
ATOM     10  C   UNL     1      -2.373  -0.069   0.127  0.00  0.00    +0.231 C 
ATOM     11  O   UNL     1      -2.395   1.143   0.134  0.00  0.00    -0.274 OA
ATOM     12  H   UNL     1      -1.188  -1.688  -0.072  0.00  0.00    +0.155 HD
BRANCH   9  18
ATOM     13  C   UNL     1       0.122   1.155   0.762  0.00  0.00    +0.025 A 
ATOM     14  C   UNL     1       1.310   1.861   0.758  0.00  0.00    +0.022 A 
ATOM     15  C   UNL     1       2.379   1.413   0.004  0.00  0.00    +0.053 A 
ATOM     16  C   UNL     1       2.263   0.257  -0.749  0.00  0.00    +0.075 A 
ATOM     17  C   UNL     1       1.078  -0.452  -0.749  0.00  0.00    +0.037 A 
ATOM     18  C   UNL     1       0.002  -0.004   0.008  0.00  0.00    +0.034 A 
ATOM     19 CL   UNL     1       3.870   2.302   0.000  0.00  0.00    -0.083 Cl
BRANCH  16  20
ATOM     20  C   UNL     1       3.430  -0.228  -1.570  0.00  0.00    +0.419 C 
ATOM     21  F   UNL     1       3.074  -1.404  -2.238  0.00  0.00    -0.166 F 
ATOM     22  F   UNL     1       3.780   0.752  -2.506  0.00  0.00    -0.166 F 
ATOM     23  F   UNL     1       4.519  -0.480  -0.729  0.00  0.00    -0.166 F 
ENDBRANCH  16  20
ENDBRANCH   9  18
ENDBRANCH   8  10
ENDBRANCH   1   8
BRANCH   4  24
ATOM     24  C   UNL     1      -8.445   2.091  -0.214  0.00  0.00    -0.042 C 
BRANCH  24  25
ATOM     25  C   UNL     1      -9.735   1.343   0.003  0.00  0.00    -0.047 A 
ATOM     26  C   UNL     1     -10.205   1.113   1.255  0.00  0.00    +0.094 A 
ATOM     27  C   UNL     1     -11.416   0.410   1.432  0.00  0.00    +0.337 A 
ATOM     28  O   UNL     1     -11.827   0.209   2.560  0.00  0.00    -0.245 OA
ATOM     29  O   UNL     1     -12.127  -0.043   0.387  0.00  0.00    -0.422 OA
ATOM     30  C   UNL     1     -11.716   0.153  -0.884  0.00  0.00    +0.140 A 
ATOM     31  C   UNL     1     -10.521   0.850  -1.133  0.00  0.00    +0.019 A 
ATOM     32  C   UNL     1     -10.097   1.058  -2.447  0.00  0.00    +0.015 A 
ATOM     33  C   UNL     1     -10.856   0.584  -3.497  0.00  0.00    -0.043 A 
ATOM     34  C   UNL     1     -12.040  -0.099  -3.251  0.00  0.00    -0.041 A 
ATOM     35  C   UNL     1     -12.463  -0.319  -1.953  0.00  0.00    +0.051 A 
ATOM     36  C   UNL     1     -12.673  -0.508  -4.564  0.00  0.00    +0.036 C 
ATOM     37  C   UNL     1     -11.990   0.370  -5.634  0.00  0.00    +0.009 C 
ATOM     38  C   UNL     1     -10.622   0.676  -4.990  0.00  0.00    +0.036 C 
ENDBRANCH  24  25
ENDBRANCH   4  24
TORSDOF 6
