REMARK  Name = ZINC08920701
REMARK  11 active torsions:
REMARK  status: ('A' for Active; 'I' for Inactive)
REMARK    1  A    between atoms: C_1  and  C_2
REMARK    2  A    between atoms: C_2  and  C_3
REMARK    3  A    between atoms: C_3  and  N_4
REMARK    4  A    between atoms: C_10  and  N_16
REMARK    5  A    between atoms: C_11  and  C_12
REMARK    6  A    between atoms: N_14  and  C_15
REMARK    7  A    between atoms: C_17  and  C_19
REMARK    8  A    between atoms: C_22  and  S_25
REMARK    9  A    between atoms: S_25  and  N_28
REMARK   10  A    between atoms: N_28  and  C_29
REMARK   11  A    between atoms: N_28  and  C_30
REMARK                            x       y       z     vdW  Elec       q    Type
REMARK                         _______ _______ _______ _____ _____    ______ ____
ROOT
ATOM      1  N   UNL     1       0.443  -7.583   1.794  0.00  0.00    -0.275 N 
ATOM      2  C   UNL     1       1.208  -7.921   2.850  0.00  0.00    +0.249 C 
ATOM      3  O   UNL     1       1.929  -7.091   3.370  0.00  0.00    -0.270 OA
ATOM      4  H   UNL     1      -0.132  -8.245   1.379  0.00  0.00    +0.156 HD
ENDROOT
BRANCH   1  11
ATOM      5  N   UNL     1       0.900  -1.798  -0.696  0.00  0.00    +0.383 N 
ATOM      6  C   UNL     1      -0.516  -2.104  -0.938  0.00  0.00    -0.074 C 
ATOM      7  C   UNL     1      -0.693  -3.601  -1.215  0.00  0.00    +0.018 C 
ATOM      8  C   UNL     1      -0.016  -4.369  -0.089  0.00  0.00    -0.027 A 
ATOM      9  C   UNL     1       0.875  -3.747   0.718  0.00  0.00    -0.021 A 
ATOM     10  S   UNL     1       1.392  -4.995   1.857  0.00  0.00    -0.079 S 
ATOM     11  C   UNL     1       0.478  -6.289   1.299  0.00  0.00    +0.085 A 
ATOM     12  C   UNL     1      -0.234  -5.766   0.229  0.00  0.00    +0.068 A 
ATOM     13  C   UNL     1       1.300  -2.316   0.625  0.00  0.00    -0.035 C 
ATOM     14  H   UNL     1       1.463  -2.231  -1.412  0.00  0.00    -0.081 HD
BRANCH  12  15
ATOM     15  C   UNL     1      -1.167  -6.590  -0.545  0.00  0.00    +0.246 C 
ATOM     16  O   UNL     1      -0.772  -7.203  -1.520  0.00  0.00    -0.270 OA
ATOM     17  N   UNL     1      -2.461  -6.669  -0.178  0.00  0.00    -0.314 N 
ATOM     18  C   UNL     1      -3.393  -7.493  -0.953  0.00  0.00    +0.128 C 
ATOM     19  H   UNL     1      -2.776  -6.181   0.598  0.00  0.00    +0.149 HD
ENDBRANCH  12  15
BRANCH   5  20
ATOM     20  C   UNL     1       1.098  -0.343  -0.732  0.00  0.00    -0.079 C 
BRANCH  20  22
ATOM     21  C   UNL     1       2.796   1.488  -0.646  0.00  0.00    +0.002 C 
ATOM     22  C   UNL     1       2.590  -0.028  -0.609  0.00  0.00    -0.022 C 
ENDBRANCH  20  22
ENDBRANCH   5  20
ENDBRANCH   1  11
BRANCH   2  23
ATOM     23  C   UNL     1       1.171  -9.301   3.378  0.00  0.00    +0.037 A 
ATOM     24  C   UNL     1       0.349 -10.258   2.780  0.00  0.00    +0.015 A 
ATOM     25  C   UNL     1       0.320 -11.545   3.277  0.00  0.00    +0.029 A 
ATOM     26  C   UNL     1       1.102 -11.887   4.366  0.00  0.00    +0.109 A 
ATOM     27  C   UNL     1       1.919 -10.943   4.963  0.00  0.00    +0.029 A 
ATOM     28  C   UNL     1       1.962  -9.655   4.473  0.00  0.00    +0.015 A 
BRANCH  26  29
ATOM     29  S   UNL     1       1.058 -13.533   4.995  0.00  0.00    +0.074 S 
ATOM     30  O   UNL     1       1.467 -13.459   6.354  0.00  0.00    -0.150 OA
ATOM     31  O   UNL     1      -0.192 -14.083   4.605  0.00  0.00    -0.150 OA
BRANCH  29  32
ATOM     32  N   UNL     1       2.225 -14.394   4.196  0.00  0.00    -0.206 N 
ATOM     33  C   UNL     1       3.612 -14.358   4.664  0.00  0.00    +0.157 C 
BRANCH  32  34
ATOM     34  C   UNL     1       1.886 -15.155   3.074  0.00  0.00    +0.051 A 
ATOM     35  C   UNL     1       2.478 -14.887   1.846  0.00  0.00    +0.025 A 
ATOM     36  C   UNL     1       2.141 -15.641   0.740  0.00  0.00    +0.002 A 
ATOM     37  C   UNL     1       1.215 -16.662   0.853  0.00  0.00    +0.000 A 
ATOM     38  C   UNL     1       0.624 -16.932   2.074  0.00  0.00    +0.002 A 
ATOM     39  C   UNL     1       0.961 -16.185   3.186  0.00  0.00    +0.025 A 
ENDBRANCH  32  34
ENDBRANCH  29  32
ENDBRANCH  26  29
ENDBRANCH   2  23
TORSDOF 8
