REMARK  Name = ZINC29615863
REMARK  13 active torsions:
REMARK  status: ('A' for Active; 'I' for Inactive)
REMARK    1  A    between atoms: C_1  and  C_2
REMARK    2  A    between atoms: C_5  and  N_9
REMARK    3  A    between atoms: C_6  and  C_8
REMARK    4  A    between atoms: C_13  and  C_15
REMARK    5  A    between atoms: C_15  and  C_17
REMARK    6  A    between atoms: C_15  and  N_18
REMARK    7  A    between atoms: N_18  and  C_19
REMARK    8  A    between atoms: C_19  and  C_21
REMARK    9  A    between atoms: C_19  and  C_22
REMARK   10  A    between atoms: C_24  and  O_30
REMARK   11  A    between atoms: C_27  and  O_28
REMARK   12  A    between atoms: O_28  and  C_29
REMARK   13  A    between atoms: O_30  and  C_31
REMARK                            x       y       z     vdW  Elec       q    Type
REMARK                         _______ _______ _______ _____ _____    ______ ____
ROOT
ATOM      1  C   UNL     1      -0.870   1.853  -1.109  0.00  0.00    +0.014 C 
ATOM      2  C   UNL     1      -0.988   3.378  -1.131  0.00  0.00    -0.004 C 
ENDROOT
BRANCH   1   7
ATOM      3  N   UNL     1      -4.800   1.207  -3.800  0.00  0.00    -0.269 N 
ATOM      4  C   UNL     1      -4.122   0.949  -2.664  0.00  0.00    +0.310 C 
ATOM      5  O   UNL     1      -4.606   0.223  -1.819  0.00  0.00    -0.252 OA
ATOM      6  N   UNL     1      -2.907   1.498  -2.466  0.00  0.00    -0.241 N 
ATOM      7  C   UNL     1      -2.228   1.240  -1.331  0.00  0.00    +0.206 C 
ATOM      8  O   UNL     1      -2.711   0.515  -0.487  0.00  0.00    -0.277 OA
ATOM      9  H   UNL     1      -4.334   1.807  -4.595  0.00  0.00    +0.156 HD
ATOM     10  H   UNL     1      -2.469   2.155  -3.231  0.00  0.00    +0.159 HD
BRANCH   3  15
ATOM     11  C   UNL     1     -10.062  -0.803  -4.479  0.00  0.00    +0.044 C 
ATOM     12  C   UNL     1      -8.664  -0.269  -4.299  0.00  0.00    -0.050 A 
ATOM     13  C   UNL     1      -7.761  -0.953  -3.505  0.00  0.00    +0.005 A 
ATOM     14  C   UNL     1      -6.480  -0.466  -3.338  0.00  0.00    +0.024 A 
ATOM     15  C   UNL     1      -6.098   0.711  -3.968  0.00  0.00    +0.038 A 
ATOM     16  C   UNL     1      -7.008   1.398  -4.760  0.00  0.00    -0.029 A 
ATOM     17  C   UNL     1      -8.287   0.903  -4.927  0.00  0.00    +0.008 A 
ATOM     18  C   UNL     1      -6.600   2.679  -5.440  0.00  0.00    +0.045 C 
ENDBRANCH   3  15
ENDBRANCH   1   7
BRANCH   1  19
ATOM     19  N   UNL     1      -0.344   1.421   0.193  0.00  0.00    +0.391 N 
ATOM     20  H   UNL     1      -0.756   2.062   0.986  0.00  0.00    -0.084 HD
ATOM     21  H   UNL     1      -0.635   0.376   0.378  0.00  0.00    -0.084 HD
BRANCH  19  22
ATOM     22  C   UNL     1       1.122   1.514   0.226  0.00  0.00    -0.039 C 
ATOM     23  C   UNL     1       1.600   1.512   1.680  0.00  0.00    -0.009 C 
BRANCH  22  24
ATOM     24  C   UNL     1       1.716   0.335  -0.500  0.00  0.00    -0.016 A 
ATOM     25  C   UNL     1       1.012  -0.850  -0.587  0.00  0.00    +0.051 A 
ATOM     26  C   UNL     1       1.557  -1.933  -1.260  0.00  0.00    +0.121 A 
ATOM     27  C   UNL     1       2.814  -1.830  -1.836  0.00  0.00    +0.049 A 
ATOM     28  C   UNL     1       3.521  -0.647  -1.744  0.00  0.00    +0.049 A 
ATOM     29  C   UNL     1       2.974   0.438  -1.076  0.00  0.00    +0.122 A 
BRANCH  29  30
ATOM     30  O   UNL     1       3.670   1.603  -0.986  0.00  0.00    -0.495 OA
ATOM     31  C   UNL     1       4.958   1.638  -1.602  0.00  0.00    +0.277 C 
ENDBRANCH  29  30
BRANCH  26  32
ATOM     32  O   UNL     1       0.861  -3.098  -1.350  0.00  0.00    -0.495 OA
ATOM     33  C   UNL     1       1.486  -4.174  -2.052  0.00  0.00    +0.277 C 
ENDBRANCH  26  32
ENDBRANCH  22  24
ENDBRANCH  19  22
ENDBRANCH   1  19
TORSDOF 7
