REMARK  Name = ZINC67266813
REMARK  6 active torsions:
REMARK  status: ('A' for Active; 'I' for Inactive)
REMARK    1  A    between atoms: C_1  and  C_2
REMARK    2  A    between atoms: C_6  and  C_26
REMARK    3  A    between atoms: C_8  and  N_11
REMARK    4  A    between atoms: C_12  and  C_14
REMARK    5  A    between atoms: C_26  and  C_27
REMARK    6  A    between atoms: C_26  and  C_28
REMARK                            x       y       z     vdW  Elec       q    Type
REMARK                         _______ _______ _______ _____ _____    ______ ____
ROOT
ATOM      1  N   UNL     1      -0.612  -2.548   1.244  0.00  0.00    -0.312 N 
ATOM      2  C   UNL     1      -1.268  -2.692   2.412  0.00  0.00    +0.216 C 
ATOM      3  O   UNL     1      -0.721  -2.402   3.455  0.00  0.00    -0.276 OA
ATOM      4  H   UNL     1      -1.049  -2.780   0.410  0.00  0.00    +0.149 HD
ENDROOT
BRANCH   2   5
ATOM      5  C   UNL     1      -2.682  -3.213   2.422  0.00  0.00    +0.075 C 
ATOM      6  C   UNL     1      -3.576  -2.278   1.607  0.00  0.00    +0.015 C 
ATOM      7  C   UNL     1      -5.010  -2.814   1.609  0.00  0.00    +0.036 C 
ATOM      8  C   UNL     1      -5.517  -2.907   3.044  0.00  0.00    +0.112 C 
ATOM      9  C   UNL     1      -4.622  -3.820   3.875  0.00  0.00    +0.036 C 
ATOM     10  C   UNL     1      -3.190  -3.280   3.864  0.00  0.00    +0.015 C 
ATOM     11  C   UNL     1      -6.945  -3.402   3.069  0.00  0.00    +0.244 C 
ATOM     12  O   UNL     1      -7.359  -4.468   2.667  0.00  0.00    -0.273 OA
ATOM     13  N   UNL     1      -7.661  -2.408   3.633  0.00  0.00    -0.238 N 
ATOM     14  C   UNL     1      -6.886  -1.367   3.962  0.00  0.00    +0.307 C 
ATOM     15  O   UNL     1      -7.304  -0.352   4.484  0.00  0.00    -0.252 OA
ATOM     16  N   UNL     1      -5.592  -1.571   3.650  0.00  0.00    -0.285 N 
ATOM     17  H   UNL     1      -8.619  -2.442   3.781  0.00  0.00    +0.159 HD
ATOM     18  H   UNL     1      -4.856  -0.957   3.796  0.00  0.00    +0.151 HD
ENDBRANCH   2   5
BRANCH   1  24
ATOM     19  C   UNL     1      -0.019   1.526   0.010  0.00  0.00    +0.007 C 
ATOM     20  C   UNL     1       0.002  -0.004   0.002  0.00  0.00    -0.012 C 
ATOM     21  C   UNL     1       0.718  -0.497  -1.257  0.00  0.00    +0.004 C 
ATOM     22  C   UNL     1       0.739  -2.027  -1.265  0.00  0.00    +0.006 C 
ATOM     23  C   UNL     1       1.479  -2.534  -0.026  0.00  0.00    +0.012 C 
ATOM     24  C   UNL     1       0.763  -2.041   1.233  0.00  0.00    +0.077 C 
ATOM     25  C   UNL     1       0.742  -0.511   1.242  0.00  0.00    +0.025 C 
BRANCH  23  26
ATOM     26  C   UNL     1       1.500  -4.064  -0.034  0.00  0.00    -0.012 C 
ATOM     27  C   UNL     1       2.216  -4.557  -1.293  0.00  0.00    +0.007 C 
ATOM     28  C   UNL     1       2.240  -4.571   1.205  0.00  0.00    +0.007 C 
ENDBRANCH  23  26
ENDBRANCH   1  24
TORSDOF 3
