REMARK  Name = ZINC52905624
REMARK  5 active torsions:
REMARK  status: ('A' for Active; 'I' for Inactive)
REMARK    1  A    between atoms: C_1  and  N_2
REMARK    2  A    between atoms: N_2  and  C_3
REMARK    3  A    between atoms: N_2  and  C_10
REMARK    4  A    between atoms: C_3  and  C_4
REMARK    5  A    between atoms: C_15  and  C_16
REMARK                            x       y       z     vdW  Elec       q    Type
REMARK                         _______ _______ _______ _____ _____    ______ ____
ROOT
ATOM      1  C   UNL     1       0.000  -0.692  -1.205  0.00  0.00    +0.042 A 
ATOM      2  C   UNL     1       1.200  -1.027  -1.820  0.00  0.00    +0.024 A 
ATOM      3  C   UNL     1       1.196  -1.710  -3.019  0.00  0.00    +0.003 A 
ATOM      4  C   UNL     1       0.000  -2.068  -3.619  0.00  0.00    +0.021 A 
ATOM      5  C   UNL     1      -1.202  -1.744  -3.024  0.00  0.00    +0.053 A 
ATOM      6  C   UNL     1      -1.214  -1.058  -1.806  0.00  0.00    +0.051 A 
ATOM      7 CL   UNL     1      -2.697  -2.195  -3.782  0.00  0.00    -0.083 Cl
ENDROOT
BRANCH   6   8
ATOM      8  C   UNL     1      -2.495  -0.714  -1.160  0.00  0.00    +0.097 C 
ATOM      9  N   UNL     1      -3.298  -1.681  -0.716  0.00  0.00    -0.387 N 
ATOM     10  N   UNL     1      -2.849   0.564  -1.020  0.00  0.00    -0.344 N 
ATOM     11  H   UNL     1      -4.141  -1.455  -0.292  0.00  0.00    +0.157 HD
ATOM     12  H   UNL     1      -2.265   1.267  -1.343  0.00  0.00    +0.144 HD
ATOM     13  H   UNL     1      -3.692   0.789  -0.596  0.00  0.00    +0.144 HD
ATOM     14  H   UNL     1      -3.041  -2.611  -0.818  0.00  0.00    +0.157 HD
ENDBRANCH   6   8
BRANCH   1  16
ATOM     15  C   UNL     1      -0.018   1.461   0.010  0.00  0.00    +0.129 C 
ATOM     16  N   UNL     1       0.002  -0.004   0.002  0.00  0.00    -0.328 N 
BRANCH  16  17
ATOM     17  C   UNL     1       0.024  -0.743   1.267  0.00  0.00    +0.140 C 
BRANCH  17  18
ATOM     18  C   UNL     1      -1.389  -1.016   1.714  0.00  0.00    -0.022 A 
ATOM     19  C   UNL     1      -2.057  -0.112   2.519  0.00  0.00    +0.028 A 
ATOM     20  C   UNL     1      -3.328  -0.389   2.903  0.00  0.00    +0.055 A 
ATOM     21  S   UNL     1      -3.616  -1.966   2.119  0.00  0.00    -0.090 S 
ATOM     22  C   UNL     1      -2.026  -2.148   1.328  0.00  0.00    +0.051 A 
ATOM     23 BR   UNL     1      -4.492   0.632   3.989  0.00  0.00    -0.043 Br
ENDBRANCH  17  18
ENDBRANCH  16  17
ENDBRANCH   1  16
TORSDOF 4
