REMARK  Name = ZINC22936952
REMARK  7 active torsions:
REMARK  status: ('A' for Active; 'I' for Inactive)
REMARK    1  A    between atoms: C_1  and  N_2
REMARK    2  A    between atoms: C_8  and  C_10
REMARK    3  A    between atoms: C_10  and  C_11
REMARK    4  A    between atoms: C_11  and  C_12
REMARK    5  A    between atoms: C_22  and  N_25
REMARK    6  A    between atoms: N_25  and  C_26
REMARK    7  A    between atoms: C_26  and  C_27
REMARK                            x       y       z     vdW  Elec       q    Type
REMARK                         _______ _______ _______ _____ _____    ______ ____
ROOT
ATOM      1  C   UNL     1       4.036  -5.987   2.072  0.00  0.00    -0.050 C 
ATOM      2  C   UNL     1       5.129  -6.975   1.640  0.00  0.00    +0.089 C 
ATOM      3  N   UNL     1       5.416  -7.961   2.675  0.00  0.00    -0.318 N 
ATOM      4  C   UNL     1       4.683  -8.126   3.794  0.00  0.00    +0.200 C 
ATOM      5  O   UNL     1       4.922  -9.037   4.558  0.00  0.00    -0.278 OA
ATOM      6  C   UNL     1       3.573  -7.168   4.078  0.00  0.00    +0.021 C 
ATOM      7  N   UNL     1       3.011  -6.745   2.768  0.00  0.00    +0.391 N 
ATOM      8  C   UNL     1       1.761  -6.065   3.092  0.00  0.00    -0.059 C 
ATOM      9  C   UNL     1       1.229  -6.759   4.373  0.00  0.00    +0.036 C 
ATOM     10  C   UNL     1       2.352  -7.768   4.790  0.00  0.00    +0.010 C 
ATOM     11  H   UNL     1       6.186  -8.538   2.549  0.00  0.00    +0.149 HD
ATOM     12  H   UNL     1       2.790  -7.569   2.229  0.00  0.00    -0.080 HD
ENDROOT
BRANCH   9  13
ATOM     13  N   UNL     1      -0.026  -7.466   4.088  0.00  0.00    -0.311 NA
ATOM     14  H   UNL     1      -0.547  -6.999   3.361  0.00  0.00    +0.122 HD
BRANCH  13  15
ATOM     15  C   UNL     1      -0.836  -7.613   5.304  0.00  0.00    +0.116 C 
BRANCH  15  16
ATOM     16  C   UNL     1      -2.113  -8.342   4.973  0.00  0.00    -0.032 A 
ATOM     17  C   UNL     1      -3.233  -7.631   4.585  0.00  0.00    +0.005 A 
ATOM     18  C   UNL     1      -4.405  -8.298   4.281  0.00  0.00    +0.002 A 
ATOM     19  C   UNL     1      -4.457  -9.677   4.366  0.00  0.00    +0.020 A 
ATOM     20  C   UNL     1      -3.336 -10.389   4.754  0.00  0.00    +0.041 A 
ATOM     21  C   UNL     1      -2.162  -9.720   5.052  0.00  0.00    +0.025 A 
ATOM     22 CL   UNL     1      -3.401 -12.120   4.860  0.00  0.00    -0.084 Cl
ENDBRANCH  15  16
ENDBRANCH  13  15
ENDBRANCH   9  13
BRANCH   1  23
ATOM     23  C   UNL     1       3.434  -5.306   0.841  0.00  0.00    -0.005 C 
BRANCH  23  24
ATOM     24  C   UNL     1       4.486  -4.406   0.191  0.00  0.00    +0.094 C 
BRANCH  24  32
ATOM     25  C   UNL     1       7.128  -1.856  -4.895  0.00  0.00    +0.105 C 
ATOM     26  N   UNL     1       6.280  -1.855  -3.695  0.00  0.00    -0.302 NA
ATOM     27  C   UNL     1       4.897  -2.220  -4.027  0.00  0.00    +0.103 C 
ATOM     28  C   UNL     1       4.012  -2.031  -2.791  0.00  0.00    +0.123 C 
ATOM     29  N   UNL     1       4.603  -2.784  -1.674  0.00  0.00    -0.299 N 
ATOM     30  C   UNL     1       6.026  -2.573  -1.368  0.00  0.00    +0.123 C 
ATOM     31  C   UNL     1       6.832  -2.740  -2.660  0.00  0.00    +0.103 C 
ATOM     32  C   UNL     1       3.860  -3.645  -0.950  0.00  0.00    +0.216 C 
ATOM     33  O   UNL     1       2.688  -3.807  -1.216  0.00  0.00    -0.276 OA
ENDBRANCH  24  32
ENDBRANCH  23  24
ENDBRANCH   1  23
TORSDOF 6
