REMARK  Name = ZINC48732602
REMARK  5 active torsions:
REMARK  status: ('A' for Active; 'I' for Inactive)
REMARK    1  A    between atoms: C_1  and  C_2
REMARK    2  A    between atoms: C_8  and  C_9
REMARK    3  A    between atoms: C_8  and  N_12
REMARK    4  A    between atoms: N_15  and  C_16
REMARK    5  A    between atoms: C_16  and  C_17
REMARK                            x       y       z     vdW  Elec       q    Type
REMARK                         _______ _______ _______ _____ _____    ______ ____
ROOT
ATOM      1  N   UNL     1       0.056  -0.038   2.447  0.00  0.00    -0.283 N 
ATOM      2  C   UNL     1       0.533  -0.364   3.665  0.00  0.00    +0.300 C 
ATOM      3  O   UNL     1       1.532  -1.050   3.763  0.00  0.00    -0.253 OA
ATOM      4  N   UNL     1      -0.098   0.070   4.774  0.00  0.00    -0.299 N 
ATOM      5  H   UNL     1      -0.741   0.509   2.368  0.00  0.00    +0.151 HD
ATOM      6  H   UNL     1      -0.895   0.618   4.695  0.00  0.00    +0.150 HD
ENDROOT
BRANCH   1  13
ATOM      7  C   UNL     1      -0.019   1.526   0.010  0.00  0.00    +0.010 C 
ATOM      8  C   UNL     1       0.002  -0.004   0.002  0.00  0.00    +0.020 C 
ATOM      9  C   UNL     1      -1.433  -0.534   0.013  0.00  0.00    +0.006 C 
ATOM     10  C   UNL     1      -1.413  -2.063   0.004  0.00  0.00    +0.000 C 
ATOM     11  C   UNL     1      -0.673  -2.570   1.244  0.00  0.00    +0.003 C 
ATOM     12  C   UNL     1       0.763  -2.041   1.233  0.00  0.00    +0.038 C 
ATOM     13  C   UNL     1       0.742  -0.511   1.242  0.00  0.00    +0.140 C 
BRANCH  13  14
ATOM     14  C   UNL     1       2.156   0.011   1.231  0.00  0.00    +0.379 C 
ATOM     15  O   UNL     1       2.554   0.712   2.145  0.00  0.00    -0.244 OA
ATOM     16  O   UNL     1       2.902  -0.269   0.308  0.00  0.00    -0.244 OA
ENDBRANCH  13  14
ENDBRANCH   1  13
BRANCH   4  17
ATOM     17  C   UNL     1       0.420  -0.284   6.097  0.00  0.00    +0.109 C 
BRANCH  17  18
ATOM     18  C   UNL     1      -0.474   0.331   7.176  0.00  0.00    +0.006 C 
ATOM     19  C   UNL     1      -0.341   1.868   7.160  0.00  0.00    +0.005 C 
ATOM     20  C   UNL     1      -0.409   2.271   8.653  0.00  0.00    +0.000 C 
ATOM     21  C   UNL     1       0.380   1.135   9.351  0.00  0.00    +0.000 C 
ATOM     22  C   UNL     1      -0.016  -0.135   8.569  0.00  0.00    +0.005 C 
ENDBRANCH  17  18
ENDBRANCH   4  17
TORSDOF 4
