REMARK  Name = ZINC02785303
REMARK  6 active torsions:
REMARK  status: ('A' for Active; 'I' for Inactive)
REMARK    1  A    between atoms: C_1  and  C_2
REMARK    2  A    between atoms: C_2  and  N_52
REMARK    3  A    between atoms: C_13  and  C_16
REMARK    4  A    between atoms: C_19  and  C_21
REMARK    5  A    between atoms: C_21  and  O_22
REMARK    6  A    between atoms: O_22  and  C_23
REMARK                            x       y       z     vdW  Elec       q    Type
REMARK                         _______ _______ _______ _____ _____    ______ ____
ROOT
ATOM      1  C   UNL     1      -0.013   1.086   0.008  0.00  0.00    -0.074 C 
ATOM      2  C   UNL     1      -0.724   1.577   1.272  0.00  0.00    +0.018 C 
ATOM      3  C   UNL     1      -2.199   1.216   1.163  0.00  0.00    -0.027 A 
ATOM      4  C   UNL     1      -2.729   0.903  -0.042  0.00  0.00    -0.021 A 
ATOM      5  S   UNL     1      -4.436   0.556   0.286  0.00  0.00    -0.080 S 
ATOM      6  C   UNL     1      -4.442   0.821   1.978  0.00  0.00    +0.080 A 
ATOM      7  C   UNL     1      -3.118   1.175   2.285  0.00  0.00    +0.068 A 
ATOM      8  C   UNL     1      -2.801   1.464   3.703  0.00  0.00    +0.248 C 
ATOM      9  O   UNL     1      -1.653   1.611   4.079  0.00  0.00    -0.270 OA
ATOM     10  N   UNL     1      -3.839   1.558   4.562  0.00  0.00    -0.287 N 
ATOM     11  C   UNL     1      -5.237   1.552   4.145  0.00  0.00    +0.227 C 
ATOM     12  N   UNL     1      -5.429   0.746   2.925  0.00  0.00    -0.314 N 
ATOM     13  C   UNL     1      -2.006   0.869  -1.351  0.00  0.00    -0.035 C 
ATOM     14  H   UNL     1      -3.644   1.633   5.509  0.00  0.00    +0.151 HD
ATOM     15  H   UNL     1      -6.215   0.192   2.800  0.00  0.00    +0.149 HD
ATOM     16  N   UNL     1      -0.724   1.596  -1.182  0.00  0.00    +0.383 N 
ATOM     17  H   UNL     1      -0.922   2.595  -1.050  0.00  0.00    -0.081 HD
ENDROOT
BRANCH  11  18
ATOM     18  C   UNL     1      -5.677   2.968   3.875  0.00  0.00    +0.144 A 
ATOM     19  C   UNL     1      -5.178   4.072   4.461  0.00  0.00    +0.049 A 
ATOM     20  C   UNL     1      -5.873   5.175   3.914  0.00  0.00    +0.048 A 
ATOM     21  C   UNL     1      -6.760   4.679   3.033  0.00  0.00    +0.143 A 
ATOM     22  O   UNL     1      -6.637   3.341   3.013  0.00  0.00    -0.458 OA
BRANCH  21  23
ATOM     23  C   UNL     1      -7.729   5.486   2.208  0.00  0.00    +0.303 C 
BRANCH  23  24
ATOM     24  O   UNL     1      -7.117   5.841   0.966  0.00  0.00    -0.484 OA
BRANCH  24  25
ATOM     25  C   UNL     1      -7.861   6.576   0.099  0.00  0.00    +0.123 A 
ATOM     26  C   UNL     1      -7.329   6.956  -1.125  0.00  0.00    +0.047 A 
ATOM     27  C   UNL     1      -8.087   7.702  -2.006  0.00  0.00    +0.025 A 
ATOM     28  C   UNL     1      -9.377   8.072  -1.669  0.00  0.00    +0.059 A 
ATOM     29  C   UNL     1      -9.911   7.695  -0.448  0.00  0.00    +0.063 A 
ATOM     30  C   UNL     1      -9.156   6.943   0.433  0.00  0.00    +0.067 A 
ATOM     31 CL   UNL     1     -11.529   8.161  -0.028  0.00  0.00    -0.082 Cl
ATOM     32 CL   UNL     1     -10.327   9.011  -2.778  0.00  0.00    -0.082 Cl
ENDBRANCH  24  25
ENDBRANCH  23  24
ENDBRANCH  21  23
ENDBRANCH  11  18
BRANCH  16  34
ATOM     33  C   UNL     1      -0.540   2.161  -3.557  0.00  0.00    -0.017 C 
ATOM     34  C   UNL     1       0.117   1.426  -2.386  0.00  0.00    -0.082 C 
ENDBRANCH  16  34
TORSDOF 5
