REMARK  Name = ZINC12850819
REMARK  8 active torsions:
REMARK  status: ('A' for Active; 'I' for Inactive)
REMARK    1  A    between atoms: C_1  and  C_2
REMARK    2  A    between atoms: C_5  and  C_8
REMARK    3  A    between atoms: C_11  and  C_32
REMARK    4  A    between atoms: C_16  and  C_19
REMARK    5  A    between atoms: N_21  and  C_22
REMARK    6  A    between atoms: C_26  and  C_28
REMARK    7  A    between atoms: C_28  and  C_30
REMARK    8  A    between atoms: C_28  and  O_31
REMARK                            x       y       z     vdW  Elec       q    Type
REMARK                         _______ _______ _______ _____ _____    ______ ____
ROOT
ATOM      1  C   UNL     1      -0.275  -5.277   0.055  0.00  0.00    +0.113 C 
ATOM      2  C   UNL     1      -1.638  -5.552   0.692  0.00  0.00    +0.062 C 
ATOM      3  C   UNL     1      -1.912  -4.519   1.796  0.00  0.00    +0.201 C 
ATOM      4  N   UNL     1      -0.753  -4.527   2.696  0.00  0.00    -0.226 N 
ATOM      5  C   UNL     1       0.507  -4.937   2.286  0.00  0.00    +0.126 C 
ATOM      6  N   UNL     1       0.784  -5.313   1.071  0.00  0.00    -0.364 N 
ATOM      7  C   UNL     1       1.375  -4.841   3.466  0.00  0.00    +0.091 C 
ATOM      8  C   UNL     1       0.588  -4.362   4.494  0.00  0.00    +0.104 C 
ATOM      9  N   UNL     1      -0.674  -4.164   4.035  0.00  0.00    -0.269 N 
ATOM     10  H   UNL     1      -1.411  -3.819   4.563  0.00  0.00    +0.170 HD
ATOM     11  H   UNL     1       1.677  -5.612   0.841  0.00  0.00    +0.161 HD
ENDROOT
BRANCH   1  16
ATOM     12  C   UNL     1      -0.357  -0.063  -2.435  0.00  0.00    +0.044 C 
ATOM     13  C   UNL     1      -0.336  -1.423  -1.786  0.00  0.00    -0.050 A 
ATOM     14  C   UNL     1      -0.510  -2.558  -2.554  0.00  0.00    +0.004 A 
ATOM     15  C   UNL     1      -0.491  -3.806  -1.959  0.00  0.00    +0.006 A 
ATOM     16  C   UNL     1      -0.296  -3.917  -0.595  0.00  0.00    -0.025 A 
ATOM     17  C   UNL     1      -0.120  -2.782   0.174  0.00  0.00    +0.006 A 
ATOM     18  C   UNL     1      -0.135  -1.534  -0.422  0.00  0.00    +0.004 A 
ENDBRANCH   1  16
BRANCH   7  19
ATOM     19  C   UNL     1       2.798  -5.186   3.539  0.00  0.00    +0.253 C 
ATOM     20  O   UNL     1       3.428  -4.957   4.555  0.00  0.00    -0.270 OA
ATOM     21  N   UNL     1       3.408  -5.756   2.482  0.00  0.00    -0.281 N 
ATOM     22  H   UNL     1       2.927  -5.869   1.647  0.00  0.00    +0.155 HD
BRANCH  21  23
ATOM     23  C   UNL     1       4.735  -6.186   2.588  0.00  0.00    +0.034 A 
ATOM     24  C   UNL     1       5.212  -6.682   3.794  0.00  0.00    +0.023 A 
ATOM     25  C   UNL     1       6.522  -7.105   3.896  0.00  0.00    +0.002 A 
ATOM     26  C   UNL     1       7.360  -7.035   2.797  0.00  0.00    +0.006 A 
ATOM     27  C   UNL     1       6.889  -6.542   1.595  0.00  0.00    -0.018 A 
ATOM     28  C   UNL     1       5.577  -6.122   1.485  0.00  0.00    +0.029 A 
BRANCH  27  29
ATOM     29  C   UNL     1       7.805  -6.467   0.401  0.00  0.00    +0.141 C 
ATOM     30  C   UNL     1       7.811  -7.815  -0.322  0.00  0.00    +0.043 C 
BRANCH  29  31
ATOM     31  O   UNL     1       9.130  -6.154   0.836  0.00  0.00    -0.387 OA
ATOM     32  H   UNL     1       9.507  -6.803   1.446  0.00  0.00    +0.210 HD
ENDBRANCH  29  31
ENDBRANCH  27  29
ENDBRANCH  21  23
ENDBRANCH   7  19
BRANCH   3  33
ATOM     33  C   UNL     1      -3.176  -4.905   2.568  0.00  0.00    +0.410 C 
ATOM     34  F   UNL     1      -3.001  -6.165   3.149  0.00  0.00    -0.169 F 
ATOM     35  F   UNL     1      -3.417  -3.959   3.570  0.00  0.00    -0.169 F 
ATOM     36  F   UNL     1      -4.265  -4.943   1.691  0.00  0.00    -0.169 F 
ENDBRANCH   3  33
TORSDOF 6
