REMARK  Name = ZINC39360384
REMARK  5 active torsions:
REMARK  status: ('A' for Active; 'I' for Inactive)
REMARK    1  A    between atoms: C_1  and  O_2
REMARK    2  A    between atoms: O_2  and  C_3
REMARK    3  A    between atoms: C_6  and  C_9
REMARK    4  A    between atoms: C_10  and  C_11
REMARK    5  A    between atoms: C_19  and  C_23
REMARK                            x       y       z     vdW  Elec       q    Type
REMARK                         _______ _______ _______ _____ _____    ______ ____
ROOT
ATOM      1  C   UNL     1       3.751  -3.696   6.248  0.00  0.00    +0.292 C 
ATOM      2  O   UNL     1       3.804  -4.911   6.294  0.00  0.00    -0.260 OA
ATOM      3  N   UNL     1       4.312  -2.959   7.228  0.00  0.00    -0.286 N 
ATOM      4  C   UNL     1       4.256  -1.490   7.199  0.00  0.00    +0.115 C 
ATOM      5  C   UNL     1       3.445  -0.988   8.399  0.00  0.00    +0.076 C 
ATOM      6  C   UNL     1       3.900  -1.721   9.641  0.00  0.00    +0.067 C 
ATOM      7  C   UNL     1       4.581  -2.872   9.607  0.00  0.00    -0.003 C 
ATOM      8  C   UNL     1       4.995  -3.603   8.367  0.00  0.00    +0.143 C 
ATOM      9  C   UNL     1       4.811  -3.232  11.052  0.00  0.00    +0.160 C 
ATOM     10  N   UNL     1       4.163  -2.116  11.768  0.00  0.00    -0.179 NA
ATOM     11  N   UNL     1       3.697  -1.345  10.924  0.00  0.00    -0.158 NA
ENDROOT
BRANCH   9  12
ATOM     12  C   UNL     1       4.141  -4.564  11.392  0.00  0.00    +0.020 C 
ATOM     13  C   UNL     1       2.642  -4.435  11.712  0.00  0.00    +0.006 C 
ATOM     14  C   UNL     1       2.872  -5.467  12.829  0.00  0.00    +0.001 C 
ATOM     15  C   UNL     1       4.336  -4.995  12.855  0.00  0.00    +0.006 C 
ENDBRANCH   9  12
BRANCH   1  17
ATOM     16  C   UNL     1       2.554  -2.518   4.255  0.00  0.00    -0.057 C 
ATOM     17  C   UNL     1       3.094  -3.048   5.153  0.00  0.00    -0.003 C 
BRANCH  16  21
ATOM     18  C   UNL     1       0.625  -0.618   1.040  0.00  0.00    +0.120 A 
ATOM     19  C   UNL     1       1.202   0.144   2.050  0.00  0.00    +0.047 A 
ATOM     20  C   UNL     1       1.835  -0.473   3.105  0.00  0.00    +0.020 A 
ATOM     21  C   UNL     1       1.897  -1.870   3.160  0.00  0.00    +0.026 A 
ATOM     22  C   UNL     1       1.314  -2.633   2.141  0.00  0.00    +0.020 A 
ATOM     23  C   UNL     1       0.679  -2.006   1.093  0.00  0.00    +0.047 A 
BRANCH  18  25
ATOM     24  C   UNL     1      -0.017   1.425   0.010  0.00  0.00    +0.277 C 
ATOM     25  O   UNL     1       0.002  -0.004   0.002  0.00  0.00    -0.495 OA
ENDBRANCH  18  25
ENDBRANCH  16  21
ENDBRANCH   1  17
TORSDOF 4
