REMARK  Name = ZINC31160875
REMARK  9 active torsions:
REMARK  status: ('A' for Active; 'I' for Inactive)
REMARK    1  A    between atoms: C_1  and  C_2
REMARK    2  A    between atoms: C_2  and  C_4
REMARK    3  A    between atoms: C_2  and  N_15
REMARK    4  A    between atoms: N_9  and  C_10
REMARK    5  A    between atoms: N_15  and  C_16
REMARK    6  A    between atoms: N_15  and  C_17
REMARK    7  A    between atoms: C_17  and  C_18
REMARK    8  A    between atoms: N_20  and  C_21
REMARK    9  A    between atoms: C_25  and  C_27
REMARK                            x       y       z     vdW  Elec       q    Type
REMARK                         _______ _______ _______ _____ _____    ______ ____
ROOT
ATOM      1  N   UNL     1       9.163   2.572   1.976  0.00  0.00    +0.391 N 
ATOM      2  C   UNL     1       9.397   1.782   3.193  0.00  0.00    -0.094 C 
ATOM      3  H   UNL     1       8.632   3.490   2.267  0.00  0.00    -0.080 HD
ENDROOT
BRANCH   1   5
ATOM      4  C   UNL     1       8.924   0.464   0.753  0.00  0.00    -0.004 C 
ATOM      5  C   UNL     1       8.314   1.839   1.028  0.00  0.00    +0.017 C 
BRANCH   5   6
ATOM      6  C   UNL     1       6.936   1.669   1.615  0.00  0.00    +0.207 C 
ATOM      7  O   UNL     1       6.687   2.115   2.715  0.00  0.00    -0.277 OA
ATOM      8  N   UNL     1       5.981   1.023   0.918  0.00  0.00    -0.242 N 
ATOM      9  C   UNL     1       4.750   0.871   1.443  0.00  0.00    +0.306 C 
ATOM     10  O   UNL     1       4.500   1.317   2.546  0.00  0.00    -0.252 OA
ATOM     11  N   UNL     1       3.795   0.224   0.746  0.00  0.00    -0.296 N 
ATOM     12  H   UNL     1       6.207   0.619  -0.080  0.00  0.00    +0.159 HD
ATOM     13  H   UNL     1       4.021  -0.179  -0.253  0.00  0.00    +0.151 HD
BRANCH  11  14
ATOM     14  C   UNL     1       2.456   0.059   1.316  0.00  0.00    +0.074 C 
ATOM     15  C   UNL     1       1.532   1.229   0.896  0.00  0.00    +0.022 C 
ATOM     16  C   UNL     1       0.107   0.648   1.017  0.00  0.00    +0.002 C 
ATOM     17  C   UNL     1       0.244  -0.880   0.895  0.00  0.00    +0.002 C 
ATOM     18  C   UNL     1       1.746  -1.174   0.704  0.00  0.00    +0.022 C 
ENDBRANCH  11  14
ENDBRANCH   5   6
ENDBRANCH   1   5
BRANCH   1  19
ATOM     19  C   UNL     1      10.434   2.964   1.351  0.00  0.00    +0.020 C 
BRANCH  19  20
ATOM     20  C   UNL     1      11.169   3.914   2.260  0.00  0.00    +0.201 C 
ATOM     21  O   UNL     1      10.683   4.234   3.325  0.00  0.00    -0.278 OA
ATOM     22  N   UNL     1      12.367   4.409   1.891  0.00  0.00    -0.287 N 
ATOM     23  H   UNL     1      12.848   4.054   0.968  0.00  0.00    +0.155 HD
BRANCH  22  24
ATOM     24  C   UNL     1      12.999   5.376   2.682  0.00  0.00    +0.034 A 
ATOM     25  C   UNL     1      12.241   6.309   3.377  0.00  0.00    +0.025 A 
ATOM     26  C   UNL     1      12.867   7.259   4.161  0.00  0.00    +0.022 A 
ATOM     27  C   UNL     1      14.248   7.287   4.245  0.00  0.00    +0.053 A 
ATOM     28  C   UNL     1      15.005   6.361   3.550  0.00  0.00    +0.075 A 
ATOM     29  C   UNL     1      14.384   5.406   2.769  0.00  0.00    +0.037 A 
ATOM     30 CL   UNL     1      15.032   8.486   5.227  0.00  0.00    -0.083 Cl
BRANCH  28  31
ATOM     31  C   UNL     1      16.509   6.394   3.644  0.00  0.00    +0.419 C 
ATOM     32  F   UNL     1      17.049   5.369   2.861  0.00  0.00    -0.166 F 
ATOM     33  F   UNL     1      16.978   7.629   3.184  0.00  0.00    -0.166 F 
ATOM     34  F   UNL     1      16.896   6.216   4.977  0.00  0.00    -0.166 F 
ENDBRANCH  28  31
ENDBRANCH  22  24
ENDBRANCH  19  20
ENDBRANCH   1  19
TORSDOF 7
