REMARK  Name = ZINC09019535
REMARK  9 active torsions:
REMARK  status: ('A' for Active; 'I' for Inactive)
REMARK    1  A    between atoms: C_1  and  C_2
REMARK    2  A    between atoms: C_2  and  O_3
REMARK    3  A    between atoms: O_3  and  C_4
REMARK    4  A    between atoms: C_4  and  C_6
REMARK    5  A    between atoms: C_7  and  N_17
REMARK    6  A    between atoms: C_18  and  C_20
REMARK    7  A    between atoms: C_20  and  C_21
REMARK    8  A    between atoms: C_21  and  N_59
REMARK    9  A    between atoms: N_24  and  C_27
REMARK                            x       y       z     vdW  Elec       q    Type
REMARK                         _______ _______ _______ _____ _____    ______ ____
ROOT
ATOM      1  N   UNL     1       3.077   0.093  -0.041  0.00  0.00    -0.283 N 
ATOM      2  C   UNL     1       4.335  -0.148  -0.461  0.00  0.00    +0.215 C 
ATOM      3  O   UNL     1       5.070   0.776  -0.735  0.00  0.00    -0.276 OA
ATOM      4  H   UNL     1       2.507  -0.642   0.233  0.00  0.00    +0.155 HD
ENDROOT
BRANCH   1   6
ATOM      5  C   UNL     1       1.604   1.886   0.825  0.00  0.00    +0.147 A 
ATOM      6  C   UNL     1       2.595   1.398  -0.001  0.00  0.00    +0.073 A 
ATOM      7  C   UNL     1       3.043   2.522  -0.827  0.00  0.00    +0.023 A 
ATOM      8  C   UNL     1       4.006   2.654  -1.833  0.00  0.00    +0.027 A 
ATOM      9  C   UNL     1       4.202   3.866  -2.430  0.00  0.00    +0.019 A 
ATOM     10  C   UNL     1       3.445   4.969  -2.053  0.00  0.00    +0.017 A 
ATOM     11  C   UNL     1       2.492   4.862  -1.065  0.00  0.00    +0.027 A 
ATOM     12  C   UNL     1       2.277   3.636  -0.438  0.00  0.00    +0.049 A 
ATOM     13  N   UNL     1       1.417   3.234   0.557  0.00  0.00    -0.348 N 
ATOM     14  H   UNL     1       0.776   3.807   1.005  0.00  0.00    +0.166 HD
ATOM     15 BR   UNL     1       5.509   4.045  -3.785  0.00  0.00    -0.050 Br
BRANCH   5  16
ATOM     16  C   UNL     1       0.891   1.131   1.791  0.00  0.00    +0.358 C 
ATOM     17  O   UNL     1       1.206  -0.023   2.015  0.00  0.00    -0.243 OA
BRANCH  16  18
ATOM     18  O   UNL     1      -0.137   1.692   2.462  0.00  0.00    -0.460 OA
BRANCH  18  20
ATOM     19  C   UNL     1      -1.937   1.677   4.074  0.00  0.00    +0.048 C 
ATOM     20  C   UNL     1      -0.810   0.874   3.421  0.00  0.00    +0.229 C 
ENDBRANCH  18  20
ENDBRANCH  16  18
ENDBRANCH   5  16
ENDBRANCH   1   6
BRANCH   2  21
ATOM     21  C   UNL     1       4.827  -1.567  -0.589  0.00  0.00    +0.077 C 
BRANCH  21  22
ATOM     22  C   UNL     1       6.276  -1.561  -1.081  0.00  0.00    -0.069 C 
BRANCH  22  28
ATOM     23  C   UNL     1       6.838  -3.594   0.109  0.00  0.00    -0.060 C 
ATOM     24  C   UNL     1       7.264  -5.053  -0.072  0.00  0.00    +0.086 C 
ATOM     25  N   UNL     1       8.560  -5.100  -0.761  0.00  0.00    -0.331 N 
ATOM     26  C   UNL     1       8.478  -4.450  -2.077  0.00  0.00    +0.086 C 
ATOM     27  C   UNL     1       8.052  -2.991  -1.896  0.00  0.00    -0.060 C 
ATOM     28  N   UNL     1       6.737  -2.959  -1.221  0.00  0.00    +0.382 N 
ATOM     29  H   UNL     1       6.058  -3.479  -1.789  0.00  0.00    -0.082 HD
BRANCH  25  30
ATOM     30  C   UNL     1       9.017  -6.417  -0.881  0.00  0.00    +0.065 A 
ATOM     31  C   UNL     1      10.262  -6.673  -1.439  0.00  0.00    +0.026 A 
ATOM     32  C   UNL     1      10.712  -7.975  -1.552  0.00  0.00    +0.002 A 
ATOM     33  C   UNL     1       9.921  -9.023  -1.119  0.00  0.00    +0.003 A 
ATOM     34  C   UNL     1       8.678  -8.773  -0.566  0.00  0.00    +0.040 A 
ATOM     35  C   UNL     1       8.223  -7.472  -0.446  0.00  0.00    +0.144 A 
ATOM     36  F   UNL     1       7.008  -7.228   0.093  0.00  0.00    -0.204 F 
ENDBRANCH  25  30
ENDBRANCH  22  28
ENDBRANCH  21  22
ENDBRANCH   2  21
TORSDOF 8
