REMARK  Name = ZINC63868508
REMARK  3 active torsions:
REMARK  status: ('A' for Active; 'I' for Inactive)
REMARK    1  A    between atoms: C_2  and  C_23
REMARK    2  A    between atoms: N_5  and  C_6
REMARK    3  A    between atoms: C_14  and  N_22
REMARK                            x       y       z     vdW  Elec       q    Type
REMARK                         _______ _______ _______ _____ _____    ______ ____
ROOT
ATOM      1  C   UNL     1      -1.181  -0.869  -0.017  0.00  0.00    +0.112 C 
ATOM      2  C   UNL     1      -2.312  -0.252  -0.843  0.00  0.00    +0.046 C 
ATOM      3  C   UNL     1      -3.519  -1.195  -0.834  0.00  0.00    +0.108 C 
ATOM      4  N   UNL     1      -3.880  -1.488   0.560  0.00  0.00    -0.318 N 
ATOM      5  C   UNL     1      -2.843  -2.000   1.465  0.00  0.00    +0.108 C 
ATOM      6  C   UNL     1      -1.643  -1.048   1.431  0.00  0.00    +0.046 C 
ATOM      7  C   UNL     1      -5.141  -1.289   1.000  0.00  0.00    +0.110 C 
ATOM      8  N   UNL     1      -6.048  -0.716   0.234  0.00  0.00    -0.316 N 
ATOM      9  C   UNL     1      -7.337  -0.606   0.577  0.00  0.00    +0.212 C 
ATOM     10  N   UNL     1      -7.872  -1.334   1.560  0.00  0.00    -0.197 NA
ATOM     11  C   UNL     1      -7.047  -2.023   2.326  0.00  0.00    +0.166 C 
ATOM     12  N   UNL     1      -7.174  -3.069   3.095  0.00  0.00    -0.218 NA
ATOM     13  C   UNL     1      -5.991  -3.658   3.307  0.00  0.00    +0.218 C 
ATOM     14  N   UNL     1      -4.980  -2.949   2.878  0.00  0.00    -0.254 NA
ATOM     15  C   UNL     1      -5.557  -1.718   2.371  0.00  0.00    +0.235 C 
ATOM     16  H   UNL     1      -5.767  -0.356  -0.622  0.00  0.00    +0.170 HD
ENDROOT
BRANCH   1  21
ATOM     17  C   UNL     1      -0.043   1.368  -0.077  0.00  0.00    +0.134 A 
ATOM     18  C   UNL     1       1.248   1.773  -0.102  0.00  0.00    +0.086 A 
ATOM     19  N   UNL     1       1.995   0.664  -0.090  0.00  0.00    -0.134 NA
ATOM     20  N   UNL     1       1.218  -0.361  -0.060  0.00  0.00    -0.065 NA
ATOM     21  N   UNL     1      -0.013   0.015  -0.051  0.00  0.00    -0.248 N 
BRANCH  18  22
ATOM     22  C   UNL     1       1.746   3.195  -0.138  0.00  0.00    +0.041 C 
ATOM     23  C   UNL     1       0.745   4.285  -0.529  0.00  0.00    +0.010 C 
ATOM     24  C   UNL     1       1.849   3.874  -1.505  0.00  0.00    +0.010 C 
ENDBRANCH  18  22
ENDBRANCH   1  21
BRANCH   9  25
ATOM     25  N   UNL     1      -8.130   0.281  -0.100  0.00  0.00    -0.234 NA
ATOM     26  H   UNL     1      -9.066   0.373   0.137  0.00  0.00    +0.173 HD
ENDBRANCH   9  25
TORSDOF 3
