REMARK  Name = ZINC43222421
REMARK  11 active torsions:
REMARK  status: ('A' for Active; 'I' for Inactive)
REMARK    1  A    between atoms: C_1  and  C_2
REMARK    2  A    between atoms: C_2  and  C_4
REMARK    3  A    between atoms: C_2  and  N_12
REMARK    4  A    between atoms: C_4  and  C_5
REMARK    5  A    between atoms: C_5  and  C_6
REMARK    6  A    between atoms: C_13  and  C_15
REMARK    7  A    between atoms: C_20  and  C_22
REMARK    8  A    between atoms: N_24  and  C_25
REMARK    9  A    between atoms: C_25  and  C_26
REMARK   10  A    between atoms: C_31  and  O_32
REMARK   11  A    between atoms: O_32  and  C_33
REMARK                            x       y       z     vdW  Elec       q    Type
REMARK                         _______ _______ _______ _____ _____    ______ ____
ROOT
ATOM      1  C   UNL     1       0.780  -1.133   3.576  0.00  0.00    +0.068 C 
ATOM      2  C   UNL     1       1.895  -0.143   3.977  0.00  0.00    -0.069 C 
ATOM      3  N   UNL     1       1.272   0.724   5.010  0.00  0.00    +0.380 N 
ATOM      4  C   UNL     1       0.447  -0.208   5.820  0.00  0.00    -0.069 C 
ATOM      5  C   UNL     1      -0.173  -1.178   4.788  0.00  0.00    +0.068 C 
ATOM      6  H   UNL     1       1.982   1.156   5.583  0.00  0.00    -0.086 HD
ATOM      7  H   UNL     1       0.691   1.426   4.578  0.00  0.00    -0.086 HD
ENDROOT
BRANCH   1   9
ATOM      8  N   UNL     1       0.711  -0.489   1.189  0.00  0.00    -0.313 N 
ATOM      9  C   UNL     1       0.051  -0.633   2.355  0.00  0.00    +0.215 C 
ATOM     10  O   UNL     1      -1.129  -0.361   2.423  0.00  0.00    -0.276 OA
ATOM     11  H   UNL     1       1.654  -0.707   1.135  0.00  0.00    +0.149 HD
BRANCH   8  13
ATOM     12  C   UNL     1      -0.019   1.526   0.010  0.00  0.00    +0.028 C 
ATOM     13  C   UNL     1       0.002  -0.004   0.002  0.00  0.00    +0.070 C 
BRANCH  13  14
ATOM     14  C   UNL     1       0.718  -0.497  -1.257  0.00  0.00    +0.026 C 
BRANCH  14  15
ATOM     15  C   UNL     1       0.630  -2.023  -1.329  0.00  0.00    +0.037 C 
BRANCH  15  16
ATOM     16  C   UNL     1       1.336  -2.509  -2.568  0.00  0.00    -0.047 A 
ATOM     17  C   UNL     1       0.638  -2.639  -3.755  0.00  0.00    +0.003 A 
ATOM     18  C   UNL     1       1.285  -3.085  -4.892  0.00  0.00    +0.000 A 
ATOM     19  C   UNL     1       2.630  -3.400  -4.843  0.00  0.00    +0.000 A 
ATOM     20  C   UNL     1       3.328  -3.270  -3.657  0.00  0.00    +0.000 A 
ATOM     21  C   UNL     1       2.682  -2.820  -2.521  0.00  0.00    +0.003 A 
ENDBRANCH  15  16
ENDBRANCH  14  15
ENDBRANCH  13  14
ENDBRANCH   8  13
ENDBRANCH   1   9
BRANCH   5  22
ATOM     22  C   UNL     1      -0.237  -2.574   5.352  0.00  0.00    +0.215 C 
ATOM     23  O   UNL     1       0.413  -3.464   4.844  0.00  0.00    -0.276 OA
ATOM     24  N   UNL     1      -1.017  -2.835   6.420  0.00  0.00    -0.311 N 
ATOM     25  H   UNL     1      -1.537  -2.124   6.826  0.00  0.00    +0.149 HD
BRANCH  24  26
ATOM     26  C   UNL     1      -1.079  -4.192   6.968  0.00  0.00    +0.143 C 
BRANCH  26  27
ATOM     27  C   UNL     1      -2.014  -4.215   8.149  0.00  0.00    +0.011 A 
ATOM     28  C   UNL     1      -1.507  -4.174   9.434  0.00  0.00    +0.009 A 
ATOM     29  C   UNL     1      -2.364  -4.195  10.518  0.00  0.00    +0.001 A 
ATOM     30  C   UNL     1      -3.732  -4.257  10.320  0.00  0.00    +0.004 A 
ATOM     31  C   UNL     1      -4.244  -4.297   9.038  0.00  0.00    +0.046 A 
ATOM     32  C   UNL     1      -3.385  -4.271   7.948  0.00  0.00    +0.125 A 
BRANCH  32  33
ATOM     33  O   UNL     1      -3.887  -4.305   6.685  0.00  0.00    -0.495 OA
ATOM     34  C   UNL     1      -5.309  -4.362   6.553  0.00  0.00    +0.277 C 
ENDBRANCH  32  33
ENDBRANCH  26  27
ENDBRANCH  24  26
ENDBRANCH   5  22
TORSDOF 9
