REMARK  Name = ZINC63746295
REMARK  9 active torsions:
REMARK  status: ('A' for Active; 'I' for Inactive)
REMARK    1  A    between atoms: C_1  and  C_2
REMARK    2  A    between atoms: C_5  and  N_8
REMARK    3  A    between atoms: N_11  and  C_12
REMARK    4  A    between atoms: C_14  and  C_38
REMARK    5  A    between atoms: C_17  and  C_32
REMARK    6  A    between atoms: C_18  and  C_22
REMARK    7  A    between atoms: N_24  and  C_25
REMARK    8  A    between atoms: C_25  and  C_26
REMARK    9  A    between atoms: C_26  and  C_27
REMARK                            x       y       z     vdW  Elec       q    Type
REMARK                         _______ _______ _______ _____ _____    ______ ____
ROOT
ATOM      1  C   UNL     1       0.281  -6.814   2.374  0.00  0.00    +0.059 A 
ATOM      2  C   UNL     1       0.282  -6.156   3.564  0.00  0.00    +0.028 A 
ATOM      3  C   UNL     1       0.311  -6.840   4.783  0.00  0.00    -0.048 A 
ATOM      4  C   UNL     1       0.340  -8.190   4.857  0.00  0.00    +0.013 A 
ATOM      5  C   UNL     1       0.341  -8.972   3.676  0.00  0.00    +0.006 A 
ATOM      6  C   UNL     1       0.367 -10.338   3.457  0.00  0.00    -0.000 C 
ATOM      7  C   UNL     1       0.351 -10.511   1.954  0.00  0.00    +0.198 C 
ATOM      8  N   UNL     1       0.316  -9.157   1.391  0.00  0.00    -0.368 N 
ATOM      9  C   UNL     1       0.305  -8.285   2.371  0.00  0.00    +0.065 A 
ATOM     10  C   UNL     1       0.311  -6.043   6.062  0.00  0.00    +0.044 C 
ATOM     11  H   UNL     1       0.300  -8.941   0.446  0.00  0.00    +0.161 HD
ENDROOT
BRANCH   1  15
ATOM     12  N   UNL     1      -0.544  -4.310  -0.096  0.00  0.00    -0.269 N 
ATOM     13  C   UNL     1      -0.439  -4.948   1.086  0.00  0.00    +0.308 C 
ATOM     14  O   UNL     1      -0.968  -4.483   2.078  0.00  0.00    -0.252 OA
ATOM     15  N   UNL     1       0.252  -6.103   1.170  0.00  0.00    -0.267 N 
ATOM     16  H   UNL     1      -0.198  -4.723  -0.903  0.00  0.00    +0.156 HD
ATOM     17  H   UNL     1       0.728  -6.440   0.396  0.00  0.00    +0.156 HD
BRANCH  12  22
ATOM     18  C   UNL     1      -3.005   0.795  -0.357  0.00  0.00    +0.044 C 
ATOM     19  C   UNL     1      -2.352  -0.561  -0.287  0.00  0.00    -0.050 A 
ATOM     20  C   UNL     1      -1.757  -0.981   0.888  0.00  0.00    +0.005 A 
ATOM     21  C   UNL     1      -1.157  -2.224   0.955  0.00  0.00    +0.023 A 
ATOM     22  C   UNL     1      -1.151  -3.051  -0.160  0.00  0.00    +0.035 A 
ATOM     23  C   UNL     1      -1.750  -2.627  -1.339  0.00  0.00    +0.023 A 
ATOM     24  C   UNL     1      -2.353  -1.386  -1.398  0.00  0.00    +0.005 A 
ENDBRANCH  12  22
ENDBRANCH   1  15
BRANCH   6  25
ATOM     25  C   UNL     1       0.402 -11.396   4.468  0.00  0.00    -0.019 A 
ATOM     26  C   UNL     1       0.918 -11.134   5.746  0.00  0.00    +0.008 A 
ATOM     27  C   UNL     1       0.947 -12.136   6.691  0.00  0.00    +0.001 A 
ATOM     28  C   UNL     1       0.468 -13.399   6.383  0.00  0.00    +0.000 A 
ATOM     29  C   UNL     1      -0.043 -13.667   5.124  0.00  0.00    +0.001 A 
ATOM     30  C   UNL     1      -0.086 -12.676   4.168  0.00  0.00    +0.008 A 
ENDBRANCH   6  25
BRANCH   7  31
ATOM     31  C   UNL     1       1.596 -11.231   1.501  0.00  0.00    +0.240 C 
ATOM     32  O   UNL     1       2.560 -10.598   1.126  0.00  0.00    -0.273 OA
ATOM     33  N   UNL     1       1.638 -12.578   1.514  0.00  0.00    -0.313 N 
ATOM     34  H   UNL     1       0.844 -13.085   1.744  0.00  0.00    +0.149 HD
BRANCH  33  35
ATOM     35  C   UNL     1       2.882 -13.275   1.181  0.00  0.00    +0.112 C 
BRANCH  35  36
ATOM     36  C   UNL     1       2.660 -14.786   1.270  0.00  0.00    +0.093 C 
BRANCH  36  37
ATOM     37  C   UNL     1       3.940 -15.503   0.928  0.00  0.00    +0.106 A 
ATOM     38  C   UNL     1       4.898 -15.864   1.801  0.00  0.00    +0.044 A 
ATOM     39  C   UNL     1       5.912 -16.506   1.055  0.00  0.00    +0.041 A 
ATOM     40  C   UNL     1       5.514 -16.500  -0.230  0.00  0.00    +0.195 A 
ATOM     41  O   UNL     1       4.316 -15.897  -0.300  0.00  0.00    -0.468 OA
ENDBRANCH  36  37
ENDBRANCH  35  36
ENDBRANCH  33  35
ENDBRANCH   7  31
TORSDOF 7
