REMARK  Name = ZINC05049245
REMARK  5 active torsions:
REMARK  status: ('A' for Active; 'I' for Inactive)
REMARK    1  A    between atoms: C_1  and  C_2
REMARK    2  A    between atoms: C_2  and  O_3
REMARK    3  A    between atoms: O_3  and  C_4
REMARK    4  A    between atoms: N_6  and  N_7
REMARK    5  A    between atoms: N_7  and  C_8
REMARK                            x       y       z     vdW  Elec       q    Type
REMARK                         _______ _______ _______ _____ _____    ______ ____
ROOT
ATOM      1  N   UNL     1      -3.858  -1.530   0.031  0.00  0.00    -0.268 N 
ATOM      2  H   UNL     1      -3.744  -0.566   0.035  0.00  0.00    +0.169 HD
ENDROOT
BRANCH   1   3
ATOM      3  C   UNL     1      -5.091  -2.060   0.040  0.00  0.00    +0.099 C 
ATOM      4  C   UNL     1      -6.209  -1.225   0.055  0.00  0.00    +0.037 C 
ATOM      5  C   UNL     1      -6.046   0.179   0.055  0.00  0.00    +0.017 C 
ATOM      6  C   UNL     1      -7.133   0.988   0.070  0.00  0.00    +0.051 C 
ATOM      7  C   UNL     1      -8.430   0.433   0.085  0.00  0.00    +0.183 C 
ATOM      8  O   UNL     1      -9.408   1.169   0.099  0.00  0.00    -0.288 OA
ATOM      9  C   UNL     1      -8.602  -0.959   0.085  0.00  0.00    +0.102 C 
ATOM     10  C   UNL     1      -7.513  -1.782   0.064  0.00  0.00    +0.191 C 
ATOM     11  O   UNL     1      -7.678  -3.127   0.058  0.00  0.00    -0.287 OA
ENDBRANCH   1   3
BRANCH   1  14
ATOM     12  C   UNL     1      -1.497  -1.836   0.006  0.00  0.00    +0.417 C 
ATOM     13  O   UNL     1      -0.523  -2.563  -0.007  0.00  0.00    -0.225 OA
ATOM     14  N   UNL     1      -2.735  -2.368   0.015  0.00  0.00    -0.202 N 
ATOM     15  H   UNL     1      -2.849  -3.331   0.011  0.00  0.00    +0.176 HD
BRANCH  12  16
ATOM     16  O   UNL     1      -1.339  -0.499   0.012  0.00  0.00    -0.450 OA
BRANCH  16  18
ATOM     17  C   UNL     1      -0.019   1.526   0.010  0.00  0.00    +0.048 C 
ATOM     18  C   UNL     1       0.002  -0.004   0.002  0.00  0.00    +0.230 C 
ENDBRANCH  16  18
ENDBRANCH  12  16
ENDBRANCH   1  14
TORSDOF 4
