REMARK  Name = ZINC09767687
REMARK  9 active torsions:
REMARK  status: ('A' for Active; 'I' for Inactive)
REMARK    1  A    between atoms: C_1  and  O_2
REMARK    2  A    between atoms: O_2  and  C_3
REMARK    3  A    between atoms: C_6  and  C_9
REMARK    4  A    between atoms: C_9  and  C_11
REMARK    5  A    between atoms: C_9  and  N_57
REMARK    6  A    between atoms: C_11  and  N_12
REMARK    7  A    between atoms: C_13  and  C_15
REMARK    8  A    between atoms: C_15  and  C_16
REMARK    9  A    between atoms: C_19  and  C_21
REMARK                            x       y       z     vdW  Elec       q    Type
REMARK                         _______ _______ _______ _____ _____    ______ ____
ROOT
ATOM      1  N   UNL     1       0.051   5.511  -1.068  0.00  0.00    -0.316 N 
ATOM      2  C   UNL     1       0.590   4.292  -0.867  0.00  0.00    +0.219 C 
ATOM      3  O   UNL     1       0.544   3.457  -1.745  0.00  0.00    -0.275 OA
ATOM      4  H   UNL     1       0.087   6.179  -0.366  0.00  0.00    +0.149 HD
ENDROOT
BRANCH   1   5
ATOM      5  C   UNL     1      -0.589   5.827  -2.348  0.00  0.00    +0.093 C 
BRANCH   5   6
ATOM      6  C   UNL     1      -0.964   7.310  -2.377  0.00  0.00    -0.020 C 
BRANCH   6  10
ATOM      7  C   UNL     1      -3.036   8.183  -6.012  0.00  0.00    +0.120 A 
ATOM      8  C   UNL     1      -3.732   8.116  -4.814  0.00  0.00    +0.046 A 
ATOM      9  C   UNL     1      -3.061   7.833  -3.640  0.00  0.00    +0.005 A 
ATOM     10  C   UNL     1      -1.695   7.617  -3.659  0.00  0.00    -0.059 A 
ATOM     11  C   UNL     1      -0.998   7.689  -4.851  0.00  0.00    +0.005 A 
ATOM     12  C   UNL     1      -1.666   7.965  -6.028  0.00  0.00    +0.046 A 
BRANCH   7  14
ATOM     13  C   UNL     1      -2.913   8.514  -8.363  0.00  0.00    +0.277 C 
ATOM     14  O   UNL     1      -3.695   8.461  -7.168  0.00  0.00    -0.495 OA
ENDBRANCH   7  14
ENDBRANCH   6  10
BRANCH   6  19
ATOM     15  C   UNL     1      -0.035   9.548  -2.613  0.00  0.00    -0.078 C 
ATOM     16  C   UNL     1       1.167  10.300  -1.989  0.00  0.00    -0.020 C 
ATOM     17  C   UNL     1       1.435   9.507  -0.690  0.00  0.00    -0.020 C 
ATOM     18  C   UNL     1       0.812   8.119  -0.931  0.00  0.00    -0.078 C 
ATOM     19  N   UNL     1       0.271   8.146  -2.291  0.00  0.00    +0.385 N 
ATOM     20  H   UNL     1       0.970   7.782  -2.949  0.00  0.00    -0.081 HD
ENDBRANCH   6  19
ENDBRANCH   5   6
ENDBRANCH   1   5
BRANCH   2  21
ATOM     21  C   UNL     1       1.248   3.967   0.449  0.00  0.00    +0.151 C 
BRANCH  21  22
ATOM     22  C   UNL     1       1.765   2.551   0.416  0.00  0.00    +0.058 A 
ATOM     23  C   UNL     1       3.072   2.297   0.687  0.00  0.00    +0.071 A 
ATOM     24  S   UNL     1       3.108   0.519   0.505  0.00  0.00    -0.075 S 
ATOM     25  C   UNL     1       1.382   0.308   0.088  0.00  0.00    +0.109 A 
ATOM     26  N   UNL     1       0.953   1.562   0.124  0.00  0.00    -0.243 NA
BRANCH  25  27
ATOM     27  C   UNL     1       0.634  -0.931  -0.215  0.00  0.00    +0.007 A 
ATOM     28  C   UNL     1      -0.728  -0.872  -0.514  0.00  0.00    +0.013 A 
ATOM     29  C   UNL     1      -1.419  -2.030  -0.801  0.00  0.00    +0.039 A 
ATOM     30  C   UNL     1      -0.767  -3.252  -0.782  0.00  0.00    +0.123 A 
ATOM     31  C   UNL     1       0.585  -3.317  -0.481  0.00  0.00    +0.039 A 
ATOM     32  C   UNL     1       1.287  -2.164  -0.198  0.00  0.00    +0.013 A 
ATOM     33  F   UNL     1      -1.450  -4.384  -1.058  0.00  0.00    -0.205 F 
ENDBRANCH  25  27
ENDBRANCH  21  22
ENDBRANCH   2  21
TORSDOF 8
