REMARK  Name = ZINC43261420
REMARK  8 active torsions:
REMARK  status: ('A' for Active; 'I' for Inactive)
REMARK    1  A    between atoms: C_1  and  C_2
REMARK    2  A    between atoms: C_2  and  C_4
REMARK    3  A    between atoms: C_2  and  N_22
REMARK    4  A    between atoms: C_4  and  C_6
REMARK    5  A    between atoms: C_4  and  N_12
REMARK    6  A    between atoms: N_12  and  C_13
REMARK    7  A    between atoms: N_12  and  C_14
REMARK    8  A    between atoms: C_14  and  C_15
REMARK                            x       y       z     vdW  Elec       q    Type
REMARK                         _______ _______ _______ _____ _____    ______ ____
ROOT
ATOM      1  C   UNL     1      -1.419  -0.390   0.097  0.00  0.00    +0.079 C 
ENDROOT
BRANCH   1   2
ATOM      2  C   UNL     1      -1.181  -1.871   0.246  0.00  0.00    +0.006 A 
ATOM      3  C   UNL     1      -1.278  -2.643   1.355  0.00  0.00    +0.014 A 
ATOM      4  C   UNL     1      -1.010  -3.996   1.256  0.00  0.00    +0.023 A 
ATOM      5  C   UNL     1      -0.660  -4.510   0.051  0.00  0.00    +0.055 A 
ATOM      6  S   UNL     1      -0.708  -3.064  -0.995  0.00  0.00    -0.085 S 
ATOM      7 BR   UNL     1      -0.237  -6.296  -0.405  0.00  0.00    -0.043 Br
ENDBRANCH   1   2
BRANCH   1   9
ATOM      8  C   UNL     1      -0.358   1.788  -0.515  0.00  0.00    -0.012 C 
ATOM      9  C   UNL     1      -0.096   0.309  -0.220  0.00  0.00    -0.056 C 
BRANCH   9  10
ATOM     10  N   UNL     1       0.808   0.193   0.932  0.00  0.00    +0.381 N 
ATOM     11  H   UNL     1       0.383   0.626   1.738  0.00  0.00    -0.090 HD
ATOM     12  H   UNL     1       0.981  -0.782   1.126  0.00  0.00    -0.090 HD
ATOM     13  H   UNL     1       1.681   0.654   0.723  0.00  0.00    -0.090 HD
ENDBRANCH   9  10
ENDBRANCH   1   9
BRANCH   1  14
ATOM     14  N   UNL     1      -2.372  -0.155  -0.997  0.00  0.00    -0.295 NA
ATOM     15  C   UNL     1      -3.696  -0.697  -0.667  0.00  0.00    +0.105 C 
BRANCH  14  16
ATOM     16  C   UNL     1      -1.873  -0.716  -2.259  0.00  0.00    +0.119 C 
BRANCH  16  17
ATOM     17  C   UNL     1      -2.642  -0.123  -3.411  0.00  0.00    -0.033 A 
ATOM     18  C   UNL     1      -3.798  -0.735  -3.858  0.00  0.00    +0.006 A 
ATOM     19  C   UNL     1      -4.505  -0.191  -4.914  0.00  0.00    +0.015 A 
ATOM     20  C   UNL     1      -4.054   0.966  -5.524  0.00  0.00    +0.018 A 
ATOM     21  C   UNL     1      -2.897   1.578  -5.077  0.00  0.00    +0.015 A 
ATOM     22  C   UNL     1      -2.195   1.036  -4.017  0.00  0.00    +0.006 A 
ATOM     23 BR   UNL     1      -5.020   1.711  -6.970  0.00  0.00    -0.050 Br
ENDBRANCH  16  17
ENDBRANCH  14  16
ENDBRANCH   1  14
TORSDOF 6
