REMARK  Name = ZINC63589200
REMARK  10 active torsions:
REMARK  status: ('A' for Active; 'I' for Inactive)
REMARK    1  A    between atoms: C_1  and  C_2
REMARK    2  A    between atoms: C_5  and  N_8
REMARK    3  A    between atoms: N_10  and  C_11
REMARK    4  A    between atoms: C_11  and  C_12
REMARK    5  A    between atoms: C_12  and  C_13
REMARK    6  A    between atoms: N_22  and  C_23
REMARK    7  A    between atoms: C_23  and  C_25
REMARK    8  A    between atoms: C_28  and  N_31
REMARK    9  A    between atoms: C_32  and  C_37
REMARK   10  A    between atoms: C_35  and  C_36
REMARK                            x       y       z     vdW  Elec       q    Type
REMARK                         _______ _______ _______ _____ _____    ______ ____
ROOT
ATOM      1  N   UNL     1       0.030  -4.043   0.481  0.00  0.00    -0.328 N 
ATOM      2  C   UNL     1       0.059  -5.000   1.454  0.00  0.00    +0.194 C 
ATOM      3  N   UNL     1      -0.051  -6.318   1.119  0.00  0.00    -0.357 N 
ATOM      4  N   UNL     1       0.195  -4.649   2.724  0.00  0.00    -0.143 NA
ATOM      5  H   UNL     1      -0.363  -6.960   1.775  0.00  0.00    +0.162 HD
ATOM      6  H   UNL     1       0.674  -3.317   0.494  0.00  0.00    +0.169 HD
ENDROOT
BRANCH   1  11
ATOM      7  C   UNL     1      -3.854  -4.312  -3.645  0.00  0.00    +0.044 C 
ATOM      8  C   UNL     1      -2.822  -4.241  -2.549  0.00  0.00    -0.050 A 
ATOM      9  C   UNL     1      -1.606  -3.626  -2.785  0.00  0.00    +0.005 A 
ATOM     10  C   UNL     1      -0.658  -3.559  -1.783  0.00  0.00    +0.026 A 
ATOM     11  C   UNL     1      -0.928  -4.109  -0.536  0.00  0.00    +0.042 A 
ATOM     12  C   UNL     1      -2.150  -4.725  -0.302  0.00  0.00    +0.026 A 
ATOM     13  C   UNL     1      -3.096  -4.784  -1.307  0.00  0.00    +0.005 A 
ENDBRANCH   1  11
BRANCH   4  14
ATOM     14  C   UNL     1       0.352  -3.358   3.049  0.00  0.00    +0.270 C 
ATOM     15  O   UNL     1       0.278  -2.499   2.188  0.00  0.00    -0.268 OA
BRANCH  14  16
ATOM     16  C   UNL     1       0.614  -2.976   4.454  0.00  0.00    +0.039 A 
ATOM     17  C   UNL     1       0.810  -3.962   5.422  0.00  0.00    +0.015 A 
ATOM     18  C   UNL     1       1.055  -3.603   6.729  0.00  0.00    +0.027 A 
ATOM     19  C   UNL     1       1.107  -2.260   7.085  0.00  0.00    +0.047 A 
ATOM     20  C   UNL     1       0.912  -1.275   6.123  0.00  0.00    +0.027 A 
ATOM     21  C   UNL     1       0.672  -1.628   4.813  0.00  0.00    +0.015 A 
BRANCH  19  22
ATOM     22  N   UNL     1       1.355  -1.899   8.413  0.00  0.00    -0.318 N 
ATOM     23  C   UNL     1       0.539  -2.162   9.476  0.00  0.00    +0.021 A 
ATOM     24  C   UNL     1       1.117  -1.659  10.585  0.00  0.00    +0.023 A 
ATOM     25  C   UNL     1       2.334  -1.062  10.195  0.00  0.00    +0.023 A 
ATOM     26  C   UNL     1       2.458  -1.228   8.863  0.00  0.00    +0.021 A 
ATOM     27  C   UNL     1       3.610  -0.753   8.017  0.00  0.00    +0.064 C 
ATOM     28  C   UNL     1      -0.779  -2.890   9.419  0.00  0.00    +0.064 C 
ENDBRANCH  19  22
ENDBRANCH  14  16
ENDBRANCH   4  14
BRANCH   3  29
ATOM     29  C   UNL     1       0.301  -6.762  -0.232  0.00  0.00    +0.120 C 
BRANCH  29  30
ATOM     30  C   UNL     1      -0.021  -8.251  -0.379  0.00  0.00    +0.054 C 
BRANCH  30  31
ATOM     31  C   UNL     1       0.453  -8.736  -1.724  0.00  0.00    -0.040 C 
ATOM     32  C   UNL     1       1.656  -9.283  -2.014  0.00  0.00    -0.001 A 
ATOM     33  C   UNL     1       2.838  -9.577  -1.195  0.00  0.00    +0.010 A 
ATOM     34  C   UNL     1       3.919 -10.139  -1.782  0.00  0.00    +0.001 A 
ATOM     35  C   UNL     1       3.939 -10.447  -3.149  0.00  0.00    +0.002 A 
ATOM     36  C   UNL     1       2.892 -10.207  -3.966  0.00  0.00    +0.026 A 
ATOM     37  C   UNL     1       1.702  -9.618  -3.455  0.00  0.00    +0.043 A 
ATOM     38  N   UNL     1       0.572  -9.291  -4.034  0.00  0.00    -0.380 N 
ATOM     39  C   UNL     1      -0.322  -8.717  -3.023  0.00  0.00    +0.144 C 
ATOM     40  H   UNL     1       0.361  -9.413  -4.973  0.00  0.00    +0.160 HD
ENDBRANCH  30  31
ENDBRANCH  29  30
ENDBRANCH   3  29
TORSDOF 7
