REMARK  Name = ZINC04275263
REMARK  9 active torsions:
REMARK  status: ('A' for Active; 'I' for Inactive)
REMARK    1  A    between atoms: C_1  and  C_2
REMARK    2  A    between atoms: C_2  and  C_26
REMARK    3  A    between atoms: C_5  and  C_23
REMARK    4  A    between atoms: C_6  and  N_12
REMARK    5  A    between atoms: C_9  and  C_10
REMARK    6  A    between atoms: C_9  and  C_11
REMARK    7  A    between atoms: C_13  and  C_15
REMARK    8  A    between atoms: C_20  and  O_21
REMARK    9  A    between atoms: O_21  and  C_22
REMARK                            x       y       z     vdW  Elec       q    Type
REMARK                         _______ _______ _______ _____ _____    ______ ____
ROOT
ATOM      1  C   UNL     1      -0.013   1.086   0.008  0.00  0.00    -0.010 C 
ATOM      2  C   UNL     1      -0.729   1.579   1.268  0.00  0.00    -0.069 C 
ATOM      3  C   UNL     1      -2.138   0.980   1.314  0.00  0.00    +0.024 C 
ATOM      4  C   UNL     1      -2.978   1.647   0.234  0.00  0.00    -0.026 A 
ATOM      5  C   UNL     1      -4.124   1.051  -0.424  0.00  0.00    +0.068 A 
ATOM      6  C   UNL     1      -4.784   1.818  -1.377  0.00  0.00    +0.085 A 
ATOM      7  S   UNL     1      -3.885   3.299  -1.386  0.00  0.00    -0.079 S 
ATOM      8  C   UNL     1      -2.670   2.903  -0.161  0.00  0.00    -0.016 A 
ATOM      9  C   UNL     1      -1.543   3.747   0.340  0.00  0.00    -0.041 C 
ATOM     10  C   UNL     1      -2.143   5.005   0.998  0.00  0.00    -0.005 C 
ATOM     11  C   UNL     1      -0.672   4.202  -0.837  0.00  0.00    -0.005 C 
ATOM     12  C   UNL     1       0.048   1.047   2.488  0.00  0.00    -0.010 C 
ATOM     13  N   UNL     1      -0.719   3.061   1.375  0.00  0.00    +0.389 N 
ATOM     14  H   UNL     1       0.252   3.384   1.283  0.00  0.00    -0.084 HD
ATOM     15  H   UNL     1      -1.080   3.320   2.300  0.00  0.00    -0.084 HD
ENDROOT
BRANCH   5  16
ATOM     16  C   UNL     1      -4.579  -0.304  -0.101  0.00  0.00    +0.244 C 
ATOM     17  O   UNL     1      -5.400  -0.477   0.781  0.00  0.00    -0.270 OA
ATOM     18  N   UNL     1      -4.089  -1.360  -0.781  0.00  0.00    -0.325 N 
ATOM     19  H   UNL     1      -3.434  -1.222  -1.484  0.00  0.00    +0.145 HD
ATOM     20  H   UNL     1      -4.390  -2.257  -0.568  0.00  0.00    +0.145 HD
ENDBRANCH   5  16
BRANCH   6  21
ATOM     21  N   UNL     1      -5.892   1.478  -2.136  0.00  0.00    -0.275 N 
ATOM     22  C   UNL     1      -6.399   2.360  -3.020  0.00  0.00    +0.252 C 
ATOM     23  O   UNL     1      -5.885   3.454  -3.152  0.00  0.00    -0.270 OA
ATOM     24  H   UNL     1      -6.302   0.606  -2.031  0.00  0.00    +0.156 HD
BRANCH  22  25
ATOM     25  C   UNL     1      -7.579   1.998  -3.828  0.00  0.00    +0.079 A 
ATOM     26  C   UNL     1      -8.170   0.740  -3.685  0.00  0.00    +0.017 A 
ATOM     27  C   UNL     1      -9.274   0.410  -4.439  0.00  0.00    +0.001 A 
ATOM     28  C   UNL     1      -9.796   1.316  -5.348  0.00  0.00    +0.004 A 
ATOM     29  C   UNL     1      -9.219   2.561  -5.504  0.00  0.00    +0.046 A 
ATOM     30  C   UNL     1      -8.110   2.912  -4.749  0.00  0.00    +0.132 A 
BRANCH  30  31
ATOM     31  O   UNL     1      -7.541   4.134  -4.902  0.00  0.00    -0.494 OA
ATOM     32  C   UNL     1      -8.137   5.012  -5.859  0.00  0.00    +0.277 C 
ENDBRANCH  30  31
ENDBRANCH  22  25
ENDBRANCH   6  21
TORSDOF 4
