REMARK  Name = ZINC01470037
REMARK  15 active torsions:
REMARK  status: ('A' for Active; 'I' for Inactive)
REMARK    1  A    between atoms: C_1  and  C_2
REMARK    2  A    between atoms: C_2  and  C_26
REMARK    3  A    between atoms: C_4  and  O_25
REMARK    4  A    between atoms: C_6  and  C_23
REMARK    5  A    between atoms: C_6  and  C_24
REMARK    6  A    between atoms: C_7  and  C_8
REMARK    7  A    between atoms: C_7  and  N_69
REMARK    8  A    between atoms: C_8  and  C_10
REMARK    9  A    between atoms: C_8  and  O_22
REMARK   10  A    between atoms: C_10  and  O_11
REMARK   11  A    between atoms: O_11  and  C_12
REMARK   12  A    between atoms: C_15  and  C_18
REMARK   13  A    between atoms: C_18  and  C_19
REMARK   14  A    between atoms: C_18  and  C_20
REMARK   15  A    between atoms: C_18  and  C_21
REMARK                            x       y       z     vdW  Elec       q    Type
REMARK                         _______ _______ _______ _____ _____    ______ ____
ROOT
ATOM      1  C   UNL     1      -1.539   3.844   5.516  0.00  0.00    +0.124 C 
ENDROOT
BRANCH   1   2
ATOM      2  O   UNL     1      -2.929   3.542   5.644  0.00  0.00    -0.391 OA
ATOM      3  H   UNL     1      -3.115   2.763   6.186  0.00  0.00    +0.210 HD
ENDBRANCH   1   2
BRANCH   1   4
ATOM      4  C   UNL     1      -0.944   4.106   6.901  0.00  0.00    -0.043 C 
BRANCH   4  14
ATOM      5  C   UNL     1      -0.994   6.657   5.659  0.00  0.00    -0.010 C 
ATOM      6  C   UNL     1      -2.132   6.190   6.575  0.00  0.00    -0.068 C 
ATOM      7  C   UNL     1      -2.792   7.403   7.226  0.00  0.00    +0.019 C 
ATOM      8  C   UNL     1      -1.901   7.963   8.335  0.00  0.00    +0.112 C 
ATOM      9  C   UNL     1      -1.691   6.873   9.386  0.00  0.00    +0.019 C 
ATOM     10  C   UNL     1      -1.020   5.653   8.761  0.00  0.00    -0.068 C 
ATOM     11  C   UNL     1      -1.103   4.500   9.787  0.00  0.00    -0.010 C 
ATOM     12  C   UNL     1       0.467   5.948   8.531  0.00  0.00    -0.010 C 
ATOM     13  C   UNL     1      -3.191   5.510   5.679  0.00  0.00    -0.010 C 
ATOM     14  N   UNL     1      -1.748   5.136   7.557  0.00  0.00    +0.388 N 
ATOM     15  H   UNL     1      -2.616   4.699   7.888  0.00  0.00    -0.080 HD
BRANCH   8  16
ATOM     16  O   UNL     1      -2.552   9.085   8.942  0.00  0.00    -0.392 OA
ATOM     17  H   UNL     1      -2.719   9.819   8.334  0.00  0.00    +0.210 HD
ENDBRANCH   8  16
ENDBRANCH   4  14
ENDBRANCH   1   4
BRANCH   1  18
ATOM     18  C   UNL     1      -0.818   2.660   4.867  0.00  0.00    +0.189 C 
BRANCH  18  19
ATOM     19  O   UNL     1      -1.292   2.488   3.530  0.00  0.00    -0.374 OA
BRANCH  19  20
ATOM     20  C   UNL     1      -0.679   1.403   2.831  0.00  0.00    +0.118 C 
ATOM     21  C   UNL     1      -1.489   0.126   3.061  0.00  0.00    +0.032 C 
ATOM     22  C   UNL     1      -0.833  -1.037   2.313  0.00  0.00    +0.006 C 
ATOM     23  C   UNL     1      -0.792  -0.721   0.817  0.00  0.00    -0.005 C 
ATOM     24  C   UNL     1       0.018   0.556   0.586  0.00  0.00    +0.006 C 
ATOM     25  C   UNL     1      -0.638   1.718   1.335  0.00  0.00    +0.032 C 
BRANCH  23  26
ATOM     26  C   UNL     1      -0.136  -1.883   0.068  0.00  0.00    -0.035 C 
ATOM     27  C   UNL     1      -0.946  -3.161   0.298  0.00  0.00    +0.011 C 
ATOM     28  C   UNL     1      -0.095  -1.568  -1.428  0.00  0.00    +0.011 C 
ATOM     29  C   UNL     1       1.290  -2.083   0.586  0.00  0.00    +0.011 C 
ENDBRANCH  23  26
ENDBRANCH  19  20
ENDBRANCH  18  19
ENDBRANCH   1  18
TORSDOF 8
