REMARK  Name = ZINC13538985
REMARK  11 active torsions:
REMARK  status: ('A' for Active; 'I' for Inactive)
REMARK    1  A    between atoms: C_4  and  C_7
REMARK    2  A    between atoms: C_7  and  O_8
REMARK    3  A    between atoms: O_8  and  C_9
REMARK    4  A    between atoms: N_11  and  C_12
REMARK    5  A    between atoms: C_12  and  C_14
REMARK    6  A    between atoms: C_12  and  C_21
REMARK    7  A    between atoms: C_14  and  C_15
REMARK    8  A    between atoms: C_15  and  C_16
REMARK    9  A    between atoms: C_16  and  N_17
REMARK   10  A    between atoms: N_23  and  C_24
REMARK   11  A    between atoms: C_27  and  N_30
REMARK                            x       y       z     vdW  Elec       q    Type
REMARK                         _______ _______ _______ _____ _____    ______ ____
ROOT
ATOM      1  C   UNL     1       7.037  -2.572   2.877  0.00  0.00    +0.162 C 
ENDROOT
BRANCH   1   4
ATOM      2  C   UNL     1       5.303  -1.606   1.464  0.00  0.00    +0.401 C 
ATOM      3  O   UNL     1       5.933  -1.970   0.491  0.00  0.00    -0.226 OA
ATOM      4  N   UNL     1       5.769  -1.859   2.703  0.00  0.00    -0.270 N 
ATOM      5  H   UNL     1       5.266  -1.569   3.479  0.00  0.00    +0.153 HD
BRANCH   2   6
ATOM      6  O   UNL     1       4.137  -0.951   1.304  0.00  0.00    -0.446 OA
BRANCH   6   7
ATOM      7  C   UNL     1       3.703  -0.717  -0.037  0.00  0.00    +0.269 C 
BRANCH   7  11
ATOM      8  C   UNL     1      -0.018   1.381   0.015  0.00  0.00    +0.000 A 
ATOM      9  C   UNL     1       1.172   2.084  -0.001  0.00  0.00    +0.000 A 
ATOM     10  C   UNL     1       2.376   1.405  -0.018  0.00  0.00    +0.007 A 
ATOM     11  C   UNL     1       2.390   0.023  -0.018  0.00  0.00    -0.010 A 
ATOM     12  C   UNL     1       1.200  -0.680  -0.001  0.00  0.00    +0.007 A 
ATOM     13  C   UNL     1      -0.004  -0.002   0.014  0.00  0.00    +0.000 A 
ENDBRANCH   7  11
ENDBRANCH   6   7
ENDBRANCH   2   6
ENDBRANCH   1   4
BRANCH   1  14
ATOM     14  C   UNL     1       7.049  -3.256   4.219  0.00  0.00    +0.238 C 
ATOM     15  O   UNL     1       6.092  -3.158   4.958  0.00  0.00    -0.273 OA
ATOM     16  N   UNL     1       8.122  -3.978   4.599  0.00  0.00    -0.284 N 
ATOM     17  H   UNL     1       8.859  -4.112   3.982  0.00  0.00    +0.155 HD
BRANCH  16  18
ATOM     18  C   UNL     1       8.174  -4.533   5.882  0.00  0.00    +0.034 A 
ATOM     19  C   UNL     1       9.385  -4.611   6.558  0.00  0.00    +0.025 A 
ATOM     20  C   UNL     1       9.433  -5.160   7.824  0.00  0.00    +0.034 A 
ATOM     21  C   UNL     1       8.277  -5.630   8.420  0.00  0.00    +0.126 A 
ATOM     22  C   UNL     1       7.070  -5.553   7.750  0.00  0.00    +0.034 A 
ATOM     23  C   UNL     1       7.014  -5.000   6.485  0.00  0.00    +0.025 A 
BRANCH  21  24
ATOM     24  N   UNL     1       8.332  -6.217   9.778  0.00  0.00    +0.056 N 
ATOM     25  O   UNL     1       9.386  -6.285  10.365  0.00  0.00    -0.126 OA
ATOM     26  O   UNL     1       7.322  -6.628  10.300  0.00  0.00    -0.126 OA
ENDBRANCH  21  24
ENDBRANCH  16  18
ENDBRANCH   1  14
BRANCH   1  27
ATOM     27  C   UNL     1       8.197  -1.576   2.802  0.00  0.00    +0.033 C 
BRANCH  27  28
ATOM     28  C   UNL     1       8.261  -0.973   1.397  0.00  0.00    +0.023 C 
BRANCH  28  29
ATOM     29  C   UNL     1       9.420   0.023   1.323  0.00  0.00    +0.115 C 
BRANCH  29  30
ATOM     30  N   UNL     1       9.482   0.601  -0.022  0.00  0.00    -0.358 N 
ATOM     31  C   UNL     1      10.445   1.523  -0.327  0.00  0.00    +0.166 C 
ATOM     32  N   UNL     1      10.501   2.048  -1.550  0.00  0.00    -0.372 N 
ATOM     33  N   UNL     1      11.327   1.895   0.599  0.00  0.00    -0.372 N 
ATOM     34  H   UNL     1       8.839   0.330  -0.696  0.00  0.00    +0.162 HD
ATOM     35  H   UNL     1       9.858   1.777  -2.224  0.00  0.00    +0.159 HD
ATOM     36  H   UNL     1      11.286   1.513   1.490  0.00  0.00    +0.159 HD
ATOM     37  H   UNL     1      12.010   2.549   0.383  0.00  0.00    +0.159 HD
ATOM     38  H   UNL     1      11.184   2.702  -1.766  0.00  0.00    +0.159 HD
ENDBRANCH  29  30
ENDBRANCH  28  29
ENDBRANCH  27  28
ENDBRANCH   1  27
TORSDOF 11
