REMARK  Name = ZINC04256663
REMARK  2 active torsions:
REMARK  status: ('A' for Active; 'I' for Inactive)
REMARK    1  A    between atoms: C_1  and  C_2
REMARK    2  A    between atoms: N_14  and  C_17
REMARK                            x       y       z     vdW  Elec       q    Type
REMARK                         _______ _______ _______ _____ _____    ______ ____
ROOT
ATOM      1  C   UNL     1      -0.013   1.086   0.008  0.00  0.00    +0.047 C 
ATOM      2  C   UNL     1      -0.729   1.579   1.267  0.00  0.00    +0.098 C 
ATOM      3  C   UNL     1      -2.188   1.096   1.506  0.00  0.00    +0.006 C 
ATOM      4  C   UNL     1      -2.686   1.918   2.442  0.00  0.00    +0.003 C 
ATOM      5  C   UNL     1      -1.639   2.987   2.738  0.00  0.00    +0.155 C 
ATOM      6  O   UNL     1      -0.977   3.032   1.374  0.00  0.00    -0.361 OA
ATOM      7  C   UNL     1      -0.444   2.484   3.431  0.00  0.00    +0.123 C 
ATOM      8  C   UNL     1      -0.126   1.167   2.618  0.00  0.00    +0.126 C 
ATOM      9  C   UNL     1       1.326   1.152   2.933  0.00  0.00    +0.233 C 
ATOM     10  O   UNL     1       2.235   0.819   2.203  0.00  0.00    -0.274 OA
ATOM     11  N   UNL     1       1.414   1.597   4.231  0.00  0.00    -0.210 N 
ATOM     12  C   UNL     1       0.246   2.206   4.657  0.00  0.00    +0.233 C 
ATOM     13  O   UNL     1      -0.107   2.446   5.791  0.00  0.00    -0.274 OA
ENDROOT
BRANCH  11  14
ATOM     14  C   UNL     1       2.557   1.452   5.031  0.00  0.00    +0.045 A 
ATOM     15  C   UNL     1       3.685   0.822   4.523  0.00  0.00    +0.025 A 
ATOM     16  C   UNL     1       4.812   0.685   5.310  0.00  0.00    +0.023 A 
ATOM     17  C   UNL     1       4.813   1.164   6.608  0.00  0.00    +0.059 A 
ATOM     18  C   UNL     1       3.687   1.788   7.119  0.00  0.00    +0.061 A 
ATOM     19  C   UNL     1       2.559   1.932   6.333  0.00  0.00    +0.045 A 
ATOM     20 CL   UNL     1       3.691   2.388   8.748  0.00  0.00    -0.082 Cl
ATOM     21 CL   UNL     1       6.228   0.985   7.598  0.00  0.00    -0.082 Cl
ENDBRANCH  11  14
TORSDOF 1
