REMARK  Name = ZINC67495677
REMARK  9 active torsions:
REMARK  status: ('A' for Active; 'I' for Inactive)
REMARK    1  A    between atoms: CB_1  and  CA_2
REMARK    2  A    between atoms: CA_2  and  C_4
REMARK    3  A    between atoms: CA_2  and  N_6
REMARK    4  A    between atoms: C_4  and  O_5
REMARK    5  A    between atoms: C_7  and  C_9
REMARK    6  A    between atoms: N_11  and  C_12
REMARK    7  A    between atoms: C_15  and  N_18
REMARK    8  A    between atoms: C_19  and  C_21
REMARK    9  A    between atoms: C_21  and  N_22
REMARK                            x       y       z     vdW  Elec       q    Type
REMARK                         _______ _______ _______ _____ _____    ______ ____
ROOT
ATOM      1  C   UNK A   0       0.735  -1.748  -5.825  0.00  0.00    +0.034 A 
ATOM      2  C   UNK A   0       2.105  -1.530  -5.907  0.00  0.00    +0.025 A 
ATOM      3  C   UNK A   0       2.818  -2.021  -6.982  0.00  0.00    +0.025 A 
ATOM      4  C   UNK A   0       2.167  -2.733  -7.981  0.00  0.00    +0.033 A 
ATOM      5  C   UNK A   0       0.798  -2.950  -7.900  0.00  0.00    +0.025 A 
ATOM      6  C   UNK A   0       0.085  -2.465  -6.822  0.00  0.00    +0.025 A 
ENDROOT
BRANCH   1   9
ATOM      7  C   UNK A   0      -1.024  -1.955  -4.238  0.00  0.00    +0.303 C 
ATOM      8  O   UNK A   0      -1.382  -2.977  -4.785  0.00  0.00    -0.265 OA
ATOM      9  N   UNK A   0       0.012  -1.251  -4.736  0.00  0.00    -0.278 N 
ATOM     10  H   UNK A   0       0.256  -0.400  -4.340  0.00  0.00    +0.155 HD
BRANCH   7  12
ATOM     11  N   ALA A   1      -2.767  -2.179  -2.514  0.00  0.00    -0.303 N 
ATOM     12  C   UNK A   0      -1.731  -1.476  -3.013  0.00  0.00    +0.300 C 
ATOM     13  O   UNK A   0      -1.373  -0.453  -2.466  0.00  0.00    -0.265 OA
ATOM     14  H   ALA A   1      -3.053  -2.997  -2.951  0.00  0.00    +0.150 HD
BRANCH  11  16
ATOM     15  CB  ALA A   1      -2.717  -2.203  -0.069  0.00  0.00    +0.030 C 
ATOM     16  CA  ALA A   1      -3.460  -1.710  -1.312  0.00  0.00    +0.096 C 
BRANCH  16  17
ATOM     17  C   ALA A   1      -4.889  -2.256  -1.302  0.00  0.00    +0.177 C 
BRANCH  17  18
ATOM     18  O   ALA A   1      -4.855  -3.679  -1.186  0.00  0.00    -0.393 OA
ATOM     19  H   ALA A   1      -5.728  -4.094  -1.173  0.00  0.00    +0.209 HD
ENDBRANCH  17  18
ENDBRANCH  16  17
ENDBRANCH  11  16
ENDBRANCH   7  12
ENDBRANCH   1   9
BRANCH   4  20
ATOM     20  N   UNK A   0       2.891  -3.230  -9.072  0.00  0.00    -0.287 N 
ATOM     21  C   UNK A   0       2.327  -3.268 -10.295  0.00  0.00    +0.201 C 
ATOM     22  O   UNK A   0       1.165  -2.949 -10.437  0.00  0.00    -0.278 OA
ATOM     23  H   UNK A   0       3.799  -3.548  -8.947  0.00  0.00    +0.155 HD
BRANCH  21  24
ATOM     24  C   UNK A   0       3.139  -3.705 -11.487  0.00  0.00    +0.019 C 
BRANCH  24  25
ATOM     25  N   UNK A   0       2.302  -3.659 -12.693  0.00  0.00    +0.385 N 
ATOM     26  C   UNK A   0       1.912  -2.269 -12.964  0.00  0.00    -0.078 C 
ATOM     27  C   UNK A   0       1.375  -2.136 -14.388  0.00  0.00    -0.019 C 
ATOM     28  C   UNK A   0      -0.055  -2.684 -14.447  0.00  0.00    -0.002 C 
ATOM     29  C   UNK A   0       0.004  -4.212 -14.403  0.00  0.00    -0.000 C 
ATOM     30  C   UNK A   0       1.121  -4.696 -15.329  0.00  0.00    -0.002 C 
ATOM     31  C   UNK A   0       2.243  -5.314 -14.499  0.00  0.00    -0.019 C 
ATOM     32  C   UNK A   0       3.058  -4.199 -13.832  0.00  0.00    -0.078 C 
ATOM     33  H   UNK A   0       1.473  -4.216 -12.547  0.00  0.00    -0.081 HD
ENDBRANCH  24  25
ENDBRANCH  21  24
ENDBRANCH   4  20
TORSDOF 8
