REMARK  Name = ZINC62587470
REMARK  6 active torsions:
REMARK  status: ('A' for Active; 'I' for Inactive)
REMARK    1  A    between atoms: C_1  and  C_2
REMARK    2  A    between atoms: C_2  and  N_3
REMARK    3  A    between atoms: C_6  and  N_9
REMARK    4  A    between atoms: N_9  and  C_10
REMARK    5  A    between atoms: C_11  and  C_13
REMARK    6  A    between atoms: C_25  and  C_27
REMARK                            x       y       z     vdW  Elec       q    Type
REMARK                         _______ _______ _______ _____ _____    ______ ____
ROOT
ATOM      1  C   UNL     1       4.999  -3.656  -5.195  0.00  0.00    +0.163 C 
ATOM      2  C   UNL     1       4.241  -4.870  -5.775  0.00  0.00    +0.037 C 
ATOM      3  C   UNL     1       5.114  -6.074  -5.305  0.00  0.00    +0.012 C 
ATOM      4  C   UNL     1       4.750  -6.333  -3.841  0.00  0.00    +0.005 C 
ATOM      5  C   UNL     1       5.814  -7.194  -3.165  0.00  0.00    +0.000 C 
ATOM      6  C   UNL     1       7.145  -6.437  -3.187  0.00  0.00    +0.002 C 
ATOM      7  C   UNL     1       7.565  -6.237  -4.643  0.00  0.00    +0.023 C 
ATOM      8  C   UNL     1       6.522  -5.466  -5.430  0.00  0.00    +0.080 C 
ATOM      9  N   UNL     1       6.396  -4.074  -4.979  0.00  0.00    -0.282 N 
ATOM     10  C   UNL     1       7.380  -3.312  -4.459  0.00  0.00    +0.256 C 
ATOM     11  O   UNL     1       8.499  -3.770  -4.330  0.00  0.00    -0.269 OA
ENDROOT
BRANCH  10  12
ATOM     12  C   UNL     1       7.100  -1.931  -4.050  0.00  0.00    +0.094 A 
ATOM     13  C   UNL     1       7.953  -1.015  -3.516  0.00  0.00    +0.068 A 
ATOM     14  C   UNL     1       7.486   0.271  -3.187  0.00  0.00    +0.008 A 
ATOM     15  C   UNL     1       8.213   1.353  -2.627  0.00  0.00    +0.010 A 
ATOM     16  C   UNL     1       7.604   2.539  -2.367  0.00  0.00    +0.001 A 
ATOM     17  C   UNL     1       6.255   2.740  -2.637  0.00  0.00    +0.001 A 
ATOM     18  C   UNL     1       5.511   1.714  -3.183  0.00  0.00    +0.016 A 
ATOM     19  C   UNL     1       6.116   0.504  -3.452  0.00  0.00    +0.021 A 
ATOM     20  S   UNL     1       5.558  -1.036  -4.136  0.00  0.00    -0.082 S 
ATOM     21 CL   UNL     1       9.616  -1.433  -3.241  0.00  0.00    -0.082 Cl
ENDBRANCH  10  12
BRANCH   1  24
ATOM     22  N   UNL     1       3.188  -2.612  -3.873  0.00  0.00    -0.300 N 
ATOM     23  C   UNL     1       2.495  -2.330  -5.133  0.00  0.00    +0.132 C 
ATOM     24  C   UNL     1       4.379  -3.242  -3.885  0.00  0.00    +0.236 C 
ATOM     25  O   UNL     1       4.952  -3.476  -2.842  0.00  0.00    -0.274 OA
BRANCH  22  29
ATOM     26  N   UNL     1       0.382  -0.949  -1.203  0.00  0.00    +0.380 N 
ATOM     27  C   UNL     1       1.690  -0.286  -1.284  0.00  0.00    -0.077 C 
ATOM     28  C   UNL     1       2.392  -0.691  -2.582  0.00  0.00    +0.004 C 
ATOM     29  C   UNL     1       2.585  -2.210  -2.599  0.00  0.00    +0.072 C 
ATOM     30  C   UNL     1       1.222  -2.890  -2.440  0.00  0.00    +0.004 C 
ATOM     31  C   UNL     1       0.564  -2.404  -1.147  0.00  0.00    -0.077 C 
ATOM     32  H   UNL     1      -0.164  -0.710  -2.017  0.00  0.00    -0.082 HD
BRANCH  26  34
ATOM     33  C   UNL     1      -0.621   0.999  -0.108  0.00  0.00    -0.017 C 
ATOM     34  C   UNL     1      -0.320  -0.497   0.005  0.00  0.00    -0.082 C 
ENDBRANCH  26  34
ENDBRANCH  22  29
ENDBRANCH   1  24
TORSDOF 4
