REMARK  Name = ZINC24587396
REMARK  9 active torsions:
REMARK  status: ('A' for Active; 'I' for Inactive)
REMARK    1  A    between atoms: C_1  and  C_2
REMARK    2  A    between atoms: C_11  and  O_13
REMARK    3  A    between atoms: O_13  and  C_14
REMARK    4  A    between atoms: C_14  and  C_15
REMARK    5  A    between atoms: C_18  and  C_21
REMARK    6  A    between atoms: N_23  and  C_24
REMARK    7  A    between atoms: C_24  and  C_25
REMARK    8  A    between atoms: C_25  and  C_27
REMARK    9  A    between atoms: C_25  and  N_32
REMARK                            x       y       z     vdW  Elec       q    Type
REMARK                         _______ _______ _______ _____ _____    ______ ____
ROOT
ATOM      1  C   UNL     1       1.847  -2.935  -5.813  0.00  0.00    -0.010 A 
ATOM      2  C   UNL     1       0.685  -2.346  -6.280  0.00  0.00    +0.008 A 
ATOM      3  C   UNL     1      -0.010  -1.460  -5.485  0.00  0.00    +0.013 A 
ATOM      4  C   UNL     1       0.460  -1.157  -4.206  0.00  0.00    +0.037 A 
ATOM      5  C   UNL     1       1.635  -1.750  -3.743  0.00  0.00    +0.013 A 
ATOM      6  C   UNL     1       2.318  -2.640  -4.546  0.00  0.00    +0.008 A 
ENDROOT
BRANCH   4   7
ATOM      7  C   UNL     1      -0.280  -0.207  -3.348  0.00  0.00    +0.244 C 
ATOM      8  O   UNL     1      -1.301   0.312  -3.756  0.00  0.00    -0.270 OA
ATOM      9  N   UNL     1       0.177   0.083  -2.114  0.00  0.00    -0.313 N 
ATOM     10  H   UNL     1       1.100  -0.387  -1.745  0.00  0.00    +0.149 HD
BRANCH   9  11
ATOM     11  C   UNL     1      -0.557   1.024  -1.264  0.00  0.00    +0.094 C 
BRANCH  11  12
ATOM     12  C   UNL     1       0.255   1.308   0.002  0.00  0.00    -0.013 C 
BRANCH  12  13
ATOM     13  N   UNL     1       1.532   1.935  -0.366  0.00  0.00    +0.386 N 
ATOM     14  C   UNL     1       2.253   2.420   0.838  0.00  0.00    -0.078 C 
ATOM     15  C   UNL     1       3.718   2.542   0.349  0.00  0.00    -0.020 C 
ATOM     16  C   UNL     1       3.871   1.325  -0.591  0.00  0.00    -0.020 C 
ATOM     17  C   UNL     1       2.436   0.957  -1.010  0.00  0.00    -0.078 C 
ATOM     18  H   UNL     1       1.276   2.758  -1.049  0.00  0.00    -0.081 HD
ENDBRANCH  12  13
BRANCH  12  19
ATOM     19  C   UNL     1      -0.521   2.238   0.899  0.00  0.00    -0.022 A 
ATOM     20  C   UNL     1      -1.176   1.961   2.052  0.00  0.00    +0.009 A 
ATOM     21  C   UNL     1      -1.827   2.985   2.715  0.00  0.00    +0.008 A 
ATOM     22  C   UNL     1      -1.791   4.234   2.192  0.00  0.00    +0.045 A 
ATOM     23  S   UNL     1      -0.809   3.991   0.721  0.00  0.00    -0.103 S 
ENDBRANCH  12  19
ENDBRANCH  11  12
ENDBRANCH   9  11
ENDBRANCH   4   7
BRANCH   1  24
ATOM     24  C   UNL     1       2.601  -3.904  -6.687  0.00  0.00    +0.264 C 
BRANCH  24  25
ATOM     25  O   UNL     1       3.560  -3.191  -7.471  0.00  0.00    -0.487 OA
BRANCH  25  36
ATOM     26  C   UNL     1       6.568  -7.699 -11.064  0.00  0.00    +0.045 C 
ATOM     27  C   UNL     1       6.721  -6.204 -10.957  0.00  0.00    -0.033 A 
ATOM     28  C   UNL     1       7.638  -5.540 -11.709  0.00  0.00    +0.096 A 
ATOM     29  C   UNL     1       7.762  -4.141 -11.589  0.00  0.00    +0.337 A 
ATOM     30  O   UNL     1       8.587  -3.558 -12.270  0.00  0.00    -0.245 OA
ATOM     31  O   UNL     1       6.993  -3.434 -10.746  0.00  0.00    -0.422 OA
ATOM     32  C   UNL     1       6.064  -4.032  -9.970  0.00  0.00    +0.143 A 
ATOM     33  C   UNL     1       5.886  -5.426 -10.039  0.00  0.00    +0.021 A 
ATOM     34  C   UNL     1       4.923  -6.050  -9.237  0.00  0.00    +0.015 A 
ATOM     35  C   UNL     1       4.162  -5.302  -8.386  0.00  0.00    +0.046 A 
ATOM     36  C   UNL     1       4.329  -3.921  -8.318  0.00  0.00    +0.125 A 
ATOM     37  C   UNL     1       5.277  -3.287  -9.105  0.00  0.00    +0.092 A 
ENDBRANCH  25  36
ENDBRANCH  24  25
ENDBRANCH   1  24
TORSDOF 8
