REMARK  Name = ZINC27520570
REMARK  7 active torsions:
REMARK  status: ('A' for Active; 'I' for Inactive)
REMARK    1  A    between atoms: C_1  and  C_2
REMARK    2  A    between atoms: C_5  and  N_30
REMARK    3  A    between atoms: C_7  and  N_8
REMARK    4  A    between atoms: C_9  and  C_11
REMARK    5  A    between atoms: C_11  and  N_20
REMARK    6  A    between atoms: C_12  and  C_13
REMARK    7  A    between atoms: C_21  and  C_23
REMARK                            x       y       z     vdW  Elec       q    Type
REMARK                         _______ _______ _______ _____ _____    ______ ____
ROOT
ATOM      1  C   UNL     1      -3.546   1.984   0.110  0.00  0.00    +0.097 C 
ATOM      2  C   UNL     1      -2.471   1.202  -0.149  0.00  0.00    +0.039 C 
ENDROOT
BRANCH   2   3
ATOM      3  C   UNL     1      -1.148   1.813  -0.344  0.00  0.00    +0.012 A 
ATOM      4  C   UNL     1      -1.037   3.077  -0.932  0.00  0.00    +0.011 A 
ATOM      5  C   UNL     1       0.207   3.641  -1.117  0.00  0.00    +0.001 A 
ATOM      6  C   UNL     1       1.347   2.962  -0.717  0.00  0.00    +0.003 A 
ATOM      7  C   UNL     1       1.247   1.714  -0.129  0.00  0.00    +0.039 A 
ATOM      8  C   UNL     1       0.008   1.134   0.063  0.00  0.00    +0.131 A 
ATOM      9  F   UNL     1      -0.088  -0.085   0.637  0.00  0.00    -0.205 F 
ENDBRANCH   2   3
BRANCH   1  11
ATOM     10  N   UNL     1      -4.992   0.030   0.324  0.00  0.00    -0.280 N 
ATOM     11  C   UNL     1      -4.858   1.371   0.356  0.00  0.00    +0.262 C 
ATOM     12  O   UNL     1      -5.824   2.073   0.589  0.00  0.00    -0.268 OA
ATOM     13  H   UNL     1      -4.139  -0.601   0.033  0.00  0.00    +0.155 HD
BRANCH  10  20
ATOM     14  C   UNL     1      -5.554  -2.570  -0.686  0.00  0.00    +0.045 C 
ATOM     15  C   UNL     1      -6.530  -1.826   0.190  0.00  0.00    -0.029 A 
ATOM     16  C   UNL     1      -7.739  -2.405   0.524  0.00  0.00    +0.007 A 
ATOM     17  C   UNL     1      -8.634  -1.724   1.327  0.00  0.00    +0.033 A 
ATOM     18  C   UNL     1      -8.323  -0.461   1.799  0.00  0.00    +0.128 A 
ATOM     19  C   UNL     1      -7.114   0.121   1.472  0.00  0.00    +0.056 A 
ATOM     20  C   UNL     1      -6.215  -0.559   0.661  0.00  0.00    +0.039 A 
BRANCH  18  21
ATOM     21  N   UNL     1      -9.285   0.265   2.659  0.00  0.00    +0.056 N 
ATOM     22  O   UNL     1     -10.349  -0.250   2.951  0.00  0.00    -0.126 OA
ATOM     23  O   UNL     1      -9.012   1.377   3.074  0.00  0.00    -0.126 OA
ENDBRANCH  18  21
ENDBRANCH  10  20
ENDBRANCH   1  11
BRANCH   1  24
ATOM     24  N   UNL     1      -3.407   3.375   0.143  0.00  0.00    -0.277 N 
ATOM     25  C   UNL     1      -4.141   4.146  -0.684  0.00  0.00    +0.248 C 
ATOM     26  O   UNL     1      -4.991   3.640  -1.391  0.00  0.00    -0.270 OA
ATOM     27  H   UNL     1      -2.699   3.840   0.845  0.00  0.00    +0.155 HD
BRANCH  25  28
ATOM     28  C   UNL     1      -3.912   5.605  -0.731  0.00  0.00    +0.037 A 
ATOM     29  C   UNL     1      -2.870   6.175   0.002  0.00  0.00    +0.014 A 
ATOM     30  C   UNL     1      -2.659   7.537  -0.050  0.00  0.00    +0.016 A 
ATOM     31  C   UNL     1      -3.485   8.340  -0.819  0.00  0.00    +0.018 A 
ATOM     32  C   UNL     1      -4.524   7.781  -1.544  0.00  0.00    +0.016 A 
ATOM     33  C   UNL     1      -4.742   6.420  -1.504  0.00  0.00    +0.014 A 
ATOM     34 BR   UNL     1      -3.192  10.207  -0.879  0.00  0.00    -0.050 Br
ENDBRANCH  25  28
ENDBRANCH   1  24
TORSDOF 6
