REMARK  Name = ZINC45631800
REMARK  7 active torsions:
REMARK  status: ('A' for Active; 'I' for Inactive)
REMARK    1  A    between atoms: C_1  and  C_2
REMARK    2  A    between atoms: C_2  and  C_4
REMARK    3  A    between atoms: C_2  and  N_11
REMARK    4  A    between atoms: N_11  and  C_12
REMARK    5  A    between atoms: C_12  and  C_14
REMARK    6  A    between atoms: C_12  and  C_15
REMARK    7  A    between atoms: N_17  and  C_18
REMARK                            x       y       z     vdW  Elec       q    Type
REMARK                         _______ _______ _______ _____ _____    ______ ____
ROOT
ATOM      1  C   UNL     1      -2.314   1.101   1.759  0.00  0.00    +0.014 C 
ATOM      2  C   UNL     1      -1.427  -0.085   1.376  0.00  0.00    -0.004 C 
ENDROOT
BRANCH   1   3
ATOM      3  C   UNL     1      -3.762   0.719   1.592  0.00  0.00    +0.203 C 
ATOM      4  O   UNL     1      -4.468   1.339   0.824  0.00  0.00    -0.277 OA
ATOM      5  N   UNL     1      -4.274  -0.311   2.295  0.00  0.00    -0.282 N 
ATOM      6  H   UNL     1      -3.694  -0.852   2.853  0.00  0.00    +0.155 HD
BRANCH   5   7
ATOM      7  C   UNL     1      -5.643  -0.599   2.220  0.00  0.00    +0.105 A 
ATOM      8  C   UNL     1      -6.533   0.010   3.097  0.00  0.00    +0.147 A 
ATOM      9  C   UNL     1      -7.884  -0.277   3.019  0.00  0.00    +0.040 A 
ATOM     10  C   UNL     1      -8.349  -1.170   2.071  0.00  0.00    +0.006 A 
ATOM     11  C   UNL     1      -7.467  -1.778   1.197  0.00  0.00    +0.040 A 
ATOM     12  C   UNL     1      -6.116  -1.491   1.265  0.00  0.00    +0.147 A 
ATOM     13  F   UNL     1      -5.255  -2.082   0.406  0.00  0.00    -0.203 F 
ATOM     14  F   UNL     1      -6.079   0.882   4.023  0.00  0.00    -0.203 F 
ENDBRANCH   5   7
ENDBRANCH   1   3
BRANCH   1  15
ATOM     15  N   UNL     1      -2.005   2.244   0.890  0.00  0.00    +0.391 N 
ATOM     16  H   UNL     1      -2.646   2.999   1.087  0.00  0.00    -0.084 HD
ATOM     17  H   UNL     1      -2.098   1.968  -0.075  0.00  0.00    -0.084 HD
BRANCH  15  19
ATOM     18  C   UNL     1      -0.519   3.228   2.570  0.00  0.00    -0.009 C 
ATOM     19  C   UNL     1      -0.629   2.692   1.141  0.00  0.00    -0.043 C 
BRANCH  19  20
ATOM     20  C   UNL     1      -0.271   3.784   0.166  0.00  0.00    -0.060 A 
ATOM     21  C   UNL     1      -1.201   4.754  -0.158  0.00  0.00    +0.002 A 
ATOM     22  C   UNL     1      -0.873   5.756  -1.052  0.00  0.00    +0.002 A 
ATOM     23  C   UNL     1       0.386   5.788  -1.624  0.00  0.00    +0.020 A 
ATOM     24  C   UNL     1       1.317   4.817  -1.300  0.00  0.00    +0.041 A 
ATOM     25  C   UNL     1       0.990   3.818  -0.400  0.00  0.00    +0.022 A 
ATOM     26 CL   UNL     1       2.897   4.857  -2.018  0.00  0.00    -0.084 Cl
ENDBRANCH  19  20
ENDBRANCH  15  19
ENDBRANCH   1  15
TORSDOF 5
