REMARK  Name = ZINC31979376
REMARK  5 active torsions:
REMARK  status: ('A' for Active; 'I' for Inactive)
REMARK    1  A    between atoms: C_1  and  S_2
REMARK    2  A    between atoms: S_2  and  N_5
REMARK    3  A    between atoms: N_5  and  C_6
REMARK    4  A    between atoms: C_10  and  N_12
REMARK    5  A    between atoms: C_13  and  C_15
REMARK                            x       y       z     vdW  Elec       q    Type
REMARK                         _______ _______ _______ _____ _____    ______ ____
ROOT
ATOM      1  N   UNL     1      -1.047   1.866   0.552  0.00  0.00    -0.281 N 
ATOM      2  C   UNL     1       0.112   1.179   0.521  0.00  0.00    +0.255 C 
ATOM      3  O   UNL     1       0.100  -0.029   0.376  0.00  0.00    -0.270 OA
ATOM      4  H   UNL     1      -1.041   2.946   0.760  0.00  0.00    +0.155 HD
ENDROOT
BRANCH   2   5
ATOM      5  C   UNL     1       1.393   1.891   0.657  0.00  0.00    +0.122 A 
ATOM      6  C   UNL     1       1.422   3.265   0.823  0.00  0.00    +0.031 A 
ATOM      7  C   UNL     1       2.678   3.910   0.951  0.00  0.00    +0.018 A 
ATOM      8  C   UNL     1       2.744   5.301   1.121  0.00  0.00    +0.011 A 
ATOM      9  C   UNL     1       3.956   5.915   1.243  0.00  0.00    +0.001 A 
ATOM     10  C   UNL     1       5.129   5.172   1.201  0.00  0.00    +0.004 A 
ATOM     11  C   UNL     1       5.088   3.804   1.035  0.00  0.00    +0.047 A 
ATOM     12  C   UNL     1       3.865   3.155   0.907  0.00  0.00    +0.139 A 
ATOM     13  O   UNL     1       3.828   1.815   0.745  0.00  0.00    -0.422 OA
ATOM     14  C   UNL     1       2.663   1.156   0.625  0.00  0.00    +0.350 A 
ATOM     15  O   UNL     1       2.662  -0.052   0.485  0.00  0.00    -0.244 OA
ENDBRANCH   2   5
BRANCH   1  20
ATOM     16  C   UNL     1      -3.639  -0.748   0.533  0.00  0.00    +0.049 A 
ATOM     17  C   UNL     1      -4.660  -0.095  -0.147  0.00  0.00    +0.024 A 
ATOM     18  C   UNL     1      -4.479   1.200  -0.591  0.00  0.00    +0.004 A 
ATOM     19  C   UNL     1      -3.285   1.854  -0.355  0.00  0.00    +0.023 A 
ATOM     20  C   UNL     1      -2.258   1.206   0.319  0.00  0.00    +0.035 A 
ATOM     21  C   UNL     1      -2.436  -0.096   0.766  0.00  0.00    +0.047 A 
BRANCH  16  22
ATOM     22  N   UNL     1      -3.823  -2.058   0.982  0.00  0.00    -0.221 N 
ATOM     23  H   UNL     1      -3.033  -2.808   0.828  0.00  0.00    +0.173 HD
BRANCH  22  25
ATOM     24  C   UNL     1      -5.272  -1.462   3.244  0.00  0.00    +0.218 C 
ATOM     25  S   UNL     1      -5.230  -2.482   1.745  0.00  0.00    +0.040 S 
ATOM     26  O   UNL     1      -6.261  -2.083   0.852  0.00  0.00    -0.155 OA
ATOM     27  O   UNL     1      -5.058  -3.850   2.088  0.00  0.00    -0.155 OA
ENDBRANCH  22  25
ENDBRANCH  16  22
ENDBRANCH   1  20
TORSDOF 4
