REMARK  Name = ZINC01392150
REMARK  8 active torsions:
REMARK  status: ('A' for Active; 'I' for Inactive)
REMARK    1  A    between atoms: C_4  and  N_7
REMARK    2  A    between atoms: N_7  and  C_8
REMARK    3  A    between atoms: C_8  and  C_10
REMARK    4  A    between atoms: C_10  and  C_29
REMARK    5  A    between atoms: C_11  and  N_12
REMARK    6  A    between atoms: C_11  and  N_13
REMARK    7  A    between atoms: N_16  and  C_19
REMARK    8  A    between atoms: C_22  and  C_24
REMARK                            x       y       z     vdW  Elec       q    Type
REMARK                         _______ _______ _______ _____ _____    ______ ____
ROOT
ATOM      1  N   UNL     1       1.444  -5.796  -1.048  0.00  0.00    -0.315 N 
ATOM      2  C   UNL     1       0.943  -4.588  -0.375  0.00  0.00    +0.125 C 
ATOM      3  C   UNL     1       1.697  -3.374  -0.929  0.00  0.00    +0.125 C 
ATOM      4  N   UNL     1       3.143  -3.601  -0.804  0.00  0.00    -0.313 N 
ATOM      5  C   UNL     1       3.574  -4.752  -1.609  0.00  0.00    +0.125 C 
ATOM      6  C   UNL     1       2.897  -6.021  -1.083  0.00  0.00    +0.125 C 
ENDROOT
BRANCH   4   7
ATOM      7  C   UNL     1       3.858  -2.458  -1.145  0.00  0.00    +0.118 A 
ATOM      8  C   UNL     1       4.619  -1.806  -0.179  0.00  0.00    +0.079 A 
ATOM      9  C   UNL     1       5.326  -0.670  -0.533  0.00  0.00    +0.037 A 
ATOM     10  C   UNL     1       5.247  -0.223  -1.846  0.00  0.00    +0.072 A 
ATOM     11  C   UNL     1       4.473  -0.919  -2.752  0.00  0.00    +0.096 A 
ATOM     12 CL   UNL     1       4.680  -2.409   1.448  0.00  0.00    -0.080 Cl
ATOM     13  N   UNL     1       3.766  -2.038  -2.440  0.00  0.00    -0.348 N 
ATOM     14  H   UNL     1       3.198  -2.536  -3.135  0.00  0.00    +0.167 HD
BRANCH  10  15
ATOM     15  C   UNL     1       6.001   1.009  -2.276  0.00  0.00    +0.419 C 
ATOM     16  F   UNL     1       5.762   1.251  -3.634  0.00  0.00    -0.166 F 
ATOM     17  F   UNL     1       5.568   2.107  -1.524  0.00  0.00    -0.166 F 
ATOM     18  F   UNL     1       7.371   0.814  -2.071  0.00  0.00    -0.166 F 
ENDBRANCH  10  15
ENDBRANCH   4   7
BRANCH   1  20
ATOM     19  C   UNL     1       0.004  -7.696  -0.854  0.00  0.00    +0.115 C 
ATOM     20  C   UNL     1       0.584  -6.684  -1.624  0.00  0.00    +0.104 C 
BRANCH  20  21
ATOM     21  N   UNL     1       0.289  -6.585  -2.953  0.00  0.00    -0.345 N 
ATOM     22  H   UNL     1       0.975  -6.312  -3.582  0.00  0.00    +0.144 HD
ATOM     23  H   UNL     1      -0.606  -6.787  -3.267  0.00  0.00    +0.144 HD
ENDBRANCH  20  21
BRANCH  19  24
ATOM     24  C   UNL     1      -0.715  -8.743  -1.484  0.00  0.00    +0.097 C 
ATOM     25  S   UNL     1      -0.708  -8.880  -3.191  0.00  0.00    -0.034 S 
BRANCH  24  26
ATOM     26  N   UNL     1      -1.404  -9.630  -0.740  0.00  0.00    -0.308 N 
ATOM     27  H   UNL     1      -1.474  -9.508   0.220  0.00  0.00    +0.153 HD
BRANCH  26  31
ATOM     28  C   UNL     1      -3.233 -12.900  -2.559  0.00  0.00    +0.000 A 
ATOM     29  C   UNL     1      -1.969 -12.507  -2.958  0.00  0.00    +0.002 A 
ATOM     30  C   UNL     1      -1.360 -11.423  -2.357  0.00  0.00    +0.023 A 
ATOM     31  C   UNL     1      -2.018 -10.728  -1.351  0.00  0.00    +0.032 A 
ATOM     32  C   UNL     1      -3.286 -11.129  -0.949  0.00  0.00    +0.023 A 
ATOM     33  C   UNL     1      -3.891 -12.211  -1.557  0.00  0.00    +0.002 A 
ENDBRANCH  26  31
ENDBRANCH  24  26
ENDBRANCH  19  24
BRANCH  19  34
ATOM     34  C   UNL     1       0.137  -7.675   0.572  0.00  0.00    +0.105 C 
ATOM     35  N   UNL     1       0.242  -7.659   1.703  0.00  0.00    -0.191 NA
ENDBRANCH  19  34
ENDBRANCH   1  20
TORSDOF 8
