REMARK  Name = ZINC55139312
REMARK  6 active torsions:
REMARK  status: ('A' for Active; 'I' for Inactive)
REMARK    1  A    between atoms: C_1  and  C_2
REMARK    2  A    between atoms: C_5  and  C_12
REMARK    3  A    between atoms: C_9  and  N_11
REMARK    4  A    between atoms: C_16  and  C_23
REMARK    5  A    between atoms: C_19  and  C_21
REMARK    6  A    between atoms: C_19  and  C_22
REMARK                            x       y       z     vdW  Elec       q    Type
REMARK                         _______ _______ _______ _____ _____    ______ ____
ROOT
ATOM      1  C   UNL     1      -0.171   1.990   2.002  0.00  0.00    +0.006 C 
ATOM      2  C   UNL     1      -0.664   1.834   0.562  0.00  0.00    -0.028 C 
ATOM      3  C   UNL     1      -2.102   1.311   0.570  0.00  0.00    +0.014 C 
ATOM      4  C   UNL     1      -2.147  -0.046   1.275  0.00  0.00    +0.075 C 
ATOM      5  C   UNL     1      -1.248  -1.037   0.532  0.00  0.00    +0.011 C 
ATOM      6  C   UNL     1       0.190  -0.514   0.524  0.00  0.00    -0.015 C 
ATOM      7  C   UNL     1       0.235   0.843  -0.181  0.00  0.00    -0.072 C 
ENDROOT
BRANCH   4   8
ATOM      8  C   UNL     1      -3.563  -0.562   1.282  0.00  0.00    +0.219 C 
ATOM      9  O   UNL     1      -3.990  -1.178   0.329  0.00  0.00    -0.275 OA
ATOM     10  N   UNL     1      -4.356  -0.338   2.349  0.00  0.00    -0.296 N 
ATOM     11  C   UNL     1      -3.904   0.509   3.464  0.00  0.00    +0.139 C 
ATOM     12  C   UNL     1      -4.993   1.550   3.752  0.00  0.00    +0.133 C 
ATOM     13  O   UNL     1      -6.245   0.884   3.928  0.00  0.00    -0.368 OA
ATOM     14  C   UNL     1      -6.700   0.177   2.771  0.00  0.00    +0.080 C 
ATOM     15  C   UNL     1      -5.701  -0.929   2.430  0.00  0.00    +0.142 C 
ATOM     16  C   UNL     1      -6.808   1.145   1.591  0.00  0.00    +0.043 C 
ATOM     17  C   UNL     1      -8.071  -0.440   3.055  0.00  0.00    +0.043 C 
ATOM     18  C   UNL     1      -4.639   2.320   5.026  0.00  0.00    +0.039 C 
ENDBRANCH   4   8
BRANCH   7  19
ATOM     19  N   UNL     1       1.615   1.346  -0.188  0.00  0.00    +0.380 N 
ATOM     20  H   UNL     1       1.941   1.449   0.761  0.00  0.00    -0.090 HD
ATOM     21  H   UNL     1       2.208   0.693  -0.678  0.00  0.00    -0.090 HD
ATOM     22  H   UNL     1       1.645   2.241  -0.653  0.00  0.00    -0.090 HD
ENDBRANCH   7  19
TORSDOF 2
