REMARK  Name = ZINC11898510
REMARK  8 active torsions:
REMARK  status: ('A' for Active; 'I' for Inactive)
REMARK    1  A    between atoms: C_1  and  N_2
REMARK    2  A    between atoms: C_6  and  C_7
REMARK    3  A    between atoms: C_7  and  C_9
REMARK    4  A    between atoms: C_7  and  N_59
REMARK    5  A    between atoms: C_9  and  N_10
REMARK    6  A    between atoms: C_11  and  C_13
REMARK    7  A    between atoms: N_15  and  C_16
REMARK    8  A    between atoms: C_20  and  C_22
REMARK                            x       y       z     vdW  Elec       q    Type
REMARK                         _______ _______ _______ _____ _____    ______ ____
ROOT
ATOM      1  C   UNL     1       0.893   1.731  -0.287  0.00  0.00    +0.095 C 
ENDROOT
BRANCH   1   2
ATOM      2  N   UNL     1       0.031   0.788  -1.004  0.00  0.00    -0.309 N 
ATOM      3  C   UNL     1      -0.993   1.246  -1.751  0.00  0.00    +0.299 C 
ATOM      4  O   UNL     1      -1.204   2.439  -1.825  0.00  0.00    -0.265 OA
ATOM      5  H   UNL     1       0.200  -0.165  -0.945  0.00  0.00    +0.149 HD
BRANCH   3   6
ATOM      6  C   UNL     1      -1.869   0.286  -2.487  0.00  0.00    +0.303 C 
ATOM      7  O   UNL     1      -1.657  -0.907  -2.413  0.00  0.00    -0.265 OA
ATOM      8  N   UNL     1      -2.893   0.744  -3.234  0.00  0.00    -0.278 N 
ATOM      9  H   UNL     1      -3.019   1.698  -3.350  0.00  0.00    +0.155 HD
BRANCH   8  10
ATOM     10  C   UNL     1      -3.772  -0.157  -3.841  0.00  0.00    +0.034 A 
ATOM     11  C   UNL     1      -3.297  -1.360  -4.348  0.00  0.00    +0.023 A 
ATOM     12  C   UNL     1      -4.170  -2.249  -4.942  0.00  0.00    +0.002 A 
ATOM     13  C   UNL     1      -5.514  -1.939  -5.043  0.00  0.00    +0.012 A 
ATOM     14  C   UNL     1      -5.989  -0.741  -4.544  0.00  0.00    +0.057 A 
ATOM     15  C   UNL     1      -5.123   0.152  -3.943  0.00  0.00    +0.035 A 
BRANCH  14  16
ATOM     16  C   UNL     1      -7.455  -0.407  -4.656  0.00  0.00    +0.417 C 
ATOM     17  F   UNL     1      -7.688   0.269  -5.859  0.00  0.00    -0.166 F 
ATOM     18  F   UNL     1      -8.205  -1.587  -4.632  0.00  0.00    -0.166 F 
ATOM     19  F   UNL     1      -7.831   0.408  -3.583  0.00  0.00    -0.166 F 
ENDBRANCH  14  16
ENDBRANCH   8  10
ENDBRANCH   3   6
ENDBRANCH   1   2
BRANCH   1  20
ATOM     20  C   UNL     1       1.862   0.956   0.609  0.00  0.00    -0.003 C 
BRANCH  20  30
ATOM     21  C   UNL     1       0.397  -0.909   1.107  0.00  0.00    -0.073 C 
ATOM     22  C   UNL     1      -0.058  -1.794   2.268  0.00  0.00    +0.017 C 
ATOM     23  C   UNL     1      -0.781  -0.962   3.296  0.00  0.00    -0.048 A 
ATOM     24  C   UNL     1      -1.568  -1.610   4.236  0.00  0.00    +0.004 A 
ATOM     25  C   UNL     1      -2.244  -0.886   5.197  0.00  0.00    +0.000 A 
ATOM     26  C   UNL     1      -2.138   0.492   5.223  0.00  0.00    +0.000 A 
ATOM     27  C   UNL     1      -1.357   1.138   4.286  0.00  0.00    +0.002 A 
ATOM     28  C   UNL     1      -0.677   0.412   3.318  0.00  0.00    -0.061 A 
ATOM     29  C   UNL     1       0.160   1.162   2.315  0.00  0.00    -0.042 C 
ATOM     30  N   UNL     1       1.119   0.247   1.675  0.00  0.00    +0.389 N 
ATOM     31  H   UNL     1       1.785  -0.088   2.381  0.00  0.00    -0.080 HD
ENDBRANCH  20  30
BRANCH  20  37
ATOM     32  C   UNL     1       3.740   2.929  -0.872  0.00  0.00    +0.148 C 
ATOM     33  N   UNL     1       3.655   2.779   0.583  0.00  0.00    -0.355 N 
ATOM     34  C   UNL     1       4.384   3.479   1.498  0.00  0.00    +0.085 A 
ATOM     35  C   UNL     1       4.027   3.062   2.730  0.00  0.00    +0.019 A 
ATOM     36  C   UNL     1       3.038   2.071   2.570  0.00  0.00    +0.021 A 
ATOM     37  C   UNL     1       2.834   1.915   1.246  0.00  0.00    +0.006 A 
ENDBRANCH  20  37
ENDBRANCH   1  20
TORSDOF 7
