REMARK  Name = ZINC38547917
REMARK  12 active torsions:
REMARK  status: ('A' for Active; 'I' for Inactive)
REMARK    1  A    between atoms: C_1  and  C_2
REMARK    2  A    between atoms: C_2  and  C_3
REMARK    3  A    between atoms: C_5  and  C_16
REMARK    4  A    between atoms: C_6  and  N_8
REMARK    5  A    between atoms: C_9  and  C_11
REMARK    6  A    between atoms: C_16  and  C_18
REMARK    7  A    between atoms: C_16  and  N_28
REMARK    8  A    between atoms: C_21  and  O_26
REMARK    9  A    between atoms: C_23  and  O_24
REMARK   10  A    between atoms: O_24  and  C_25
REMARK   11  A    between atoms: O_26  and  C_27
REMARK   12  A    between atoms: C_33  and  C_35
REMARK                            x       y       z     vdW  Elec       q    Type
REMARK                         _______ _______ _______ _____ _____    ______ ____
ROOT
ATOM      1  C   UNL     1       3.808  -1.331  -3.014  0.00  0.00    +0.138 C 
ENDROOT
BRANCH   1   2
ATOM      2  N   UNL     1       4.571  -0.583  -2.011  0.00  0.00    -0.319 N 
ATOM      3  C   UNL     1       4.389  -0.850  -0.659  0.00  0.00    +0.097 A 
ATOM      4  C   UNL     1       3.650  -1.963  -0.270  0.00  0.00    +0.041 A 
ATOM      5  C   UNL     1       3.478  -2.217   1.079  0.00  0.00    +0.005 A 
ATOM      6  C   UNL     1       4.052  -1.346   1.996  0.00  0.00    +0.021 A 
ATOM      7  C   UNL     1       4.772  -0.261   1.539  0.00  0.00    +0.014 A 
ATOM      8  N   UNL     1       4.925  -0.047   0.246  0.00  0.00    -0.347 N 
ATOM      9  C   UNL     1       5.397   0.687   2.529  0.00  0.00    +0.063 C 
ATOM     10  H   UNL     1       5.202   0.098  -2.291  0.00  0.00    +0.148 HD
ATOM     11  H   UNL     1       5.440   0.721  -0.049  0.00  0.00    +0.167 HD
ENDBRANCH   1   2
BRANCH   1  12
ATOM     12  C   UNL     1       4.144  -2.797  -2.911  0.00  0.00    +0.019 A 
ATOM     13  C   UNL     1       5.218  -3.206  -2.143  0.00  0.00    +0.013 A 
ATOM     14  C   UNL     1       5.528  -4.549  -2.047  0.00  0.00    +0.046 A 
ATOM     15  C   UNL     1       4.762  -5.490  -2.720  0.00  0.00    +0.124 A 
ATOM     16  C   UNL     1       3.684  -5.082  -3.491  0.00  0.00    +0.091 A 
ATOM     17  C   UNL     1       3.372  -3.734  -3.582  0.00  0.00    +0.129 A 
BRANCH  17  18
ATOM     18  O   UNL     1       2.312  -3.331  -4.332  0.00  0.00    -0.495 OA
ATOM     19  C   UNL     1       1.502  -4.354  -4.913  0.00  0.00    +0.277 C 
ENDBRANCH  17  18
BRANCH  15  20
ATOM     20  O   UNL     1       5.068  -6.811  -2.625  0.00  0.00    -0.495 OA
ATOM     21  C   UNL     1       6.192  -7.159  -1.814  0.00  0.00    +0.277 C 
ENDBRANCH  15  20
ENDBRANCH   1  12
BRANCH   1  24
ATOM     22  C   UNL     1       0.245  -1.942  -2.026  0.00  0.00    -0.008 A 
ATOM     23  C   UNL     1       1.568  -2.151  -2.230  0.00  0.00    +0.019 A 
ATOM     24  C   UNL     1       2.334  -1.135  -2.773  0.00  0.00    +0.006 A 
ATOM     25  C   UNL     1       1.730   0.046  -3.086  0.00  0.00    +0.078 A 
ATOM     26  S   UNL     1       0.037  -0.270  -2.615  0.00  0.00    -0.078 S 
BRANCH  25  27
ATOM     27  N   UNL     1       2.290   1.200  -3.637  0.00  0.00    -0.273 N 
ATOM     28  C   UNL     1       1.542   2.314  -3.771  0.00  0.00    +0.284 C 
ATOM     29  O   UNL     1       0.408   2.342  -3.329  0.00  0.00    -0.266 OA
ATOM     30  H   UNL     1       3.216   1.201  -3.923  0.00  0.00    +0.156 HD
BRANCH  28  31
ATOM     31  C   UNL     1       2.094   3.491  -4.449  0.00  0.00    +0.189 A 
ATOM     32  C   UNL     1       1.419   4.644  -4.732  0.00  0.00    +0.054 A 
ATOM     33  C   UNL     1       2.329   5.494  -5.381  0.00  0.00    +0.042 A 
ATOM     34  C   UNL     1       3.503   4.832  -5.463  0.00  0.00    +0.196 A 
ATOM     35  O   UNL     1       3.360   3.627  -4.896  0.00  0.00    -0.458 OA
ENDBRANCH  28  31
ENDBRANCH  25  27
BRANCH  22  37
ATOM     36  C   UNL     1      -0.857  -2.698   0.062  0.00  0.00    +0.009 C 
ATOM     37  C   UNL     1      -0.786  -2.881  -1.455  0.00  0.00    +0.039 C 
ENDBRANCH  22  37
ENDBRANCH   1  24
TORSDOF 8
