REMARK  Name = ZINC54447123
REMARK  12 active torsions:
REMARK  status: ('A' for Active; 'I' for Inactive)
REMARK    1  A    between atoms: C_1  and  C_2
REMARK    2  A    between atoms: C_4  and  O_26
REMARK    3  A    between atoms: C_7  and  N_8
REMARK    4  A    between atoms: N_11  and  C_12
REMARK    5  A    between atoms: C_12  and  C_13
REMARK    6  A    between atoms: C_13  and  C_14
REMARK    7  A    between atoms: C_13  and  C_15
REMARK    8  A    between atoms: C_13  and  N_16
REMARK    9  A    between atoms: C_18  and  C_25
REMARK   10  A    between atoms: C_21  and  C_24
REMARK   11  A    between atoms: O_26  and  C_27
REMARK   12  A    between atoms: C_27  and  C_28
REMARK                            x       y       z     vdW  Elec       q    Type
REMARK                         _______ _______ _______ _____ _____    ______ ____
ROOT
ATOM      1  N   UNL     1      -2.576  -3.178   5.133  0.00  0.00    -0.269 N 
ATOM      2  C   UNL     1      -1.384  -2.551   5.174  0.00  0.00    +0.304 C 
ATOM      3  O   UNL     1      -0.552  -2.770   4.316  0.00  0.00    -0.253 OA
ATOM      4  N   UNL     1      -1.115  -1.680   6.167  0.00  0.00    -0.300 N 
ATOM      5  H   UNL     1      -3.262  -2.960   5.784  0.00  0.00    +0.156 HD
ATOM      6  H   UNL     1      -1.779  -1.505   6.852  0.00  0.00    +0.150 HD
ENDROOT
BRANCH   1  13
ATOM      7  C   UNL     1      -4.204  -5.406   5.823  0.00  0.00    +0.046 C 
ATOM      8  C   UNL     1      -3.615  -5.248   4.445  0.00  0.00    -0.026 A 
ATOM      9  C   UNL     1      -3.865  -6.198   3.474  0.00  0.00    +0.050 A 
ATOM     10  C   UNL     1      -3.323  -6.053   2.206  0.00  0.00    +0.122 A 
ATOM     11  C   UNL     1      -2.529  -4.954   1.912  0.00  0.00    +0.047 A 
ATOM     12  C   UNL     1      -2.278  -4.004   2.882  0.00  0.00    +0.027 A 
ATOM     13  C   UNL     1      -2.826  -4.145   4.150  0.00  0.00    +0.038 A 
BRANCH  10  14
ATOM     14  O   UNL     1      -3.569  -6.989   1.250  0.00  0.00    -0.483 OA
BRANCH  14  15
ATOM     15  C   UNL     1      -2.979  -6.776  -0.034  0.00  0.00    +0.324 C 
BRANCH  15  16
ATOM     16  C   UNL     1      -3.360  -7.906  -0.955  0.00  0.00    +0.248 C 
ATOM     17  O   UNL     1      -4.067  -8.805  -0.552  0.00  0.00    -0.272 OA
ATOM     18  N   UNL     1      -2.915  -7.917  -2.227  0.00  0.00    -0.327 N 
ATOM     19  H   UNL     1      -2.350  -7.198  -2.550  0.00  0.00    +0.145 HD
ATOM     20  H   UNL     1      -3.160  -8.644  -2.820  0.00  0.00    +0.145 HD
ENDBRANCH  15  16
ENDBRANCH  14  15
ENDBRANCH  10  14
ENDBRANCH   1  13
BRANCH   4  21
ATOM     21  C   UNL     1       0.181  -0.998   6.212  0.00  0.00    +0.093 C 
BRANCH  21  22
ATOM     22  C   UNL     1       0.277  -0.169   7.494  0.00  0.00    -0.055 C 
ATOM     23  C   UNL     1       0.169  -1.093   8.708  0.00  0.00    -0.008 C 
ATOM     24  C   UNL     1       1.619   0.564   7.528  0.00  0.00    -0.008 C 
BRANCH  22  25
ATOM     25  N   UNL     1      -0.817   0.811   7.526  0.00  0.00    +0.384 N 
ATOM     26  C   UNL     1      -0.778   1.626   6.305  0.00  0.00    -0.075 C 
ATOM     27  C   UNL     1      -1.964   2.594   6.295  0.00  0.00    -0.031 C 
ATOM     28  C   UNL     1      -1.880   3.506   7.522  0.00  0.00    +0.003 C 
ATOM     29  C   UNL     1      -1.846   2.643   8.787  0.00  0.00    -0.031 C 
ATOM     30  C   UNL     1      -0.666   1.673   8.704  0.00  0.00    -0.075 C 
ATOM     31  C   UNL     1      -1.686   3.542  10.015  0.00  0.00    +0.005 C 
ATOM     32  C   UNL     1      -1.920   3.442   5.023  0.00  0.00    +0.005 C 
ATOM     33  H   UNL     1      -1.700   0.326   7.576  0.00  0.00    -0.081 HD
ENDBRANCH  22  25
ENDBRANCH  21  22
ENDBRANCH   4  21
TORSDOF 7
