REMARK  Name = ZINC47613346
REMARK  7 active torsions:
REMARK  status: ('A' for Active; 'I' for Inactive)
REMARK    1  A    between atoms: C_4  and  C_7
REMARK    2  A    between atoms: C_7  and  C_8
REMARK    3  A    between atoms: C_8  and  N_9
REMARK    4  A    between atoms: N_9  and  C_10
REMARK    5  A    between atoms: N_9  and  C_17
REMARK    6  A    between atoms: C_10  and  C_11
REMARK    7  A    between atoms: C_17  and  C_18
REMARK                            x       y       z     vdW  Elec       q    Type
REMARK                         _______ _______ _______ _____ _____    ______ ____
ROOT
ATOM      1  N   UNL     1       5.197  -1.666   1.327  0.00  0.00    +0.391 N 
ATOM      2  H   UNL     1       5.764  -0.963   0.876  0.00  0.00    -0.080 HD
ENDROOT
BRANCH   1   3
ATOM      3  C   UNL     1       3.800  -1.214   1.373  0.00  0.00    -0.073 C 
BRANCH   3   4
ATOM      4  C   UNL     1       3.731   0.161   2.040  0.00  0.00    +0.016 C 
BRANCH   4   8
ATOM      5  C   UNL     1      -0.260   1.664   1.798  0.00  0.00    +0.000 A 
ATOM      6  C   UNL     1       0.126   0.899   2.883  0.00  0.00    +0.000 A 
ATOM      7  C   UNL     1       1.417   0.413   2.961  0.00  0.00    +0.003 A 
ATOM      8  C   UNL     1       2.323   0.691   1.954  0.00  0.00    -0.049 A 
ATOM      9  C   UNL     1       1.936   1.455   0.869  0.00  0.00    +0.003 A 
ATOM     10  C   UNL     1       0.645   1.942   0.791  0.00  0.00    +0.000 A 
ENDBRANCH   4   8
ENDBRANCH   3   4
ENDBRANCH   1   3
BRANCH   1  11
ATOM     11  C   UNL     1       5.686  -1.886   2.695  0.00  0.00    +0.020 C 
BRANCH  11  12
ATOM     12  C   UNL     1       7.153  -2.231   2.655  0.00  0.00    +0.204 C 
ATOM     13  O   UNL     1       7.733  -2.287   1.592  0.00  0.00    -0.277 OA
ATOM     14  N   UNL     1       7.819  -2.476   3.800  0.00  0.00    -0.242 N 
ATOM     15  C   UNL     1       9.130  -2.784   3.764  0.00  0.00    +0.303 C 
ATOM     16  O   UNL     1       9.713  -2.841   2.699  0.00  0.00    -0.253 OA
ATOM     17  N   UNL     1       9.797  -3.029   4.910  0.00  0.00    -0.313 N 
ATOM     18  H   UNL     1       7.354  -2.431   4.651  0.00  0.00    +0.159 HD
ATOM     19  H   UNL     1       9.332  -2.984   5.760  0.00  0.00    +0.146 HD
ATOM     20  H   UNL     1      10.741  -3.251   4.884  0.00  0.00    +0.146 HD
ENDBRANCH  11  12
ENDBRANCH   1  11
BRANCH   1  21
ATOM     21  C   UNL     1       5.281  -2.921   0.569  0.00  0.00    +0.020 C 
BRANCH  21  22
ATOM     22  C   UNL     1       4.943  -2.659  -0.876  0.00  0.00    +0.204 C 
ATOM     23  O   UNL     1       4.775  -1.522  -1.263  0.00  0.00    -0.277 OA
ATOM     24  N   UNL     1       4.827  -3.688  -1.738  0.00  0.00    -0.242 N 
ATOM     25  C   UNL     1       4.524  -3.454  -3.031  0.00  0.00    +0.303 C 
ATOM     26  O   UNL     1       4.356  -2.314  -3.418  0.00  0.00    -0.253 OA
ATOM     27  N   UNL     1       4.408  -4.483  -3.893  0.00  0.00    -0.313 N 
ATOM     28  H   UNL     1       4.961  -4.598  -1.429  0.00  0.00    +0.159 HD
ATOM     29  H   UNL     1       4.542  -5.393  -3.584  0.00  0.00    +0.146 HD
ATOM     30  H   UNL     1       4.190  -4.314  -4.823  0.00  0.00    +0.146 HD
ENDBRANCH  21  22
ENDBRANCH   1  21
TORSDOF 7
