REMARK  Name = ZINC38614951
REMARK  10 active torsions:
REMARK  status: ('A' for Active; 'I' for Inactive)
REMARK    1  A    between atoms: C_1  and  C_2
REMARK    2  A    between atoms: C_2  and  O_3
REMARK    3  A    between atoms: O_3  and  C_4
REMARK    4  A    between atoms: C_7  and  C_11
REMARK    5  A    between atoms: N_13  and  C_14
REMARK    6  A    between atoms: C_14  and  C_15
REMARK    7  A    between atoms: C_15  and  C_17
REMARK    8  A    between atoms: C_15  and  N_25
REMARK    9  A    between atoms: C_20  and  O_23
REMARK   10  A    between atoms: O_23  and  C_24
REMARK                            x       y       z     vdW  Elec       q    Type
REMARK                         _______ _______ _______ _____ _____    ______ ____
ROOT
ATOM      1  C   UNL     1       0.369  -8.277  -2.749  0.00  0.00    +0.094 C 
ENDROOT
BRANCH   1   4
ATOM      2  C   UNL     1       1.433  -8.663  -0.591  0.00  0.00    +0.244 C 
ATOM      3  O   UNL     1       2.385  -8.012  -0.978  0.00  0.00    -0.270 OA
ATOM      4  N   UNL     1       0.373  -8.853  -1.402  0.00  0.00    -0.313 N 
ATOM      5  H   UNL     1      -0.386  -9.372  -1.093  0.00  0.00    +0.149 HD
BRANCH   2   9
ATOM      6  C   UNL     1       1.447 -10.333   3.314  0.00  0.00    +0.157 A 
ATOM      7  C   UNL     1       2.537  -9.591   2.874  0.00  0.00    +0.085 A 
ATOM      8  C   UNL     1       2.536  -9.047   1.607  0.00  0.00    +0.036 A 
ATOM      9  C   UNL     1       1.438  -9.243   0.766  0.00  0.00    +0.040 A 
ATOM     10  C   UNL     1       0.345  -9.991   1.212  0.00  0.00    +0.036 A 
ATOM     11  C   UNL     1       0.355 -10.535   2.478  0.00  0.00    +0.085 A 
ATOM     12 CL   UNL     1      -1.000 -11.469   3.031  0.00  0.00    -0.080 Cl
ATOM     13 CL   UNL     1       3.900  -9.347   3.921  0.00  0.00    -0.080 Cl
BRANCH   6  14
ATOM     14  O   UNL     1       1.452 -10.868   4.563  0.00  0.00    -0.489 OA
BRANCH  14  16
ATOM     15  C   UNL     1       1.918 -12.611   6.170  0.00  0.00    +0.048 C 
ATOM     16  C   UNL     1       1.998 -12.181   4.704  0.00  0.00    +0.226 C 
ENDBRANCH  14  16
ENDBRANCH   6  14
ENDBRANCH   2   9
ENDBRANCH   1   4
BRANCH   1  17
ATOM     17  C   UNL     1      -0.878  -8.747  -3.500  0.00  0.00    -0.020 C 
BRANCH  17  18
ATOM     18  N   UNL     1      -0.931  -8.097  -4.817  0.00  0.00    +0.385 N 
ATOM     19  C   UNL     1      -1.036  -6.644  -4.640  0.00  0.00    -0.078 C 
ATOM     20  C   UNL     1      -1.010  -5.957  -6.006  0.00  0.00    -0.019 C 
ATOM     21  C   UNL     1      -2.188  -6.457  -6.846  0.00  0.00    -0.004 C 
ATOM     22  C   UNL     1      -2.109  -7.982  -6.962  0.00  0.00    -0.019 C 
ATOM     23  C   UNL     1      -2.095  -8.594  -5.560  0.00  0.00    -0.078 C 
ATOM     24  H   UNL     1      -0.089  -8.311  -5.330  0.00  0.00    -0.081 HD
ENDBRANCH  17  18
BRANCH  17  25
ATOM     25  C   UNL     1      -0.823 -10.242  -3.680  0.00  0.00    -0.059 A 
ATOM     26  C   UNL     1      -0.046 -10.788  -4.685  0.00  0.00    +0.005 A 
ATOM     27  C   UNL     1       0.006 -12.158  -4.852  0.00  0.00    +0.046 A 
ATOM     28  C   UNL     1      -0.721 -12.987  -4.009  0.00  0.00    +0.120 A 
ATOM     29  C   UNL     1      -1.499 -12.437  -3.001  0.00  0.00    +0.046 A 
ATOM     30  C   UNL     1      -1.544 -11.066  -2.835  0.00  0.00    +0.005 A 
BRANCH  28  31
ATOM     31  O   UNL     1      -0.671 -14.335  -4.172  0.00  0.00    -0.495 OA
ATOM     32  C   UNL     1      -1.446 -15.126  -3.268  0.00  0.00    +0.277 C 
ENDBRANCH  28  31
ENDBRANCH  17  25
ENDBRANCH   1  17
TORSDOF 8
