REMARK  Name = ZINC29520476
REMARK  12 active torsions:
REMARK  status: ('A' for Active; 'I' for Inactive)
REMARK    1  A    between atoms: C_1  and  C_2
REMARK    2  A    between atoms: C_2  and  N_3
REMARK    3  A    between atoms: N_3  and  C_4
REMARK    4  A    between atoms: N_3  and  C_18
REMARK    5  A    between atoms: C_4  and  C_5
REMARK    6  A    between atoms: C_5  and  C_6
REMARK    7  A    between atoms: N_8  and  C_9
REMARK    8  A    between atoms: C_12  and  C_15
REMARK    9  A    between atoms: C_18  and  C_19
REMARK   10  A    between atoms: N_21  and  C_22
REMARK   11  A    between atoms: C_22  and  C_24
REMARK   12  A    between atoms: C_22  and  C_25
REMARK                            x       y       z     vdW  Elec       q    Type
REMARK                         _______ _______ _______ _____ _____    ______ ____
ROOT
ATOM      1  N   UNL     1       5.016   0.616   0.429  0.00  0.00    +0.386 N 
ATOM      2  H   UNL     1       4.884  -0.029  -0.453  0.00  0.00    -0.081 HD
ENDROOT
BRANCH   1   4
ATOM      3  C   UNL     1       4.636  -1.532   1.541  0.00  0.00    -0.017 C 
ATOM      4  C   UNL     1       5.444  -0.233   1.549  0.00  0.00    -0.082 C 
ENDBRANCH   1   4
BRANCH   1   5
ATOM      5  C   UNL     1       3.726   1.257   0.717  0.00  0.00    -0.069 C 
BRANCH   5   6
ATOM      6  C   UNL     1       3.177   1.895  -0.561  0.00  0.00    +0.077 C 
BRANCH   6   7
ATOM      7  C   UNL     1       1.906   2.640  -0.244  0.00  0.00    +0.215 C 
ATOM      8  O   UNL     1       1.481   2.659   0.891  0.00  0.00    -0.276 OA
ATOM      9  N   UNL     1       1.241   3.285  -1.224  0.00  0.00    -0.286 N 
ATOM     10  H   UNL     1       1.664   3.330  -2.238  0.00  0.00    +0.155 HD
BRANCH   9  11
ATOM     11  C   UNL     1       0.017   3.895  -0.950  0.00  0.00    +0.033 A 
ATOM     12  C   UNL     1      -0.199   4.495   0.286  0.00  0.00    +0.024 A 
ATOM     13  C   UNL     1      -1.404   5.102   0.557  0.00  0.00    +0.015 A 
ATOM     14  C   UNL     1      -2.415   5.107  -0.408  0.00  0.00    +0.037 A 
ATOM     15  C   UNL     1      -2.197   4.499  -1.647  0.00  0.00    +0.015 A 
ATOM     16  C   UNL     1      -0.987   3.897  -1.913  0.00  0.00    +0.024 A 
BRANCH  14  17
ATOM     17  C   UNL     1      -3.710   5.753  -0.119  0.00  0.00    +0.242 C 
ATOM     18  O   UNL     1      -4.589   5.757  -0.959  0.00  0.00    -0.270 OA
ATOM     19  N   UNL     1      -3.919   6.339   1.077  0.00  0.00    -0.325 N 
ATOM     20  H   UNL     1      -4.884   6.821   1.292  0.00  0.00    +0.145 HD
ATOM     21  H   UNL     1      -3.124   6.336   1.837  0.00  0.00    +0.145 HD
ENDBRANCH  14  17
ENDBRANCH   9  11
ENDBRANCH   6   7
ENDBRANCH   5   6
ENDBRANCH   1   5
BRANCH   1  22
ATOM     22  C   UNL     1       6.041   1.618   0.106  0.00  0.00    +0.019 C 
BRANCH  22  23
ATOM     23  C   UNL     1       7.272   0.926  -0.419  0.00  0.00    +0.197 C 
ATOM     24  O   UNL     1       7.294  -0.283  -0.515  0.00  0.00    -0.278 OA
ATOM     25  N   UNL     1       8.350   1.650  -0.782  0.00  0.00    -0.310 N 
ATOM     26  H   UNL     1       8.330   2.746  -0.695  0.00  0.00    +0.149 HD
BRANCH  25  27
ATOM     27  C   UNL     1       9.547   0.977  -1.292  0.00  0.00    +0.101 C 
ATOM     28  C   UNL     1       9.447   0.843  -2.813  0.00  0.00    +0.033 C 
BRANCH  27  29
ATOM     29  C   UNL     1      10.768   1.786  -0.938  0.00  0.00    -0.009 A 
ATOM     30  C   UNL     1      10.665   3.154  -0.768  0.00  0.00    +0.007 A 
ATOM     31  C   UNL     1      11.784   3.897  -0.444  0.00  0.00    +0.000 A 
ATOM     32  C   UNL     1      13.008   3.272  -0.288  0.00  0.00    +0.001 A 
ATOM     33  C   UNL     1      13.112   1.904  -0.456  0.00  0.00    +0.020 A 
ATOM     34  C   UNL     1      11.990   1.159  -0.776  0.00  0.00    +0.046 A 
ATOM     35 CL   UNL     1      12.119  -0.559  -0.981  0.00  0.00    -0.083 Cl
ENDBRANCH  27  29
ENDBRANCH  25  27
ENDBRANCH  22  23
ENDBRANCH   1  22
TORSDOF 10
