REMARK  Name = ZINC09846588
REMARK  11 active torsions:
REMARK  status: ('A' for Active; 'I' for Inactive)
REMARK    1  A    between atoms: C_1  and  O_2
REMARK    2  A    between atoms: O_2  and  C_3
REMARK    3  A    between atoms: C_3  and  C_5
REMARK    4  A    between atoms: C_7  and  C_28
REMARK    5  A    between atoms: C_9  and  N_11
REMARK    6  A    between atoms: N_11  and  C_12
REMARK    7  A    between atoms: C_12  and  N_14
REMARK    8  A    between atoms: C_17  and  C_20
REMARK    9  A    between atoms: C_17  and  N_62
REMARK   10  A    between atoms: C_28  and  O_30
REMARK   11  A    between atoms: O_30  and  C_31
REMARK                            x       y       z     vdW  Elec       q    Type
REMARK                         _______ _______ _______ _____ _____    ______ ____
ROOT
ATOM      1  C   UNL     1       2.725  -4.451  -3.922  0.00  0.00    +0.137 C 
ATOM      2  S   UNL     1       2.663  -2.748  -3.766  0.00  0.00    -0.018 S 
ENDROOT
BRANCH   1   3
ATOM      3  N   UNL     1       3.186  -5.008  -5.060  0.00  0.00    -0.313 N 
ATOM      4  C   UNL     1       3.152  -6.464  -5.248  0.00  0.00    +0.106 C 
ATOM      5  C   UNL     1       4.553  -6.951  -5.617  0.00  0.00    +0.016 C 
ATOM      6  C   UNL     1       5.058  -6.171  -6.833  0.00  0.00    +0.015 C 
ATOM      7  C   UNL     1       5.137  -4.682  -6.489  0.00  0.00    +0.016 C 
ATOM      8  C   UNL     1       3.738  -4.169  -6.133  0.00  0.00    +0.106 C 
BRANCH   6  14
ATOM      9  C   UNL     1       6.925  -5.908  -8.352  0.00  0.00    -0.077 C 
ATOM     10  C   UNL     1       8.367  -6.342  -8.621  0.00  0.00    -0.019 C 
ATOM     11  C   UNL     1       8.397  -7.844  -8.914  0.00  0.00    -0.004 C 
ATOM     12  C   UNL     1       7.793  -8.600  -7.727  0.00  0.00    -0.019 C 
ATOM     13  C   UNL     1       6.367  -8.101  -7.484  0.00  0.00    -0.077 C 
ATOM     14  N   UNL     1       6.410  -6.654  -7.184  0.00  0.00    +0.389 N 
ATOM     15  H   UNL     1       7.037  -6.497  -6.386  0.00  0.00    -0.080 HD
ENDBRANCH   6  14
BRANCH   6  16
ATOM     16  C   UNL     1       4.109  -6.371  -7.986  0.00  0.00    +0.200 C 
ATOM     17  O   UNL     1       3.293  -7.268  -7.952  0.00  0.00    -0.278 OA
ATOM     18  N   UNL     1       4.166  -5.552  -9.056  0.00  0.00    -0.330 N 
ATOM     19  H   UNL     1       4.863  -4.880  -9.115  0.00  0.00    +0.145 HD
ATOM     20  H   UNL     1       3.510  -5.635  -9.765  0.00  0.00    +0.145 HD
ENDBRANCH   6  16
ENDBRANCH   1   3
BRANCH   1  21
ATOM     21  N   UNL     1       2.312  -5.236  -2.907  0.00  0.00    -0.297 N 
ATOM     22  H   UNL     1       2.847  -5.308  -2.101  0.00  0.00    +0.154 HD
BRANCH  21  27
ATOM     23  C   UNL     1      -0.925  -6.436  -4.210  0.00  0.00    +0.062 A 
ATOM     24  C   UNL     1      -1.276  -7.368  -3.235  0.00  0.00    +0.030 A 
ATOM     25  C   UNL     1      -0.429  -7.589  -2.151  0.00  0.00    +0.062 A 
ATOM     26  C   UNL     1       0.767  -6.876  -2.044  0.00  0.00    +0.038 A 
ATOM     27  C   UNL     1       1.113  -5.949  -3.017  0.00  0.00    +0.034 A 
ATOM     28  C   UNL     1       0.275  -5.731  -4.101  0.00  0.00    +0.038 A 
BRANCH  23  29
ATOM     29  C   UNL     1      -1.820  -6.199  -5.362  0.00  0.00    +0.339 C 
ATOM     30  O   UNL     1      -1.514  -5.386  -6.212  0.00  0.00    -0.245 OA
BRANCH  29  32
ATOM     31  C   UNL     1      -3.804  -6.599  -6.628  0.00  0.00    +0.280 C 
ATOM     32  O   UNL     1      -2.975  -6.884  -5.470  0.00  0.00    -0.464 OA
ENDBRANCH  29  32
ENDBRANCH  23  29
BRANCH  25  33
ATOM     33  C   UNL     1      -0.796  -8.576  -1.114  0.00  0.00    +0.339 C 
ATOM     34  O   UNL     1      -0.057  -8.768  -0.169  0.00  0.00    -0.245 OA
BRANCH  33  35
ATOM     35  O   UNL     1      -1.949  -9.264  -1.218  0.00  0.00    -0.464 OA
ATOM     36  C   UNL     1      -2.245 -10.217  -0.164  0.00  0.00    +0.280 C 
ENDBRANCH  33  35
ENDBRANCH  25  33
ENDBRANCH  21  27
ENDBRANCH   1  21
TORSDOF 9
