REMARK  Name = ZINC57955000
REMARK  7 active torsions:
REMARK  status: ('A' for Active; 'I' for Inactive)
REMARK    1  A    between atoms: C_1  and  O_2
REMARK    2  A    between atoms: O_2  and  C_3
REMARK    3  A    between atoms: C_8  and  O_9
REMARK    4  A    between atoms: O_9  and  C_10
REMARK    5  A    between atoms: C_11  and  O_19
REMARK    6  A    between atoms: C_14  and  C_17
REMARK    7  A    between atoms: C_17  and  N_18
REMARK                            x       y       z     vdW  Elec       q    Type
REMARK                         _______ _______ _______ _____ _____    ______ ____
ROOT
ATOM      1  C   UNL     1       0.626  -0.619   1.042  0.00  0.00    +0.162 A 
ATOM      2  C   UNL     1       1.202   0.133   2.050  0.00  0.00    +0.053 A 
ATOM      3  C   UNL     1       1.840  -0.487   3.117  0.00  0.00    -0.038 A 
ATOM      4  C   UNL     1       1.898  -1.862   3.176  0.00  0.00    -0.012 A 
ATOM      5  C   UNL     1       1.325  -2.620   2.163  0.00  0.00    +0.055 A 
ATOM      6  C   UNL     1       0.684  -2.008   1.101  0.00  0.00    +0.162 A 
ATOM      7  C   UNL     1       2.559  -2.597   4.312  0.00  0.00    +0.145 C 
ATOM      8  C   UNL     1       3.489  -1.666   5.086  0.00  0.00    +0.038 C 
ATOM      9  C   UNL     1       2.709  -0.399   5.454  0.00  0.00    -0.022 C 
ATOM     10  C   UNL     1       2.450   0.396   4.175  0.00  0.00    +0.037 C 
ENDROOT
BRANCH   1  12
ATOM     11  C   UNL     1      -0.017   1.425   0.010  0.00  0.00    +0.277 C 
ATOM     12  O   UNL     1       0.002  -0.004   0.002  0.00  0.00    -0.491 OA
ENDBRANCH   1  12
BRANCH   6  13
ATOM     13  O   UNL     1       0.120  -2.759   0.118  0.00  0.00    -0.491 OA
ATOM     14  C   UNL     1       0.220  -4.178   0.247  0.00  0.00    +0.277 C 
ENDBRANCH   6  13
BRANCH   7  15
ATOM     15  O   UNL     1       1.555  -3.101   5.195  0.00  0.00    -0.387 OA
ATOM     16  H   UNL     1       0.935  -3.714   4.778  0.00  0.00    +0.210 HD
ENDBRANCH   7  15
BRANCH   9  17
ATOM     17  C   UNL     1       3.529   0.447   6.430  0.00  0.00    -0.083 C 
BRANCH  17  18
ATOM     18  N   UNL     1       2.730   1.598   6.871  0.00  0.00    +0.378 N 
ATOM     19  H   UNL     1       2.477   2.159   6.071  0.00  0.00    -0.090 HD
ATOM     20  H   UNL     1       1.894   1.271   7.331  0.00  0.00    -0.090 HD
ATOM     21  H   UNL     1       3.271   2.156   7.515  0.00  0.00    -0.090 HD
ENDBRANCH  17  18
ENDBRANCH   9  17
TORSDOF 5
