REMARK  Name = ZINC33406971
REMARK  3 active torsions:
REMARK  status: ('A' for Active; 'I' for Inactive)
REMARK    1  A    between atoms: C_1  and  C_2
REMARK    2  A    between atoms: C_5  and  S_9
REMARK    3  A    between atoms: S_9  and  N_12
REMARK                            x       y       z     vdW  Elec       q    Type
REMARK                         _______ _______ _______ _____ _____    ______ ____
ROOT
ATOM      1  S   UNL     1      -2.777   3.992   0.050  0.00  0.00    +0.061 S 
ATOM      2  O   UNL     1      -3.733   3.100   0.605  0.00  0.00    -0.153 OA
ATOM      3  O   UNL     1      -2.519   5.274   0.605  0.00  0.00    -0.153 OA
ENDROOT
BRANCH   1   4
ATOM      4  N   UNL     1      -3.219   4.239  -1.526  0.00  0.00    -0.176 NA
ATOM      5  C   UNL     1      -2.808   5.457  -2.238  0.00  0.00    +0.114 C 
ATOM      6  C   UNL     1      -4.046   6.133  -2.824  0.00  0.00    +0.082 C 
ATOM      7  C   UNL     1      -4.812   5.128  -3.689  0.00  0.00    +0.172 C 
ATOM      8  C   UNL     1      -5.265   3.950  -2.825  0.00  0.00    +0.082 C 
ATOM      9  C   UNL     1      -4.036   3.247  -2.240  0.00  0.00    +0.114 C 
ATOM     10  O   UNL     1      -5.957   5.767  -4.259  0.00  0.00    -0.348 OA
ATOM     11  C   UNL     1      -5.637   6.870  -5.112  0.00  0.00    +0.165 C 
ATOM     12  C   UNL     1      -4.722   6.379  -6.239  0.00  0.00    +0.056 C 
ATOM     13  C   UNL     1      -3.506   5.681  -5.620  0.00  0.00    +0.165 C 
ATOM     14  O   UNL     1      -3.961   4.653  -4.734  0.00  0.00    -0.348 OA
ENDBRANCH   1   4
BRANCH   1  19
ATOM     15  C   UNL     1       2.490   1.047  -0.017  0.00  0.00    +0.045 C 
ATOM     16  C   UNL     1       1.175   1.783   0.000  0.00  0.00    -0.032 A 
ATOM     17  C   UNL     1      -0.013   1.076   0.008  0.00  0.00    +0.007 A 
ATOM     18  C   UNL     1      -1.219   1.750   0.017  0.00  0.00    +0.029 A 
ATOM     19  C   UNL     1      -1.238   3.133   0.031  0.00  0.00    +0.107 A 
ATOM     20  C   UNL     1      -0.052   3.841   0.023  0.00  0.00    +0.048 A 
ATOM     21  C   UNL     1       1.156   3.166   0.008  0.00  0.00    +0.046 A 
ATOM     22 CL   UNL     1       2.647   4.055  -0.001  0.00  0.00    -0.083 Cl
ENDBRANCH   1  19
TORSDOF 2
