REMARK  Name = ZINC40152443
REMARK  7 active torsions:
REMARK  status: ('A' for Active; 'I' for Inactive)
REMARK    1  A    between atoms: C_1  and  N_2
REMARK    2  A    between atoms: C_5  and  N_8
REMARK    3  A    between atoms: N_8  and  C_9
REMARK    4  A    between atoms: C_10  and  C_12
REMARK    5  A    between atoms: C_17  and  N_18
REMARK    6  A    between atoms: C_19  and  C_21
REMARK    7  A    between atoms: C_22  and  C_23
REMARK                            x       y       z     vdW  Elec       q    Type
REMARK                         _______ _______ _______ _____ _____    ______ ____
ROOT
ATOM      1  C   UNL     1       2.039  -6.268  -0.005  0.00  0.00    +0.059 A 
ATOM      2  C   UNL     1       0.739  -6.761  -0.137  0.00  0.00    +0.035 A 
ATOM      3  C   UNL     1       0.525  -8.119  -0.243  0.00  0.00    +0.042 A 
ATOM      4  C   UNL     1       1.596  -9.000  -0.220  0.00  0.00    +0.022 A 
ATOM      5  C   UNL     1       2.886  -8.527  -0.090  0.00  0.00    +0.025 A 
ATOM      6  C   UNL     1       3.121  -7.162   0.012  0.00  0.00    +0.046 A 
ATOM      7 CL   UNL     1      -1.092  -8.729  -0.406  0.00  0.00    -0.084 Cl
ENDROOT
BRANCH   1  10
ATOM      8  N   UNL     1       1.486  -4.066   0.903  0.00  0.00    -0.298 N 
ATOM      9  C   UNL     1       0.475  -4.707   1.746  0.00  0.00    +0.132 C 
ATOM     10  C   UNL     1       2.275  -4.817   0.108  0.00  0.00    +0.248 C 
ATOM     11  O   UNL     1       3.181  -4.297  -0.515  0.00  0.00    -0.270 OA
BRANCH   8  16
ATOM     12  C   UNL     1       0.838   1.411   2.082  0.00  0.00    -0.096 C 
ATOM     13  N   UNL     1       0.778  -0.052   1.976  0.00  0.00    +0.378 N 
ATOM     14  C   UNL     1       0.472  -0.429   0.591  0.00  0.00    -0.077 C 
ATOM     15  C   UNL     1       0.329  -1.949   0.491  0.00  0.00    +0.004 C 
ATOM     16  C   UNL     1       1.641  -2.610   0.923  0.00  0.00    +0.073 C 
ATOM     17  C   UNL     1       1.989  -2.151   2.342  0.00  0.00    +0.004 C 
ATOM     18  C   UNL     1       2.071  -0.624   2.373  0.00  0.00    -0.077 C 
ATOM     19  H   UNL     1       0.055  -0.404   2.586  0.00  0.00    -0.082 HD
ENDBRANCH   8  16
ENDBRANCH   1  10
BRANCH   6  20
ATOM     20  N   UNL     1       4.422  -6.683   0.137  0.00  0.00    -0.281 N 
ATOM     21  C   UNL     1       5.461  -7.445  -0.260  0.00  0.00    +0.241 C 
ATOM     22  O   UNL     1       5.259  -8.503  -0.826  0.00  0.00    -0.270 OA
ATOM     23  H   UNL     1       4.580  -5.802   0.509  0.00  0.00    +0.155 HD
BRANCH  21  24
ATOM     24  C   UNL     1       6.832  -6.999  -0.009  0.00  0.00    +0.068 C 
ATOM     25  C   UNL     1       7.872  -7.761  -0.406  0.00  0.00    +0.013 C 
BRANCH  25  26
ATOM     26  C   UNL     1       9.250  -7.313  -0.154  0.00  0.00    -0.023 A 
ATOM     27  C   UNL     1       9.486  -6.100   0.502  0.00  0.00    +0.009 A 
ATOM     28  C   UNL     1      10.780  -5.686   0.735  0.00  0.00    +0.022 A 
ATOM     29  C   UNL     1      11.847  -6.468   0.322  0.00  0.00    +0.059 A 
ATOM     30  C   UNL     1      11.621  -7.671  -0.329  0.00  0.00    +0.060 A 
ATOM     31  C   UNL     1      10.331  -8.101  -0.564  0.00  0.00    +0.029 A 
ATOM     32 CL   UNL     1      12.964  -8.643  -0.844  0.00  0.00    -0.082 Cl
ATOM     33 CL   UNL     1      13.473  -5.938   0.620  0.00  0.00    -0.082 Cl
ENDBRANCH  25  26
ENDBRANCH  21  24
ENDBRANCH   6  20
TORSDOF 5
