REMARK  Name = ZINC14929905
REMARK  11 active torsions:
REMARK  status: ('A' for Active; 'I' for Inactive)
REMARK    1  A    between atoms: C_1  and  C_2
REMARK    2  A    between atoms: C_2  and  N_57
REMARK    3  A    between atoms: C_3  and  C_4
REMARK    4  A    between atoms: C_3  and  N_57
REMARK    5  A    between atoms: N_6  and  C_7
REMARK    6  A    between atoms: C_12  and  C_13
REMARK    7  A    between atoms: C_17  and  C_18
REMARK    8  A    between atoms: C_17  and  N_57
REMARK    9  A    between atoms: N_23  and  C_24
REMARK   10  A    between atoms: C_28  and  C_31
REMARK   11  A    between atoms: C_29  and  C_30
REMARK                            x       y       z     vdW  Elec       q    Type
REMARK                         _______ _______ _______ _____ _____    ______ ____
ROOT
ATOM      1  N   UNL     1       1.921   0.650  -0.373  0.00  0.00    +0.391 N 
ATOM      2  H   UNL     1       1.422  -0.051   0.186  0.00  0.00    -0.080 HD
ENDROOT
BRANCH   1   4
ATOM      3  C   UNL     1       2.834   1.145  -2.617  0.00  0.00    -0.017 C 
ATOM      4  C   UNL     1       2.200   0.087  -1.711  0.00  0.00    -0.081 C 
ENDBRANCH   1   4
BRANCH   1   5
ATOM      5  C   UNL     1       1.076   1.856  -0.498  0.00  0.00    +0.020 C 
BRANCH   5   6
ATOM      6  C   UNL     1      -0.289   1.444  -0.988  0.00  0.00    +0.201 C 
ATOM      7  O   UNL     1      -0.522   0.278  -1.222  0.00  0.00    -0.278 OA
ATOM      8  N   UNL     1      -1.248   2.373  -1.170  0.00  0.00    -0.287 N 
ATOM      9  H   UNL     1      -1.085   3.295  -0.915  0.00  0.00    +0.155 HD
BRANCH   8  10
ATOM     10  C   UNL     1      -2.478   2.009  -1.728  0.00  0.00    +0.045 A 
ATOM     11  C   UNL     1      -2.970   0.722  -1.547  0.00  0.00    +0.024 A 
ATOM     12  C   UNL     1      -4.187   0.366  -2.095  0.00  0.00    +0.002 A 
ATOM     13  C   UNL     1      -4.911   1.286  -2.831  0.00  0.00    +0.001 A 
ATOM     14  C   UNL     1      -4.422   2.566  -3.017  0.00  0.00    +0.014 A 
ATOM     15  C   UNL     1      -3.208   2.930  -2.467  0.00  0.00    +0.076 A 
BRANCH  15  16
ATOM     16  C   UNL     1      -2.675   4.325  -2.671  0.00  0.00    +0.419 C 
ATOM     17  F   UNL     1      -3.580   5.062  -3.442  0.00  0.00    -0.166 F 
ATOM     18  F   UNL     1      -2.507   4.946  -1.429  0.00  0.00    -0.166 F 
ATOM     19  F   UNL     1      -1.443   4.262  -3.331  0.00  0.00    -0.166 F 
ENDBRANCH  15  16
ENDBRANCH   8  10
ENDBRANCH   5   6
ENDBRANCH   1   5
BRANCH   1  20
ATOM     20  C   UNL     1       3.190   0.991   0.305  0.00  0.00    +0.020 C 
BRANCH  20  21
ATOM     21  C   UNL     1       3.857  -0.284   0.752  0.00  0.00    +0.204 C 
ATOM     22  O   UNL     1       3.316  -1.352   0.557  0.00  0.00    -0.277 OA
ATOM     23  N   UNL     1       5.056  -0.238   1.367  0.00  0.00    -0.241 N 
ATOM     24  C   UNL     1       5.652  -1.379   1.766  0.00  0.00    +0.310 C 
ATOM     25  O   UNL     1       5.110  -2.449   1.571  0.00  0.00    -0.252 OA
ATOM     26  N   UNL     1       6.851  -1.332   2.381  0.00  0.00    -0.269 N 
ATOM     27  H   UNL     1       5.488   0.616   1.522  0.00  0.00    +0.159 HD
ATOM     28  H   UNL     1       7.253  -0.476   2.596  0.00  0.00    +0.156 HD
BRANCH  26  29
ATOM     29  C   UNL     1       7.515  -2.519   2.710  0.00  0.00    +0.038 A 
ATOM     30  C   UNL     1       6.788  -3.669   2.989  0.00  0.00    +0.023 A 
ATOM     31  C   UNL     1       7.446  -4.839   3.312  0.00  0.00    +0.002 A 
ATOM     32  C   UNL     1       8.828  -4.866   3.360  0.00  0.00    +0.004 A 
ATOM     33  C   UNL     1       9.555  -3.723   3.083  0.00  0.00    -0.046 A 
ATOM     34  C   UNL     1       8.902  -2.551   2.752  0.00  0.00    -0.026 A 
ATOM     35  C   UNL     1       9.695  -1.307   2.444  0.00  0.00    +0.046 C 
ATOM     36  C   UNL     1      11.061  -3.757   3.135  0.00  0.00    +0.044 C 
ENDBRANCH  26  29
ENDBRANCH  20  21
ENDBRANCH   1  20
TORSDOF 8
