REMARK  Name = ZINC60331485
REMARK  12 active torsions:
REMARK  status: ('A' for Active; 'I' for Inactive)
REMARK    1  A    between atoms: C_1  and  C_2
REMARK    2  A    between atoms: C_2  and  C_3
REMARK    3  A    between atoms: C_3  and  O_4
REMARK    4  A    between atoms: O_4  and  C_5
REMARK    5  A    between atoms: C_8  and  C_13
REMARK    6  A    between atoms: C_10  and  O_11
REMARK    7  A    between atoms: O_11  and  C_12
REMARK    8  A    between atoms: C_14  and  C_15
REMARK    9  A    between atoms: N_17  and  C_18
REMARK   10  A    between atoms: C_21  and  C_25
REMARK   11  A    between atoms: C_23  and  C_24
REMARK   12  A    between atoms: C_25  and  N_26
REMARK                            x       y       z     vdW  Elec       q    Type
REMARK                         _______ _______ _______ _____ _____    ______ ____
ROOT
ATOM      1  C   UNL     1      -8.809  -4.524   0.055  0.00  0.00    +0.241 C 
ATOM      2  O   UNL     1      -8.859  -5.741   0.061  0.00  0.00    -0.270 OA
ATOM      3  N   UNL     1      -9.947  -3.803   0.067  0.00  0.00    -0.282 N 
ATOM      4  H   UNL     1      -9.908  -2.837   0.143  0.00  0.00    +0.155 HD
ENDROOT
BRANCH   3   5
ATOM      5  C   UNL     1     -11.184  -4.447  -0.029  0.00  0.00    +0.037 A 
ATOM      6  C   UNL     1     -11.274  -5.694  -0.636  0.00  0.00    +0.024 A 
ATOM      7  C   UNL     1     -12.498  -6.327  -0.730  0.00  0.00    +0.003 A 
ATOM      8  C   UNL     1     -13.632  -5.723  -0.221  0.00  0.00    -0.064 A 
ATOM      9  C   UNL     1     -13.546  -4.482   0.384  0.00  0.00    +0.007 A 
ATOM     10  C   UNL     1     -12.325  -3.845   0.486  0.00  0.00    -0.029 A 
ATOM     11  C   UNL     1     -12.231  -2.496   1.151  0.00  0.00    +0.045 C 
BRANCH   8  12
ATOM     12  C   UNL     1     -14.966  -6.417  -0.326  0.00  0.00    -0.043 C 
BRANCH  12  13
ATOM     13  N   UNL     1     -15.177  -7.254   0.863  0.00  0.00    +0.383 N 
ATOM     14  C   UNL     1     -14.153  -8.300   0.900  0.00  0.00    -0.068 C 
ATOM     15  C   UNL     1     -14.116  -8.943   2.292  0.00  0.00    +0.050 C 
ATOM     16  S   UNL     1     -15.731  -9.721   2.604  0.00  0.00    -0.164 S 
ATOM     17  C   UNL     1     -16.901  -8.391   2.187  0.00  0.00    +0.050 C 
ATOM     18  C   UNL     1     -16.522  -7.831   0.811  0.00  0.00    -0.068 C 
ATOM     19  H   UNL     1     -15.094  -6.682   1.689  0.00  0.00    -0.081 HD
ENDBRANCH  12  13
ENDBRANCH   8  12
ENDBRANCH   3   5
BRANCH   1  21
ATOM     20  C   UNL     1      -6.373  -4.569   0.021  0.00  0.00    +0.013 C 
ATOM     21  C   UNL     1      -7.514  -3.846   0.034  0.00  0.00    +0.068 C 
BRANCH  20  25
ATOM     22  C   UNL     1      -2.616  -2.594  -0.038  0.00  0.00    +0.162 A 
ATOM     23  C   UNL     1      -3.790  -1.852  -0.025  0.00  0.00    +0.050 A 
ATOM     24  C   UNL     1      -5.011  -2.489  -0.006  0.00  0.00    +0.012 A 
ATOM     25  C   UNL     1      -5.071  -3.887   0.001  0.00  0.00    -0.021 A 
ATOM     26  C   UNL     1      -3.888  -4.634  -0.012  0.00  0.00    +0.057 A 
ATOM     27  C   UNL     1      -2.668  -3.988  -0.037  0.00  0.00    +0.162 A 
BRANCH  27  28
ATOM     28  O   UNL     1      -1.516  -4.710  -0.055  0.00  0.00    -0.491 OA
ATOM     29  C   UNL     1      -1.643  -6.134  -0.053  0.00  0.00    +0.277 C 
ENDBRANCH  27  28
BRANCH  22  30
ATOM     30  O   UNL     1      -1.415  -1.961  -0.057  0.00  0.00    -0.488 OA
BRANCH  30  31
ATOM     31  C   UNL     1      -1.435  -0.532  -0.056  0.00  0.00    +0.229 C 
BRANCH  31  33
ATOM     32  C   UNL     1      -0.021   1.528  -0.078  0.00  0.00    +0.007 C 
ATOM     33  C   UNL     1       0.001  -0.002  -0.079  0.00  0.00    +0.038 C 
ENDBRANCH  31  33
ENDBRANCH  30  31
ENDBRANCH  22  30
ENDBRANCH  20  25
ENDBRANCH   1  21
TORSDOF 9
