REMARK  Name = ZINC38547563
REMARK  9 active torsions:
REMARK  status: ('A' for Active; 'I' for Inactive)
REMARK    1  A    between atoms: C_1  and  C_2
REMARK    2  A    between atoms: C_6  and  N_8
REMARK    3  A    between atoms: N_8  and  C_9
REMARK    4  A    between atoms: C_9  and  C_11
REMARK    5  A    between atoms: C_9  and  C_18
REMARK    6  A    between atoms: C_19  and  C_32
REMARK    7  A    between atoms: C_20  and  C_31
REMARK    8  A    between atoms: C_22  and  N_23
REMARK    9  A    between atoms: C_24  and  C_26
REMARK                            x       y       z     vdW  Elec       q    Type
REMARK                         _______ _______ _______ _____ _____    ______ ____
ROOT
ATOM      1  C   UNL     1       0.384  -4.465   2.336  0.00  0.00    +0.135 C 
ENDROOT
BRANCH   1   2
ATOM      2  C   UNL     1       1.708  -5.168   2.491  0.00  0.00    -0.021 A 
ATOM      3  C   UNL     1       2.716  -4.587   3.237  0.00  0.00    +0.006 A 
ATOM      4  C   UNL     1       3.930  -5.232   3.380  0.00  0.00    +0.002 A 
ATOM      5  C   UNL     1       4.137  -6.458   2.776  0.00  0.00    +0.020 A 
ATOM      6  C   UNL     1       3.128  -7.040   2.030  0.00  0.00    +0.041 A 
ATOM      7  C   UNL     1       1.911  -6.397   1.892  0.00  0.00    +0.025 A 
ATOM      8 CL   UNL     1       3.388  -8.580   1.272  0.00  0.00    -0.084 Cl
ENDBRANCH   1   2
BRANCH   1   9
ATOM      9  C   UNL     1      -0.542  -4.886   3.447  0.00  0.00    +0.009 A 
ATOM     10  C   UNL     1      -1.608  -5.729   3.194  0.00  0.00    -0.033 A 
ATOM     11  C   UNL     1      -2.421  -6.089   4.216  0.00  0.00    -0.008 A 
ATOM     12  S   UNL     1      -1.688  -5.226   5.597  0.00  0.00    -0.078 S 
ATOM     13  C   UNL     1      -0.341  -4.447   4.721  0.00  0.00    +0.078 A 
ATOM     14  C   UNL     1      -3.632  -6.985   4.194  0.00  0.00    +0.052 C 
ATOM     15  C   UNL     1      -1.862  -6.242   1.800  0.00  0.00    +0.045 C 
BRANCH  13  16
ATOM     16  N   UNL     1       0.657  -3.604   5.214  0.00  0.00    -0.273 N 
ATOM     17  C   UNL     1       0.753  -3.375   6.539  0.00  0.00    +0.284 C 
ATOM     18  O   UNL     1      -0.031  -3.904   7.306  0.00  0.00    -0.266 OA
ATOM     19  H   UNL     1       1.282  -3.183   4.603  0.00  0.00    +0.156 HD
BRANCH  17  20
ATOM     20  C   UNL     1       1.801  -2.490   7.056  0.00  0.00    +0.189 A 
ATOM     21  C   UNL     1       2.013  -2.179   8.369  0.00  0.00    +0.054 A 
ATOM     22  C   UNL     1       3.113  -1.308   8.405  0.00  0.00    +0.042 A 
ATOM     23  C   UNL     1       3.519  -1.127   7.129  0.00  0.00    +0.196 A 
ATOM     24  O   UNL     1       2.729  -1.846   6.320  0.00  0.00    -0.458 OA
ENDBRANCH  17  20
ENDBRANCH  13  16
ENDBRANCH   1   9
BRANCH   1  25
ATOM     25  N   UNL     1       0.591  -3.016   2.395  0.00  0.00    -0.320 N 
ATOM     26  H   UNL     1       0.307  -2.517   3.177  0.00  0.00    +0.148 HD
BRANCH  25  32
ATOM     27  C   UNL     1       2.136   1.110   0.521  0.00  0.00    +0.063 C 
ATOM     28  C   UNL     1       1.949  -0.381   0.404  0.00  0.00    +0.014 A 
ATOM     29  C   UNL     1       2.376  -1.034  -0.735  0.00  0.00    +0.021 A 
ATOM     30  C   UNL     1       2.202  -2.407  -0.837  0.00  0.00    +0.005 A 
ATOM     31  C   UNL     1       1.602  -3.077   0.214  0.00  0.00    +0.041 A 
ATOM     32  C   UNL     1       1.196  -2.356   1.332  0.00  0.00    +0.097 A 
ATOM     33  N   UNL     1       1.385  -1.046   1.394  0.00  0.00    -0.347 N 
ATOM     34  H   UNL     1       1.098  -0.564   2.185  0.00  0.00    +0.167 HD
ENDBRANCH  25  32
ENDBRANCH   1  25
TORSDOF 6
