REMARK  Name = ZINC11788224
REMARK  6 active torsions:
REMARK  status: ('A' for Active; 'I' for Inactive)
REMARK    1  A    between atoms: C_3  and  C_6
REMARK    2  A    between atoms: C_6  and  N_7
REMARK    3  A    between atoms: N_7  and  C_8
REMARK    4  A    between atoms: C_8  and  C_9
REMARK    5  A    between atoms: C_17  and  N_18
REMARK    6  A    between atoms: C_24  and  C_26
REMARK                            x       y       z     vdW  Elec       q    Type
REMARK                         _______ _______ _______ _____ _____    ______ ____
ROOT
ATOM      1  N   UNL     1       1.843   5.203  -1.577  0.00  0.00    -0.286 N 
ATOM      2  C   UNL     1       2.699   4.260  -2.020  0.00  0.00    +0.253 C 
ATOM      3  O   UNL     1       3.088   3.389  -1.265  0.00  0.00    -0.270 OA
ENDROOT
BRANCH   2   4
ATOM      4  C   UNL     1       3.163   4.285  -3.416  0.00  0.00    +0.101 A 
ATOM      5  C   UNL     1       4.519   4.353  -3.713  0.00  0.00    +0.023 A 
ATOM      6  C   UNL     1       4.936   4.367  -5.052  0.00  0.00    -0.027 A 
ATOM      7  C   UNL     1       4.018   4.319  -6.044  0.00  0.00    +0.022 A 
ATOM      8  N   UNL     1       2.687   4.266  -5.753  0.00  0.00    -0.325 N 
ATOM      9  H   UNL     1       2.046   4.243  -6.482  0.00  0.00    +0.169 HD
ATOM     10  C   UNL     1       2.236   4.246  -4.489  0.00  0.00    +0.261 A 
ATOM     11  O   UNL     1       1.039   4.193  -4.265  0.00  0.00    -0.267 OA
ATOM     12  C   UNL     1       4.399   4.311  -7.503  0.00  0.00    +0.053 C 
ATOM     13  C   UNL     1       5.831   4.805  -7.691  0.00  0.00    +0.006 C 
ATOM     14  C   UNL     1       6.740   4.017  -6.741  0.00  0.00    +0.005 C 
ATOM     15  C   UNL     1       6.418   4.443  -5.310  0.00  0.00    +0.037 C 
ENDBRANCH   2   4
BRANCH   1  16
ATOM     16  C   UNL     1       1.466   6.318  -2.450  0.00  0.00    +0.182 C 
BRANCH  16  19
ATOM     17  C   UNL     1       4.265   8.695  -2.768  0.00  0.00    +0.041 A 
ATOM     18  C   UNL     1       3.536   7.571  -3.222  0.00  0.00    +0.046 A 
ATOM     19  C   UNL     1       2.514   7.398  -2.365  0.00  0.00    +0.122 A 
ATOM     20  O   UNL     1       2.581   8.355  -1.425  0.00  0.00    -0.466 OA
ATOM     21  C   UNL     1       3.644   9.140  -1.661  0.00  0.00    +0.195 A 
ENDBRANCH  16  19
ENDBRANCH   1  16
BRANCH   1  22
ATOM     22  C   UNL     1       1.290   5.113  -0.224  0.00  0.00    +0.147 C 
BRANCH  22  23
ATOM     23  C   UNL     1       0.007   4.323  -0.257  0.00  0.00    +0.009 A 
ATOM     24  C   UNL     1      -1.190   4.968  -0.338  0.00  0.00    +0.018 A 
ATOM     25  C   UNL     1      -2.366   4.193  -0.367  0.00  0.00    -0.001 A 
ATOM     26  C   UNL     1      -3.632   4.793  -0.449  0.00  0.00    +0.011 A 
ATOM     27  C   UNL     1      -4.748   4.013  -0.475  0.00  0.00    +0.021 A 
ATOM     28  C   UNL     1      -4.649   2.623  -0.421  0.00  0.00    +0.043 A 
ATOM     29  C   UNL     1      -3.436   2.008  -0.341  0.00  0.00    +0.046 A 
ATOM     30  C   UNL     1      -2.263   2.781  -0.312  0.00  0.00    +0.049 A 
ATOM     31  C   UNL     1       0.044   2.922  -0.206  0.00  0.00    +0.104 A 
ATOM     32 CL   UNL     1      -6.095   1.662  -0.457  0.00  0.00    -0.083 Cl
ATOM     33  N   UNL     1      -1.054   2.126  -0.231  0.00  0.00    -0.343 N 
ATOM     34  H   UNL     1      -0.989   1.102  -0.191  0.00  0.00    +0.167 HD
BRANCH  31  35
ATOM     35  N   UNL     1       1.270   2.279  -0.125  0.00  0.00    -0.316 N 
ATOM     36  C   UNL     1       1.626   1.988   1.287  0.00  0.00    +0.106 C 
ATOM     37  C   UNL     1       2.680   0.860   1.162  0.00  0.00    +0.020 C 
ATOM     38  C   UNL     1       2.145   0.017  -0.018  0.00  0.00    +0.020 C 
ATOM     39  C   UNL     1       1.227   0.968  -0.808  0.00  0.00    +0.106 C 
ENDBRANCH  31  35
ENDBRANCH  22  23
ENDBRANCH   1  22
TORSDOF 6
