REMARK  Name = ZINC39674514
REMARK  8 active torsions:
REMARK  status: ('A' for Active; 'I' for Inactive)
REMARK    1  A    between atoms: C_1  and  C_2
REMARK    2  A    between atoms: C_4  and  C_9
REMARK    3  A    between atoms: C_5  and  C_8
REMARK    4  A    between atoms: C_9  and  C_11
REMARK    5  A    between atoms: C_9  and  N_12
REMARK    6  A    between atoms: C_13  and  C_15
REMARK    7  A    between atoms: C_26  and  C_28
REMARK    8  A    between atoms: C_31  and  C_33
REMARK                            x       y       z     vdW  Elec       q    Type
REMARK                         _______ _______ _______ _____ _____    ______ ____
ROOT
ATOM      1  C   UNL     1      -3.950   3.012  -1.774  0.00  0.00    +0.100 C 
ATOM      2  C   UNL     1      -3.664   3.864  -0.518  0.00  0.00    +0.121 C 
ATOM      3  N   UNL     1      -4.744   4.879  -0.499  0.00  0.00    -0.294 N 
ATOM      4  C   UNL     1      -5.954   4.137  -0.928  0.00  0.00    +0.115 C 
ATOM      5  C   UNL     1      -5.454   3.193  -2.040  0.00  0.00    -0.004 C 
ATOM      6  C   UNL     1      -6.172   1.850  -1.952  0.00  0.00    -0.010 C 
ATOM      7  C   UNL     1      -7.655   2.046  -2.277  0.00  0.00    -0.082 C 
ATOM      8  N   UNL     1      -7.792   2.610  -3.625  0.00  0.00    +0.379 N 
ATOM      9  C   UNL     1      -7.180   3.943  -3.676  0.00  0.00    -0.082 C 
ATOM     10  C   UNL     1      -5.676   3.826  -3.410  0.00  0.00    -0.010 C 
ATOM     11  C   UNL     1      -4.647   6.182  -0.168  0.00  0.00    +0.282 C 
ATOM     12  O   UNL     1      -5.635   6.893  -0.203  0.00  0.00    -0.267 OA
ATOM     13  H   UNL     1      -7.333   2.005  -4.289  0.00  0.00    -0.086 HD
ATOM     14  H   UNL     1      -8.771   2.681  -3.861  0.00  0.00    -0.086 HD
ENDROOT
BRANCH  11  15
ATOM     15  C   UNL     1      -3.355   6.742   0.233  0.00  0.00    +0.190 A 
ATOM     16  C   UNL     1      -3.118   8.049   0.600  0.00  0.00    +0.055 A 
ATOM     17  C   UNL     1      -1.756   8.143   0.902  0.00  0.00    +0.050 A 
ATOM     18  C   UNL     1      -1.216   6.903   0.711  0.00  0.00    +0.136 A 
ATOM     19  O   UNL     1      -2.189   6.066   0.314  0.00  0.00    -0.450 OA
BRANCH  18  20
ATOM     20  C   UNL     1       0.202   6.542   0.913  0.00  0.00    +0.017 A 
ATOM     21  C   UNL     1       1.117   7.506   1.341  0.00  0.00    +0.014 A 
ATOM     22  C   UNL     1       2.439   7.162   1.528  0.00  0.00    +0.039 A 
ATOM     23  C   UNL     1       2.860   5.863   1.292  0.00  0.00    +0.123 A 
ATOM     24  C   UNL     1       1.956   4.902   0.867  0.00  0.00    +0.039 A 
ATOM     25  C   UNL     1       0.631   5.233   0.682  0.00  0.00    +0.014 A 
ATOM     26  F   UNL     1       4.157   5.532   1.477  0.00  0.00    -0.205 F 
ENDBRANCH  18  20
ENDBRANCH  11  15
BRANCH   1  28
ATOM     27  N   UNL     1      -3.241   0.762  -2.518  0.00  0.00    -0.309 N 
ATOM     28  C   UNL     1      -3.635   1.562  -1.508  0.00  0.00    +0.219 C 
ATOM     29  O   UNL     1      -3.736   1.116  -0.385  0.00  0.00    -0.275 OA
ATOM     30  H   UNL     1      -3.161   1.119  -3.416  0.00  0.00    +0.149 HD
BRANCH  27  31
ATOM     31  C   UNL     1      -2.935  -0.647  -2.259  0.00  0.00    +0.100 C 
ATOM     32  C   UNL     1      -4.228  -1.464  -2.291  0.00  0.00    +0.033 C 
BRANCH  31  35
ATOM     33  C   UNL     1      -2.363   0.236  -5.368  0.00  0.00    +0.039 C 
ATOM     34  C   UNL     1      -2.196  -1.183  -4.821  0.00  0.00    +0.154 C 
ATOM     35  C   UNL     1      -1.991  -1.159  -3.317  0.00  0.00    -0.001 C 
ATOM     36  C   UNL     1      -0.781  -1.695  -3.149  0.00  0.00    +0.063 C 
ATOM     37  N   UNL     1      -0.237  -2.035  -4.338  0.00  0.00    -0.159 NA
ATOM     38  N   UNL     1      -0.950  -1.790  -5.319  0.00  0.00    -0.180 NA
ATOM     39  C   UNL     1      -0.111  -1.894  -1.813  0.00  0.00    +0.067 C 
ENDBRANCH  31  35
ENDBRANCH  27  31
ENDBRANCH   1  28
TORSDOF 5
