REMARK  Name = ZINC16636262
REMARK  7 active torsions:
REMARK  status: ('A' for Active; 'I' for Inactive)
REMARK    1  A    between atoms: C_1  and  N_41
REMARK    2  A    between atoms: C_2  and  C_3
REMARK    3  A    between atoms: C_2  and  N_41
REMARK    4  A    between atoms: N_5  and  C_6
REMARK    5  A    between atoms: C_13  and  C_14
REMARK    6  A    between atoms: C_13  and  N_41
REMARK    7  A    between atoms: N_16  and  C_17
REMARK                            x       y       z     vdW  Elec       q    Type
REMARK                         _______ _______ _______ _____ _____    ______ ____
ROOT
ATOM      1  C   UNL     1       2.446   0.723  -1.670  0.00  0.00    -0.095 C 
ATOM      2  N   UNL     1       2.761   2.094  -2.124  0.00  0.00    +0.389 N 
ATOM      3  H   UNL     1       2.913   2.082  -3.140  0.00  0.00    -0.081 HD
ENDROOT
BRANCH   2   4
ATOM      4  C   UNL     1       1.633   2.999  -1.818  0.00  0.00    +0.019 C 
BRANCH   4   5
ATOM      5  C   UNL     1       0.455   2.615  -2.676  0.00  0.00    +0.201 C 
ATOM      6  O   UNL     1       0.543   1.680  -3.443  0.00  0.00    -0.278 OA
ATOM      7  N   UNL     1      -0.694   3.315  -2.595  0.00  0.00    -0.286 N 
ATOM      8  H   UNL     1      -0.794   4.006  -1.922  0.00  0.00    +0.155 HD
BRANCH   7   9
ATOM      9  C   UNL     1      -1.742   3.043  -3.481  0.00  0.00    +0.047 A 
ATOM     10  C   UNL     1      -1.490   2.382  -4.676  0.00  0.00    +0.024 A 
ATOM     11  C   UNL     1      -2.528   2.112  -5.547  0.00  0.00    +0.002 A 
ATOM     12  C   UNL     1      -3.816   2.508  -5.234  0.00  0.00    +0.001 A 
ATOM     13  C   UNL     1      -4.070   3.171  -4.048  0.00  0.00    +0.016 A 
ATOM     14  C   UNL     1      -3.037   3.441  -3.171  0.00  0.00    +0.035 A 
ATOM     15  I   UNL     1      -3.422   4.447  -1.374  0.00  0.00    -0.042 I 
ENDBRANCH   7   9
ENDBRANCH   4   5
ENDBRANCH   2   4
BRANCH   2  16
ATOM     16  C   UNL     1       3.990   2.576  -1.460  0.00  0.00    +0.019 C 
BRANCH  16  17
ATOM     17  C   UNL     1       5.161   1.770  -1.962  0.00  0.00    +0.201 C 
ATOM     18  O   UNL     1       4.985   0.882  -2.769  0.00  0.00    -0.278 OA
ATOM     19  N   UNL     1       6.404   2.037  -1.513  0.00  0.00    -0.285 N 
ATOM     20  H   UNL     1       6.535   2.693  -0.810  0.00  0.00    +0.155 HD
BRANCH  19  21
ATOM     21  C   UNL     1       7.505   1.367  -2.061  0.00  0.00    +0.070 A 
ATOM     22  C   UNL     1       7.491  -0.017  -2.175  0.00  0.00    +0.064 A 
ATOM     23  C   UNL     1       8.578  -0.675  -2.721  0.00  0.00    +0.022 A 
ATOM     24  C   UNL     1       9.681   0.043  -3.144  0.00  0.00    +0.003 A 
ATOM     25  C   UNL     1       9.701   1.421  -3.026  0.00  0.00    +0.022 A 
ATOM     26  C   UNL     1       8.615   2.085  -2.486  0.00  0.00    +0.064 A 
ATOM     27 CL   UNL     1       8.641   3.815  -2.339  0.00  0.00    -0.082 Cl
ATOM     28 CL   UNL     1       6.109  -0.920  -1.640  0.00  0.00    -0.082 Cl
ENDBRANCH  19  21
ENDBRANCH  16  17
ENDBRANCH   2  16
TORSDOF 6
