REMARK  Name = ZINC45356179
REMARK  9 active torsions:
REMARK  status: ('A' for Active; 'I' for Inactive)
REMARK    1  A    between atoms: C_1  and  C_2
REMARK    2  A    between atoms: C_2  and  C_4
REMARK    3  A    between atoms: C_2  and  N_14
REMARK    4  A    between atoms: C_7  and  S_10
REMARK    5  A    between atoms: S_10  and  N_13
REMARK    6  A    between atoms: N_14  and  C_15
REMARK    7  A    between atoms: N_14  and  C_16
REMARK    8  A    between atoms: C_16  and  C_17
REMARK    9  A    between atoms: N_19  and  C_20
REMARK                            x       y       z     vdW  Elec       q    Type
REMARK                         _______ _______ _______ _____ _____    ______ ____
ROOT
ATOM      1  N   UNL     1       0.692  -0.478  -1.205  0.00  0.00    +0.388 N 
ATOM      2  C   UNL     1      -0.028   0.005  -2.390  0.00  0.00    -0.095 C 
ATOM      3  H   UNL     1       1.638  -0.127  -1.219  0.00  0.00    -0.081 HD
ENDROOT
BRANCH   1   5
ATOM      4  C   UNL     1      -0.013   1.526   0.014  0.00  0.00    -0.008 C 
ATOM      5  C   UNL     1       0.012  -0.004   0.008  0.00  0.00    -0.041 C 
BRANCH   5   6
ATOM      6  C   UNL     1       0.750  -0.500   1.225  0.00  0.00    -0.061 A 
ATOM      7  C   UNL     1       2.132  -0.507   1.239  0.00  0.00    +0.004 A 
ATOM      8  C   UNL     1       2.810  -0.962   2.355  0.00  0.00    +0.029 A 
ATOM      9  C   UNL     1       2.105  -1.409   3.457  0.00  0.00    +0.105 A 
ATOM     10  C   UNL     1       0.723  -1.401   3.443  0.00  0.00    +0.029 A 
ATOM     11  C   UNL     1       0.045  -0.942   2.329  0.00  0.00    +0.004 A 
BRANCH   9  12
ATOM     12  S   UNL     1       2.968  -1.989   4.878  0.00  0.00    +0.056 S 
ATOM     13  O   UNL     1       2.081  -2.861   5.565  0.00  0.00    -0.153 OA
ATOM     14  O   UNL     1       4.252  -2.405   4.433  0.00  0.00    -0.153 OA
BRANCH  12  15
ATOM     15  N   UNL     1       3.212  -0.685   5.870  0.00  0.00    -0.204 NA
ATOM     16  H   UNL     1       2.890   0.191   5.606  0.00  0.00    +0.144 HD
ATOM     17  H   UNL     1       3.675  -0.798   6.714  0.00  0.00    +0.144 HD
ENDBRANCH  12  15
ENDBRANCH   9  12
ENDBRANCH   5   6
ENDBRANCH   1   5
BRANCH   1  18
ATOM     18  C   UNL     1       0.715  -1.947  -1.211  0.00  0.00    +0.019 C 
BRANCH  18  19
ATOM     19  C   UNL     1       1.519  -2.432  -2.390  0.00  0.00    +0.201 C 
ATOM     20  O   UNL     1       2.022  -1.632  -3.150  0.00  0.00    -0.278 OA
ATOM     21  N   UNL     1       1.677  -3.753  -2.599  0.00  0.00    -0.287 N 
ATOM     22  H   UNL     1       1.332  -4.391  -1.955  0.00  0.00    +0.155 HD
BRANCH  21  23
ATOM     23  C   UNL     1       2.340  -4.205  -3.746  0.00  0.00    +0.035 A 
ATOM     24  C   UNL     1       1.930  -5.376  -4.371  0.00  0.00    +0.023 A 
ATOM     25  C   UNL     1       2.586  -5.820  -5.502  0.00  0.00    +0.003 A 
ATOM     26  C   UNL     1       3.650  -5.101  -6.013  0.00  0.00    +0.020 A 
ATOM     27  C   UNL     1       4.062  -3.934  -5.394  0.00  0.00    +0.043 A 
ATOM     28  C   UNL     1       3.406  -3.482  -4.264  0.00  0.00    +0.043 A 
ATOM     29 CL   UNL     1       5.399  -3.034  -6.038  0.00  0.00    -0.083 Cl
ENDBRANCH  21  23
ENDBRANCH  18  19
ENDBRANCH   1  18
TORSDOF 7
