REMARK  Name = ZINC27835909
REMARK  4 active torsions:
REMARK  status: ('A' for Active; 'I' for Inactive)
REMARK    1  A    between atoms: C_5  and  N_7
REMARK    2  A    between atoms: C_8  and  C_10
REMARK    3  A    between atoms: C_15  and  O_22
REMARK    4  A    between atoms: N_20  and  O_21
REMARK                            x       y       z     vdW  Elec       q    Type
REMARK                         _______ _______ _______ _____ _____    ______ ____
ROOT
ATOM      1  C   UNL     1      -1.211   1.770   0.001  0.00  0.00    +0.100 A 
ATOM      2  C   UNL     1      -0.013   1.076  -0.011  0.00  0.00    +0.030 A 
ATOM      3  C   UNL     1       1.196   1.821  -0.032  0.00  0.00    +0.018 A 
ATOM      4  C   UNL     1       2.423   1.176  -0.238  0.00  0.00    +0.015 A 
ATOM      5  C   UNL     1       3.576   1.904  -0.287  0.00  0.00    +0.046 A 
ATOM      6  C   UNL     1       3.545   3.287  -0.121  0.00  0.00    +0.120 A 
ATOM      7  C   UNL     1       2.343   3.940   0.111  0.00  0.00    +0.092 A 
ATOM      8  C   UNL     1       1.166   3.214   0.171  0.00  0.00    +0.141 A 
ATOM      9  O   UNL     1      -0.008   3.837   0.447  0.00  0.00    -0.436 OA
ATOM     10  C   UNL     1      -1.141   3.249  -0.027  0.00  0.00    +0.239 A 
ATOM     11  N   UNL     1      -2.127   3.962  -0.493  0.00  0.00    -0.196 N 
ATOM     12  H   UNL     1      -3.034   3.466  -0.871  0.00  0.00    +0.210 HD
ENDROOT
BRANCH   1  14
ATOM     13  N   UNL     1      -3.652   1.769   0.057  0.00  0.00    -0.280 N 
ATOM     14  C   UNL     1      -2.501   1.067   0.046  0.00  0.00    +0.253 C 
ATOM     15  O   UNL     1      -2.531  -0.149   0.072  0.00  0.00    -0.270 OA
ATOM     16  H   UNL     1      -3.625   2.867   0.126  0.00  0.00    +0.155 HD
BRANCH  13  21
ATOM     17  C   UNL     1      -6.167  -0.810  -0.677  0.00  0.00    +0.002 A 
ATOM     18  C   UNL     1      -7.308  -0.217  -0.167  0.00  0.00    +0.002 A 
ATOM     19  C   UNL     1      -7.238   1.034   0.417  0.00  0.00    +0.022 A 
ATOM     20  C   UNL     1      -6.026   1.694   0.498  0.00  0.00    +0.062 A 
ATOM     21  C   UNL     1      -4.879   1.103  -0.018  0.00  0.00    +0.052 A 
ATOM     22  C   UNL     1      -4.954  -0.154  -0.604  0.00  0.00    +0.025 A 
ATOM     23 CL   UNL     1      -5.937   3.262   1.239  0.00  0.00    -0.082 Cl
ENDBRANCH  13  21
ENDBRANCH   1  14
BRANCH  11  24
ATOM     24  O   UNL     1      -2.032   5.375  -0.514  0.00  0.00    -0.431 OA
ATOM     25  H   UNL     1      -2.865   5.976  -0.907  0.00  0.00    +0.325 HD
ENDBRANCH  11  24
BRANCH   6  26
ATOM     26  O   UNL     1       4.697   4.000  -0.187  0.00  0.00    -0.507 OA
ATOM     27  H   UNL     1       4.677   5.092  -0.056  0.00  0.00    +0.292 HD
ENDBRANCH   6  26
TORSDOF 4
