REMARK  Name = ZINC12206204
REMARK  7 active torsions:
REMARK  status: ('A' for Active; 'I' for Inactive)
REMARK    1  A    between atoms: C_6  and  C_7
REMARK    2  A    between atoms: C_7  and  N_8
REMARK    3  A    between atoms: C_12  and  C_15
REMARK    4  A    between atoms: C_12  and  O_23
REMARK    5  A    between atoms: C_15  and  N_44
REMARK    6  A    between atoms: C_16  and  C_17
REMARK    7  A    between atoms: C_16  and  N_44
REMARK                            x       y       z     vdW  Elec       q    Type
REMARK                         _______ _______ _______ _____ _____    ______ ____
ROOT
ATOM      1  N   UNL     1       2.195   1.867  -2.316  0.00  0.00    -0.295 N 
ATOM      2  C   UNL     1       1.749   3.251  -2.425  0.00  0.00    +0.108 C 
ATOM      3  C   UNL     1       0.679   3.553  -1.376  0.00  0.00    +0.022 C 
ATOM      4  C   UNL     1       1.195   3.102  -0.004  0.00  0.00    +0.044 C 
ATOM      5  C   UNL     1       1.295   1.575  -0.003  0.00  0.00    +0.127 C 
ATOM      6  C   UNL     1       2.020   1.109  -1.233  0.00  0.00    +0.246 C 
ATOM      7  O   UNL     1       2.470  -0.017  -1.242  0.00  0.00    -0.273 OA
ENDROOT
BRANCH   5   8
ATOM      8  O   UNL     1      -0.019   1.013   0.015  0.00  0.00    -0.381 OA
ATOM      9  H   UNL     1      -0.033   0.046   0.017  0.00  0.00    +0.211 HD
ENDBRANCH   5   8
BRANCH   1  10
ATOM     10  C   UNL     1       2.878   1.273  -3.467  0.00  0.00    +0.143 C 
BRANCH  10  16
ATOM     11  C   UNL     1       4.924   2.648  -3.902  0.00  0.00    +0.008 A 
ATOM     12  C   UNL     1       6.283   2.871  -3.790  0.00  0.00    +0.038 A 
ATOM     13  C   UNL     1       7.083   1.951  -3.135  0.00  0.00    +0.123 A 
ATOM     14  C   UNL     1       6.520   0.811  -2.587  0.00  0.00    +0.038 A 
ATOM     15  C   UNL     1       5.160   0.593  -2.694  0.00  0.00    +0.008 A 
ATOM     16  C   UNL     1       4.361   1.512  -3.350  0.00  0.00    -0.030 A 
ATOM     17  F   UNL     1       8.413   2.165  -3.030  0.00  0.00    -0.205 F 
ENDBRANCH  10  16
ENDBRANCH   1  10
BRANCH   5  18
ATOM     18  C   UNL     1       2.061   1.116   1.240  0.00  0.00    -0.037 C 
BRANCH  18  19
ATOM     19  N   UNL     1       1.389   1.644   2.443  0.00  0.00    +0.384 N 
ATOM     20  H   UNL     1       0.460   1.217   2.527  0.00  0.00    -0.085 HD
ATOM     21  H   UNL     1       1.292   2.663   2.357  0.00  0.00    -0.085 HD
BRANCH  19  22
ATOM     22  C   UNL     1       2.179   1.331   3.649  0.00  0.00    -0.039 C 
BRANCH  22  23
ATOM     23  C   UNL     1       1.471   1.882   4.860  0.00  0.00    -0.026 A 
ATOM     24  C   UNL     1       0.547   1.286   5.652  0.00  0.00    +0.011 A 
ATOM     25  C   UNL     1       0.026   1.990   6.722  0.00  0.00    +0.028 A 
ATOM     26  C   UNL     1       0.456   3.257   6.946  0.00  0.00    +0.078 A 
ATOM     27  S   UNL     1       1.637   3.486   5.627  0.00  0.00    -0.084 S 
ATOM     28 CL   UNL     1      -0.015   4.367   8.196  0.00  0.00    -0.076 Cl
ENDBRANCH  22  23
ENDBRANCH  19  22
ENDBRANCH  18  19
ENDBRANCH   5  18
TORSDOF 7
