REMARK  Name = ZINC22362543
REMARK  13 active torsions:
REMARK  status: ('A' for Active; 'I' for Inactive)
REMARK    1  A    between atoms: C_1  and  C_2
REMARK    2  A    between atoms: C_5  and  S_8
REMARK    3  A    between atoms: S_8  and  N_11
REMARK    4  A    between atoms: N_11  and  C_12
REMARK    5  A    between atoms: N_11  and  C_29
REMARK    6  A    between atoms: C_12  and  C_13
REMARK    7  A    between atoms: N_15  and  C_16
REMARK    8  A    between atoms: C_16  and  C_18
REMARK    9  A    between atoms: C_16  and  C_19
REMARK   10  A    between atoms: C_22  and  S_25
REMARK   11  A    between atoms: S_25  and  C_28
REMARK   12  A    between atoms: C_34  and  O_35
REMARK   13  A    between atoms: O_35  and  C_36
REMARK                            x       y       z     vdW  Elec       q    Type
REMARK                         _______ _______ _______ _____ _____    ______ ____
ROOT
ATOM      1  N   UNL     1      -1.301   4.068   9.717  0.00  0.00    -0.191 N 
ENDROOT
BRANCH   1   2
ATOM      2  C   UNL     1      -2.228   4.946  10.290  0.00  0.00    +0.093 A 
ATOM      3  C   UNL     1      -3.588   4.719  10.136  0.00  0.00    +0.028 A 
ATOM      4  C   UNL     1      -4.502   5.585  10.706  0.00  0.00    +0.002 A 
ATOM      5  C   UNL     1      -4.064   6.683  11.423  0.00  0.00    +0.004 A 
ATOM      6  C   UNL     1      -2.710   6.919  11.576  0.00  0.00    +0.047 A 
ATOM      7  C   UNL     1      -1.788   6.053  11.012  0.00  0.00    +0.143 A 
BRANCH   7   8
ATOM      8  O   UNL     1      -0.456   6.284  11.161  0.00  0.00    -0.493 OA
ATOM      9  C   UNL     1      -0.078   7.439  11.914  0.00  0.00    +0.277 C 
ENDBRANCH   7   8
ENDBRANCH   1   2
BRANCH   1  10
ATOM     10  S   UNL     1      -0.658   2.837  10.620  0.00  0.00    +0.075 S 
ATOM     11  O   UNL     1      -1.585   2.573  11.664  0.00  0.00    -0.150 OA
ATOM     12  O   UNL     1      -0.237   1.837   9.703  0.00  0.00    -0.150 OA
BRANCH  10  17
ATOM     13  C   UNL     1       4.335   4.973  13.249  0.00  0.00    +0.044 C 
ATOM     14  C   UNL     1       3.088   4.440  12.593  0.00  0.00    -0.050 A 
ATOM     15  C   UNL     1       1.868   4.549  13.234  0.00  0.00    +0.005 A 
ATOM     16  C   UNL     1       0.725   4.060  12.632  0.00  0.00    +0.029 A 
ATOM     17  C   UNL     1       0.800   3.462  11.388  0.00  0.00    +0.109 A 
ATOM     18  C   UNL     1       2.021   3.348  10.749  0.00  0.00    +0.029 A 
ATOM     19  C   UNL     1       3.164   3.841  11.349  0.00  0.00    +0.005 A 
ENDBRANCH  10  17
ENDBRANCH   1  10
BRANCH   1  20
ATOM     20  C   UNL     1      -0.898   4.237   8.319  0.00  0.00    +0.227 C 
BRANCH  20  21
ATOM     21  C   UNL     1      -1.892   3.543   7.423  0.00  0.00    +0.233 C 
ATOM     22  O   UNL     1      -2.842   2.964   7.905  0.00  0.00    -0.274 OA
ATOM     23  N   UNL     1      -1.724   3.566   6.085  0.00  0.00    -0.307 N 
ATOM     24  H   UNL     1      -0.862   4.091   5.648  0.00  0.00    +0.149 HD
BRANCH  23  25
ATOM     25  C   UNL     1      -2.690   2.891   5.215  0.00  0.00    +0.100 C 
ATOM     26  C   UNL     1      -3.867   3.828   4.936  0.00  0.00    +0.033 C 
BRANCH  25  27
ATOM     27  C   UNL     1      -2.022   2.523   3.915  0.00  0.00    -0.027 A 
ATOM     28  C   UNL     1      -2.295   1.306   3.318  0.00  0.00    +0.007 A 
ATOM     29  C   UNL     1      -1.683   0.968   2.126  0.00  0.00    +0.027 A 
ATOM     30  C   UNL     1      -0.798   1.847   1.530  0.00  0.00    +0.088 A 
ATOM     31  C   UNL     1      -0.521   3.062   2.129  0.00  0.00    +0.027 A 
ATOM     32  C   UNL     1      -1.137   3.402   3.319  0.00  0.00    +0.007 A 
BRANCH  30  33
ATOM     33  S   UNL     1      -0.017   1.417   0.010  0.00  0.00    -0.006 S 
ATOM     34  O   UNL     1       0.002  -0.004   0.002  0.00  0.00    -0.170 OA
ATOM     35  O   UNL     1       1.195   2.158   0.002  0.00  0.00    -0.170 OA
ATOM     36  C   UNL     1      -1.135   2.034  -1.279  0.00  0.00    +0.200 C 
ENDBRANCH  30  33
ENDBRANCH  25  27
ENDBRANCH  23  25
ENDBRANCH  20  21
ENDBRANCH   1  20
TORSDOF 9
