REMARK  Name = ZINC46346833
REMARK  11 active torsions:
REMARK  status: ('A' for Active; 'I' for Inactive)
REMARK    1  A    between atoms: C_1  and  C_2
REMARK    2  A    between atoms: C_2  and  C_4
REMARK    3  A    between atoms: C_2  and  O_22
REMARK    4  A    between atoms: N_6  and  N_7
REMARK    5  A    between atoms: N_10  and  C_11
REMARK    6  A    between atoms: C_11  and  C_12
REMARK    7  A    between atoms: C_12  and  C_14
REMARK    8  A    between atoms: C_12  and  N_19
REMARK    9  A    between atoms: N_19  and  C_20
REMARK   10  A    between atoms: N_19  and  C_21
REMARK   11  A    between atoms: O_22  and  C_23
REMARK                            x       y       z     vdW  Elec       q    Type
REMARK                         _______ _______ _______ _____ _____    ______ ____
ROOT
ATOM      1  N   UNL     1      -3.705  -1.140  -1.339  0.00  0.00    -0.218 N 
ATOM      2  C   UNL     1      -4.538  -0.670  -2.288  0.00  0.00    +0.316 C 
ATOM      3  O   UNL     1      -5.733  -0.877  -2.204  0.00  0.00    -0.251 OA
ATOM      4  N   UNL     1      -4.046   0.030  -3.329  0.00  0.00    -0.299 N 
ATOM      5  H   UNL     1      -4.058  -1.643  -0.589  0.00  0.00    +0.174 HD
ATOM      6  H   UNL     1      -3.093   0.195  -3.396  0.00  0.00    +0.150 HD
ENDROOT
BRANCH   1   9
ATOM      7  C   UNL     1      -1.494  -1.371  -0.485  0.00  0.00    +0.270 C 
ATOM      8  O   UNL     1      -1.937  -2.001   0.452  0.00  0.00    -0.270 OA
ATOM      9  N   UNL     1      -2.328  -0.901  -1.435  0.00  0.00    -0.230 N 
ATOM     10  H   UNL     1      -1.974  -0.398  -2.184  0.00  0.00    +0.173 HD
BRANCH   7  12
ATOM     11  C   UNL     1       0.254   0.387  -0.467  0.00  0.00    +0.062 C 
ATOM     12  C   UNL     1      -0.013  -1.115  -0.589  0.00  0.00    +0.257 C 
BRANCH  12  13
ATOM     13  O   UNL     1       0.665  -1.806   0.462  0.00  0.00    -0.477 OA
BRANCH  13  14
ATOM     14  C   UNL     1       1.915  -2.268   0.192  0.00  0.00    +0.157 A 
ATOM     15  C   UNL     1       2.520  -1.967  -1.019  0.00  0.00    +0.048 A 
ATOM     16  C   UNL     1       3.790  -2.438  -1.292  0.00  0.00    +0.004 A 
ATOM     17  C   UNL     1       4.458  -3.210  -0.360  0.00  0.00    +0.003 A 
ATOM     18  C   UNL     1       3.858  -3.513   0.848  0.00  0.00    +0.042 A 
ATOM     19  C   UNL     1       2.590  -3.039   1.130  0.00  0.00    +0.165 A 
ATOM     20  F   UNL     1       2.005  -3.330   2.312  0.00  0.00    -0.202 F 
ENDBRANCH  13  14
ENDBRANCH  12  13
ENDBRANCH   7  12
ENDBRANCH   1   9
BRANCH   4  21
ATOM     21  C   UNL     1      -4.952   0.541  -4.361  0.00  0.00    +0.095 C 
BRANCH  21  22
ATOM     22  C   UNL     1      -4.135   1.183  -5.484  0.00  0.00    -0.020 C 
BRANCH  22  23
ATOM     23  C   UNL     1      -3.256   0.141  -6.125  0.00  0.00    -0.052 A 
ATOM     24  C   UNL     1      -1.919   0.046  -5.785  0.00  0.00    +0.009 A 
ATOM     25  C   UNL     1      -1.155  -0.903  -6.379  0.00  0.00    +0.045 A 
ATOM     26  S   UNL     1      -2.333  -1.702  -7.458  0.00  0.00    -0.105 S 
ATOM     27  C   UNL     1      -3.764  -0.722  -7.039  0.00  0.00    +0.047 A 
ENDBRANCH  22  23
BRANCH  22  28
ATOM     28  N   UNL     1      -5.045   1.743  -6.493  0.00  0.00    +0.382 N 
ATOM     29  C   UNL     1      -5.944   2.714  -5.856  0.00  0.00    -0.096 C 
ATOM     30  C   UNL     1      -4.263   2.413  -7.540  0.00  0.00    -0.096 C 
ATOM     31  H   UNL     1      -5.590   1.000  -6.904  0.00  0.00    -0.082 HD
ENDBRANCH  22  28
ENDBRANCH  21  22
ENDBRANCH   4  21
TORSDOF 8
