REMARK  Name = ZINC22797992
REMARK  8 active torsions:
REMARK  status: ('A' for Active; 'I' for Inactive)
REMARK    1  A    between atoms: C_1  and  C_2
REMARK    2  A    between atoms: C_5  and  C_34
REMARK    3  A    between atoms: C_10  and  C_12
REMARK    4  A    between atoms: C_12  and  N_13
REMARK    5  A    between atoms: N_16  and  C_19
REMARK    6  A    between atoms: C_19  and  C_20
REMARK    7  A    between atoms: N_22  and  C_23
REMARK    8  A    between atoms: C_24  and  C_31
REMARK                            x       y       z     vdW  Elec       q    Type
REMARK                         _______ _______ _______ _____ _____    ______ ____
ROOT
ATOM      1  N   UNL     1      -0.018   1.465   0.010  0.00  0.00    +0.387 N 
ATOM      2  C   UNL     1      -0.799   1.987  -1.120  0.00  0.00    -0.063 C 
ATOM      3  C   UNL     1      -0.862   3.514  -1.031  0.00  0.00    +0.066 C 
ATOM      4  N   UNL     1       0.503   4.059  -1.041  0.00  0.00    -0.298 NA
ATOM      5  C   UNL     1       1.284   3.537   0.089  0.00  0.00    +0.066 C 
ATOM      6  C   UNL     1       1.347   2.010   0.000  0.00  0.00    -0.063 C 
ATOM      7  H   UNL     1      -0.507   1.790   0.940  0.00  0.00    -0.081 HD
ENDROOT
BRANCH   1   8
ATOM      8  C   UNL     1       0.002  -0.004   0.002  0.00  0.00    +0.019 C 
BRANCH   8  16
ATOM      9  C   UNL     1      -0.122  -3.029   2.549  0.00  0.00    +0.009 C 
ATOM     10  C   UNL     1      -0.476  -3.785   1.267  0.00  0.00    +0.004 C 
ATOM     11  C   UNL     1      -1.851  -4.439   1.423  0.00  0.00    +0.009 C 
ATOM     12  C   UNL     1      -2.899  -3.364   1.719  0.00  0.00    +0.004 C 
ATOM     13  C   UNL     1      -2.961  -2.380   0.547  0.00  0.00    +0.111 C 
ATOM     14  N   UNL     1      -1.612  -1.855   0.297  0.00  0.00    -0.303 N 
ATOM     15  C   UNL     1      -0.513  -2.806   0.083  0.00  0.00    +0.111 C 
ATOM     16  C   UNL     1      -1.388  -0.527   0.259  0.00  0.00    +0.199 C 
ATOM     17  O   UNL     1      -2.305   0.248   0.432  0.00  0.00    -0.278 OA
ATOM     18  C   UNL     1      -4.267  -4.022   1.907  0.00  0.00    +0.009 C 
ENDBRANCH   8  16
ENDBRANCH   1   8
BRANCH   4  19
ATOM     19  C   UNL     1       0.483   5.528  -1.033  0.00  0.00    +0.180 C 
BRANCH  19  20
ATOM     20  C   UNL     1      -0.110   6.029  -2.324  0.00  0.00    +0.232 C 
ATOM     21  O   UNL     1      -0.479   5.241  -3.169  0.00  0.00    -0.274 OA
ATOM     22  N   UNL     1      -0.229   7.354  -2.542  0.00  0.00    -0.278 N 
ATOM     23  H   UNL     1       0.106   8.069  -1.776  0.00  0.00    +0.155 HD
BRANCH  22  24
ATOM     24  C   UNL     1      -0.774   7.816  -3.730  0.00  0.00    +0.084 A 
ATOM     25  C   UNL     1      -0.983   9.124  -4.130  0.00  0.00    +0.068 A 
ATOM     26  C   UNL     1      -1.577   9.343  -5.449  0.00  0.00    -0.023 A 
ATOM     27  C   UNL     1      -1.869   8.224  -6.136  0.00  0.00    -0.004 A 
ATOM     28  S   UNL     1      -1.367   6.895  -5.071  0.00  0.00    -0.077 S 
ATOM     29  C   UNL     1      -2.478   8.530  -7.478  0.00  0.00    +0.043 C 
ATOM     30  C   UNL     1      -2.136  10.014  -7.731  0.00  0.00    +0.010 C 
ATOM     31  C   UNL     1      -1.981  10.551  -6.295  0.00  0.00    +0.037 C 
BRANCH  25  32
ATOM     32  C   UNL     1      -0.617  10.250  -3.265  0.00  0.00    +0.244 C 
ATOM     33  O   UNL     1       0.495  10.739  -3.339  0.00  0.00    -0.270 OA
ATOM     34  N   UNL     1      -1.513  10.745  -2.388  0.00  0.00    -0.325 N 
ATOM     35  H   UNL     1      -1.238  11.590  -1.739  0.00  0.00    +0.145 HD
ATOM     36  H   UNL     1      -2.518  10.304  -2.321  0.00  0.00    +0.145 HD
ENDBRANCH  25  32
ENDBRANCH  22  24
ENDBRANCH  19  20
ENDBRANCH   4  19
TORSDOF 6
