REMARK  Name = ZINC43224971
REMARK  10 active torsions:
REMARK  status: ('A' for Active; 'I' for Inactive)
REMARK    1  A    between atoms: C_1  and  C_2
REMARK    2  A    between atoms: C_2  and  C_3
REMARK    3  A    between atoms: C_3  and  C_4
REMARK    4  A    between atoms: C_4  and  C_5
REMARK    5  A    between atoms: C_6  and  C_22
REMARK    6  A    between atoms: C_7  and  C_19
REMARK    7  A    between atoms: C_8  and  C_18
REMARK    8  A    between atoms: N_9  and  C_10
REMARK    9  A    between atoms: C_10  and  C_11
REMARK   10  A    between atoms: C_11  and  N_12
REMARK                            x       y       z     vdW  Elec       q    Type
REMARK                         _______ _______ _______ _____ _____    ______ ____
ROOT
ATOM      1  C   UNL     1       1.444  -2.513  -2.505  0.00  0.00    +0.027 A 
ATOM      2  C   UNL     1       0.855  -2.773  -3.700  0.00  0.00    +0.015 A 
ATOM      3  C   UNL     1       1.936  -3.219  -4.598  0.00  0.00    +0.065 A 
ATOM      4  C   UNL     1       3.082  -3.186  -3.856  0.00  0.00    +0.028 A 
ATOM      5  N   UNL     1       2.780  -2.759  -2.614  0.00  0.00    -0.348 N 
ATOM      6  C   UNL     1       4.457  -3.559  -4.346  0.00  0.00    +0.064 C 
ENDROOT
BRANCH   2   7
ATOM      7  C   UNL     1      -0.583  -2.636  -4.034  0.00  0.00    -0.015 A 
ATOM      8  C   UNL     1      -1.527  -3.445  -3.404  0.00  0.00    +0.009 A 
ATOM      9  C   UNL     1      -2.864  -3.314  -3.718  0.00  0.00    +0.016 A 
ATOM     10  C   UNL     1      -3.269  -2.381  -4.658  0.00  0.00    +0.018 A 
ATOM     11  C   UNL     1      -2.335  -1.576  -5.287  0.00  0.00    +0.016 A 
ATOM     12  C   UNL     1      -0.996  -1.695  -4.976  0.00  0.00    +0.009 A 
ATOM     13 BR   UNL     1      -5.103  -2.207  -5.083  0.00  0.00    -0.050 Br
ENDBRANCH   2   7
BRANCH   3  14
ATOM     14  C   UNL     1       1.806  -3.618  -6.008  0.00  0.00    +0.244 C 
ATOM     15  O   UNL     1       1.916  -2.786  -6.889  0.00  0.00    -0.270 OA
ATOM     16  N   UNL     1       1.565  -4.906  -6.325  0.00  0.00    -0.325 N 
ATOM     17  H   UNL     1       1.477  -5.569  -5.622  0.00  0.00    +0.145 HD
ATOM     18  H   UNL     1       1.479  -5.169  -7.254  0.00  0.00    +0.145 HD
ENDBRANCH   3  14
BRANCH   1  19
ATOM     19  C   UNL     1       0.739  -2.027  -1.265  0.00  0.00    +0.054 C 
BRANCH  19  20
ATOM     20  C   UNL     1       0.718  -0.497  -1.257  0.00  0.00    +0.006 C 
BRANCH  20  22
ATOM     21  C   UNL     1      -0.019   1.526   0.010  0.00  0.00    +0.004 C 
ATOM     22  C   UNL     1       0.002  -0.004   0.002  0.00  0.00    -0.003 C 
ENDBRANCH  20  22
ENDBRANCH  19  20
ENDBRANCH   1  19
BRANCH   5  23
ATOM     23  C   UNL     1       3.751  -2.588  -1.531  0.00  0.00    +0.103 C 
BRANCH  23  24
ATOM     24  C   UNL     1       3.872  -3.893  -0.742  0.00  0.00    -0.057 C 
BRANCH  24  25
ATOM     25  N   UNL     1       4.846  -3.721   0.344  0.00  0.00    +0.381 N 
ATOM     26  C   UNL     1       6.176  -3.479  -0.228  0.00  0.00    -0.079 C 
ATOM     27  C   UNL     1       7.179  -3.219   0.898  0.00  0.00    -0.019 C 
ATOM     28  C   UNL     1       7.233  -4.441   1.819  0.00  0.00    -0.004 C 
ATOM     29  C   UNL     1       5.826  -4.728   2.351  0.00  0.00    -0.019 C 
ATOM     30  C   UNL     1       4.872  -4.933   1.172  0.00  0.00    -0.079 C 
ATOM     31  H   UNL     1       4.578  -2.932   0.913  0.00  0.00    -0.082 HD
ENDBRANCH  24  25
ENDBRANCH  23  24
ENDBRANCH   5  23
TORSDOF 8
