REMARK  Name = ZINC63162414
REMARK  7 active torsions:
REMARK  status: ('A' for Active; 'I' for Inactive)
REMARK    1  A    between atoms: C_1  and  C_2
REMARK    2  A    between atoms: C_2  and  C_3
REMARK    3  A    between atoms: C_2  and  C_4
REMARK    4  A    between atoms: C_2  and  N_21
REMARK    5  A    between atoms: C_4  and  N_5
REMARK    6  A    between atoms: N_8  and  C_9
REMARK    7  A    between atoms: C_11  and  C_17
REMARK                            x       y       z     vdW  Elec       q    Type
REMARK                         _______ _______ _______ _____ _____    ______ ____
ROOT
ATOM      1  N   UNL     1      -2.244   0.404  -0.862  0.00  0.00    -0.300 N 
ATOM      2  C   UNL     1      -3.591   0.360  -0.902  0.00  0.00    +0.304 C 
ATOM      3  O   UNL     1      -4.215  -0.029   0.066  0.00  0.00    -0.253 OA
ATOM      4  N   UNL     1      -4.245   0.746  -2.015  0.00  0.00    -0.265 N 
ATOM      5  H   UNL     1      -1.746   0.714  -1.635  0.00  0.00    +0.150 HD
ATOM      6  H   UNL     1      -3.753   1.125  -2.760  0.00  0.00    +0.157 HD
ENDROOT
BRANCH   4   7
ATOM      7  C   UNL     1      -5.638   0.601  -2.096  0.00  0.00    +0.100 A 
ATOM      8  C   UNL     1      -6.435   1.689  -2.321  0.00  0.00    +0.042 A 
ATOM      9  C   UNL     1      -7.825   1.515  -2.397  0.00  0.00    +0.073 A 
ATOM     10  C   UNL     1      -8.362   0.283  -2.249  0.00  0.00    +0.098 A 
ATOM     11  N   UNL     1      -7.571  -0.800  -2.026  0.00  0.00    -0.327 N 
ATOM     12  H   UNL     1      -7.975  -1.676  -1.922  0.00  0.00    +0.168 HD
ATOM     13  C   UNL     1      -6.232  -0.672  -1.952  0.00  0.00    +0.270 A 
ATOM     14  O   UNL     1      -5.535  -1.654  -1.756  0.00  0.00    -0.266 OA
BRANCH   9  15
ATOM     15  C   UNL     1      -8.719   2.703  -2.644  0.00  0.00    +0.419 C 
ATOM     16  F   UNL     1     -10.053   2.282  -2.679  0.00  0.00    -0.166 F 
ATOM     17  F   UNL     1      -8.551   3.635  -1.615  0.00  0.00    -0.166 F 
ATOM     18  F   UNL     1      -8.384   3.293  -3.867  0.00  0.00    -0.166 F 
ENDBRANCH   9  15
ENDBRANCH   4   7
BRANCH   1  19
ATOM     19  C   UNL     1      -1.533  -0.016   0.347  0.00  0.00    +0.093 C 
BRANCH  19  21
ATOM     20  C   UNL     1       0.213   1.749   0.065  0.00  0.00    -0.008 C 
ATOM     21  C   UNL     1      -0.035   0.243   0.174  0.00  0.00    -0.055 C 
ATOM     22  C   UNL     1       0.722  -0.312   1.382  0.00  0.00    -0.008 C 
BRANCH  21  23
ATOM     23  N   UNL     1       0.439  -0.421  -1.048  0.00  0.00    +0.384 N 
ATOM     24  C   UNL     1       0.162  -1.859  -0.960  0.00  0.00    -0.078 C 
ATOM     25  C   UNL     1       0.580  -2.544  -2.263  0.00  0.00    -0.019 C 
ATOM     26  C   UNL     1       2.078  -2.323  -2.492  0.00  0.00    -0.004 C 
ATOM     27  C   UNL     1       2.366  -0.819  -2.507  0.00  0.00    -0.019 C 
ATOM     28  C   UNL     1       1.882  -0.199  -1.195  0.00  0.00    -0.078 C 
ATOM     29  H   UNL     1      -0.043  -0.036  -1.847  0.00  0.00    -0.081 HD
ENDBRANCH  21  23
ENDBRANCH  19  21
ENDBRANCH   1  19
TORSDOF 5
