REMARK  Name = ZINC36500716
REMARK  18 active torsions:
REMARK  status: ('A' for Active; 'I' for Inactive)
REMARK    1  A    between atoms: C_1  and  C_2
REMARK    2  A    between atoms: C_5  and  C_9
REMARK    3  A    between atoms: C_6  and  C_8
REMARK    4  A    between atoms: C_9  and  C_11
REMARK    5  A    between atoms: C_9  and  N_22
REMARK    6  A    between atoms: N_13  and  C_14
REMARK    7  A    between atoms: C_14  and  C_15
REMARK    8  A    between atoms: C_14  and  C_16
REMARK    9  A    between atoms: C_14  and  C_17
REMARK   10  A    between atoms: C_17  and  C_18
REMARK   11  A    between atoms: C_18  and  C_19
REMARK   12  A    between atoms: C_18  and  C_20
REMARK   13  A    between atoms: C_18  and  C_21
REMARK   14  A    between atoms: N_22  and  C_23
REMARK   15  A    between atoms: C_23  and  C_24
REMARK   16  A    between atoms: C_29  and  C_31
REMARK   17  A    between atoms: C_35  and  O_38
REMARK   18  A    between atoms: C_36  and  O_37
REMARK                            x       y       z     vdW  Elec       q    Type
REMARK                         _______ _______ _______ _____ _____    ______ ____
ROOT
ATOM      1  C   UNL     1      -1.402  -5.723  -0.531  0.00  0.00    +0.193 C 
ENDROOT
BRANCH   1   6
ATOM      2  C   UNL     1       2.165  -1.185  -0.790  0.00  0.00    +0.044 C 
ATOM      3  C   UNL     1       1.235  -2.368  -0.723  0.00  0.00    -0.050 A 
ATOM      4  C   UNL     1      -0.121  -2.172  -0.539  0.00  0.00    +0.004 A 
ATOM      5  C   UNL     1      -0.975  -3.258  -0.477  0.00  0.00    +0.006 A 
ATOM      6  C   UNL     1      -0.472  -4.540  -0.600  0.00  0.00    -0.015 A 
ATOM      7  C   UNL     1       0.884  -4.736  -0.785  0.00  0.00    -0.045 A 
ATOM      8  C   UNL     1       1.736  -3.650  -0.851  0.00  0.00    +0.007 A 
ATOM      9  C   UNL     1       1.431  -6.133  -0.918  0.00  0.00    +0.044 C 
ENDBRANCH   1   6
BRANCH   1  10
ATOM     10  C   UNL     1      -2.725  -5.290   0.045  0.00  0.00    +0.239 C 
ATOM     11  O   UNL     1      -3.756  -5.548  -0.540  0.00  0.00    -0.273 OA
ATOM     12  N   UNL     1      -2.763  -4.615   1.212  0.00  0.00    -0.308 N 
ATOM     13  H   UNL     1      -1.938  -4.343   1.642  0.00  0.00    +0.149 HD
BRANCH  12  14
ATOM     14  C   UNL     1      -4.052  -4.294   1.830  0.00  0.00    +0.030 C 
ATOM     15  C   UNL     1      -4.810  -3.304   0.943  0.00  0.00    +0.031 C 
ATOM     16  C   UNL     1      -4.876  -5.573   1.987  0.00  0.00    +0.031 C 
BRANCH  14  17
ATOM     17  C   UNL     1      -3.815  -3.667   3.206  0.00  0.00    +0.031 C 
BRANCH  17  18
ATOM     18  C   UNL     1      -2.655  -4.384   3.899  0.00  0.00    -0.036 C 
ATOM     19  C   UNL     1      -1.337  -3.703   3.524  0.00  0.00    +0.010 C 
ATOM     20  C   UNL     1      -2.849  -4.319   5.416  0.00  0.00    +0.010 C 
ATOM     21  C   UNL     1      -2.618  -5.847   3.452  0.00  0.00    +0.010 C 
ENDBRANCH  17  18
ENDBRANCH  14  17
ENDBRANCH  12  14
ENDBRANCH   1  10
BRANCH   1  22
ATOM     22  N   UNL     1      -1.609  -6.260  -1.879  0.00  0.00    -0.275 N 
ATOM     23  C   UNL     1      -2.259  -7.429  -2.046  0.00  0.00    +0.252 C 
ATOM     24  O   UNL     1      -2.451  -7.863  -3.165  0.00  0.00    -0.270 OA
BRANCH  23  25
ATOM     25  C   UNL     1      -2.736  -8.183  -0.870  0.00  0.00    +0.082 A 
ATOM     26  C   UNL     1      -2.607  -7.640   0.412  0.00  0.00    +0.017 A 
ATOM     27  C   UNL     1      -3.054  -8.346   1.507  0.00  0.00    +0.005 A 
ATOM     28  C   UNL     1      -3.632  -9.595   1.346  0.00  0.00    +0.049 A 
ATOM     29  C   UNL     1      -3.765 -10.146   0.083  0.00  0.00    +0.159 A 
ATOM     30  C   UNL     1      -3.324  -9.443  -1.034  0.00  0.00    +0.171 A 
BRANCH  30  31
ATOM     31  O   UNL     1      -3.458  -9.977  -2.274  0.00  0.00    -0.503 OA
ATOM     32  H   UNL     1      -2.704 -10.513  -2.555  0.00  0.00    +0.292 HD
ENDBRANCH  30  31
BRANCH  29  33
ATOM     33  O   UNL     1      -4.333 -11.373  -0.067  0.00  0.00    -0.503 OA
ATOM     34  H   UNL     1      -5.292 -11.351  -0.191  0.00  0.00    +0.292 HD
ENDBRANCH  29  33
ENDBRANCH  23  25
BRANCH  22  35
ATOM     35  C   UNL     1      -1.110  -5.527  -3.044  0.00  0.00    +0.183 C 
BRANCH  35  36
ATOM     36  C   UNL     1      -2.196  -4.625  -3.573  0.00  0.00    +0.122 A 
ATOM     37  C   UNL     1      -2.425  -3.358  -3.183  0.00  0.00    +0.046 A 
ATOM     38  C   UNL     1      -3.531  -2.893  -3.932  0.00  0.00    +0.041 A 
ATOM     39  C   UNL     1      -3.911  -3.904  -4.734  0.00  0.00    +0.195 A 
ATOM     40  O   UNL     1      -3.095  -4.948  -4.516  0.00  0.00    -0.466 OA
ENDBRANCH  35  36
ENDBRANCH  22  35
ENDBRANCH   1  22
TORSDOF 11
