REMARK  Name = ZINC32561074
REMARK  3 active torsions:
REMARK  status: ('A' for Active; 'I' for Inactive)
REMARK    1  A    between atoms: C_11  and  C_14
REMARK    2  A    between atoms: C_14  and  N_15
REMARK    3  A    between atoms: C_17  and  C_25
REMARK                            x       y       z     vdW  Elec       q    Type
REMARK                         _______ _______ _______ _____ _____    ______ ____
ROOT
ATOM      1  N   UNL     1      -3.097   5.799  -1.673  0.00  0.00    -0.328 N 
ATOM      2  C   UNL     1      -2.584   4.839  -0.821  0.00  0.00    +0.131 A 
ATOM      3  C   UNL     1      -2.687   5.011   0.570  0.00  0.00    +0.076 A 
ATOM      4  C   UNL     1      -2.158   4.024   1.408  0.00  0.00    +0.022 A 
ATOM      5  C   UNL     1      -1.556   2.919   0.831  0.00  0.00    -0.025 A 
ATOM      6  C   UNL     1      -1.490   2.816  -0.547  0.00  0.00    +0.047 A 
ATOM      7  N   UNL     1      -1.998   3.763  -1.319  0.00  0.00    -0.236 NA
ATOM      8  C   UNL     1      -0.790   1.526  -0.926  0.00  0.00    +0.056 C 
ATOM      9  C   UNL     1      -0.052   1.075   0.352  0.00  0.00    +0.011 C 
ATOM     10  C   UNL     1      -0.901   1.711   1.473  0.00  0.00    +0.037 C 
ATOM     11  H   UNL     1      -3.663   6.650  -1.266  0.00  0.00    +0.147 HD
ENDROOT
BRANCH   3  12
ATOM     12  C   UNL     1      -3.339   6.208   1.134  0.00  0.00    +0.245 C 
ATOM     13  O   UNL     1      -3.885   7.006   0.398  0.00  0.00    -0.270 OA
ATOM     14  N   UNL     1      -3.328   6.416   2.465  0.00  0.00    -0.325 N 
ATOM     15  H   UNL     1      -3.814   7.309   2.886  0.00  0.00    +0.145 HD
ATOM     16  H   UNL     1      -2.833   5.694   3.131  0.00  0.00    +0.145 HD
ENDBRANCH   3  12
BRANCH   1  17
ATOM     17  C   UNL     1      -2.887   5.684  -3.118  0.00  0.00    +0.108 C 
BRANCH  17  28
ATOM     18  C   UNL     1      -3.636   9.043  -9.487  0.00  0.00    +0.005 A 
ATOM     19  C   UNL     1      -2.744   8.085  -9.953  0.00  0.00    +0.018 A 
ATOM     20  C   UNL     1      -2.272   7.122  -9.085  0.00  0.00    +0.084 A 
ATOM     21  N   UNL     1      -2.652   7.104  -7.821  0.00  0.00    -0.350 N 
ATOM     22  C   UNL     1      -3.505   7.996  -7.340  0.00  0.00    +0.099 A 
ATOM     23  C   UNL     1      -4.021   8.996  -8.159  0.00  0.00    +0.042 A 
ATOM     24  N   UNL     1      -3.883   7.937  -6.004  0.00  0.00    -0.316 N 
ATOM     25  C   UNL     1      -5.344   7.859  -5.874  0.00  0.00    +0.106 C 
ATOM     26  C   UNL     1      -5.731   7.941  -4.396  0.00  0.00    +0.019 C 
ATOM     27  C   UNL     1      -5.069   6.789  -3.634  0.00  0.00    +0.008 C 
ATOM     28  C   UNL     1      -3.552   6.866  -3.826  0.00  0.00    +0.023 C 
ATOM     29  C   UNL     1      -3.228   6.814  -5.321  0.00  0.00    +0.111 C 
ATOM     30  H   UNL     1      -2.260   6.336  -7.139  0.00  0.00    +0.166 HD
ENDBRANCH  17  28
ENDBRANCH   1  17
TORSDOF 3
