REMARK  Name = ZINC19995842
REMARK  5 active torsions:
REMARK  status: ('A' for Active; 'I' for Inactive)
REMARK    1  A    between atoms: C_6  and  N_7
REMARK    2  A    between atoms: C_11  and  N_12
REMARK    3  A    between atoms: N_12  and  C_13
REMARK    4  A    between atoms: C_13  and  C_14
REMARK    5  A    between atoms: C_14  and  N_15
REMARK                            x       y       z     vdW  Elec       q    Type
REMARK                         _______ _______ _______ _____ _____    ______ ____
ROOT
ATOM      1  N   UNL     1      -1.204  -0.719  -0.059  0.00  0.00    -0.190 N 
ATOM      2  C   UNL     1      -1.171  -2.064  -0.156  0.00  0.00    +0.265 C 
ATOM      3  O   UNL     1      -0.115  -2.654  -0.289  0.00  0.00    -0.269 OA
ATOM      4  C   UNL     1      -2.447  -2.798  -0.094  0.00  0.00    +0.113 C 
ATOM      5  C   UNL     1      -2.490  -4.177  -0.186  0.00  0.00    +0.085 C 
ATOM      6  C   UNL     1      -3.674  -1.999   0.070  0.00  0.00    +0.258 C 
ATOM      7  N   UNL     1      -3.555  -0.658   0.152  0.00  0.00    -0.235 N 
ATOM      8  C   UNL     1      -2.359  -0.056   0.095  0.00  0.00    +0.320 C 
ATOM      9  O   UNL     1      -2.320   1.156   0.180  0.00  0.00    -0.251 OA
ATOM     10  O   UNL     1      -4.765  -2.534   0.128  0.00  0.00    -0.270 OA
ATOM     11  H   UNL     1      -4.353  -0.117   0.261  0.00  0.00    +0.159 HD
ENDROOT
BRANCH   1  17
ATOM     12  C   UNL     1       0.478   0.641   1.020  0.00  0.00    +0.027 A 
ATOM     13  C   UNL     1       1.662   1.350   0.964  0.00  0.00    +0.040 A 
ATOM     14  C   UNL     1       2.369   1.425  -0.224  0.00  0.00    +0.124 A 
ATOM     15  C   UNL     1       1.891   0.789  -1.358  0.00  0.00    +0.040 A 
ATOM     16  C   UNL     1       0.707   0.079  -1.305  0.00  0.00    +0.027 A 
ATOM     17  C   UNL     1      -0.003   0.002  -0.115  0.00  0.00    +0.046 A 
ATOM     18  F   UNL     1       3.527   2.119  -0.278  0.00  0.00    -0.205 F 
ENDBRANCH   1  17
BRANCH   5  19
ATOM     19  N   UNL     1      -1.345  -4.889  -0.198  0.00  0.00    -0.351 N 
ATOM     20  H   UNL     1      -0.495  -4.442  -0.062  0.00  0.00    +0.145 HD
BRANCH  19  21
ATOM     21  C   UNL     1      -1.385  -6.337  -0.417  0.00  0.00    +0.082 C 
BRANCH  21  22
ATOM     22  C   UNL     1       0.039  -6.896  -0.383  0.00  0.00    -0.060 C 
BRANCH  22  23
ATOM     23  N   UNL     1      -0.001  -8.348  -0.602  0.00  0.00    +0.381 N 
ATOM     24  C   UNL     1      -0.706  -8.991   0.513  0.00  0.00    -0.079 C 
ATOM     25  C   UNL     1      -0.822 -10.494   0.250  0.00  0.00    -0.019 C 
ATOM     26  C   UNL     1       0.582 -11.093   0.119  0.00  0.00    -0.004 C 
ATOM     27  C   UNL     1       1.335 -10.365  -0.998  0.00  0.00    -0.019 C 
ATOM     28  C   UNL     1       1.370  -8.866  -0.689  0.00  0.00    -0.079 C 
ATOM     29  H   UNL     1      -0.488  -8.544  -1.464  0.00  0.00    -0.082 HD
ENDBRANCH  22  23
ENDBRANCH  21  22
ENDBRANCH  19  21
ENDBRANCH   5  19
TORSDOF 5
