REMARK  Name = ZINC38018515
REMARK  3 active torsions:
REMARK  status: ('A' for Active; 'I' for Inactive)
REMARK    1  A    between atoms: C_11  and  N_13
REMARK    2  A    between atoms: N_13  and  C_14
REMARK    3  A    between atoms: C_14  and  C_15
REMARK                            x       y       z     vdW  Elec       q    Type
REMARK                         _______ _______ _______ _____ _____    ______ ____
ROOT
ATOM      1  C   UNL     1      -0.017   1.381   0.010  0.00  0.00    +0.038 A 
ATOM      2  C   UNL     1       1.175   2.085   0.002  0.00  0.00    +0.007 A 
ATOM      3  C   UNL     1       2.373   1.408  -0.013  0.00  0.00    -0.031 A 
ATOM      4  C   UNL     1       2.406   0.018  -0.021  0.00  0.00    +0.038 A 
ATOM      5  C   UNL     1       1.204  -0.685  -0.013  0.00  0.00    +0.061 A 
ATOM      6  C   UNL     1       0.002  -0.004   0.002  0.00  0.00    +0.125 A 
ATOM      7  F   UNL     1      -1.161  -0.692   0.010  0.00  0.00    -0.205 F 
ATOM      8  N   UNL     1       3.727  -0.432  -0.035  0.00  0.00    -0.286 N 
ATOM      9  C   UNL     1       4.610   0.580  -0.038  0.00  0.00    +0.208 C 
ATOM     10  O   UNL     1       5.819   0.482  -0.049  0.00  0.00    -0.277 OA
ATOM     11  C   UNL     1       3.813   1.867  -0.024  0.00  0.00    +0.049 C 
ATOM     12  H   UNL     1       3.978  -1.369  -0.042  0.00  0.00    +0.155 HD
ENDROOT
BRANCH  11  13
ATOM     13  N   UNL     1       4.091   2.659  -1.230  0.00  0.00    +0.392 N 
ATOM     14  H   UNL     1       4.001   2.072  -2.045  0.00  0.00    -0.084 HD
ATOM     15  H   UNL     1       3.435   3.422  -1.290  0.00  0.00    -0.084 HD
BRANCH  13  16
ATOM     16  C   UNL     1       5.458   3.193  -1.160  0.00  0.00    -0.038 C 
BRANCH  16  17
ATOM     17  C   UNL     1       5.744   4.005  -2.397  0.00  0.00    -0.026 A 
ATOM     18  C   UNL     1       5.549   5.328  -2.613  0.00  0.00    +0.010 A 
ATOM     19  C   UNL     1       5.888   5.865  -3.841  0.00  0.00    +0.023 A 
ATOM     20  C   UNL     1       6.407   5.050  -4.793  0.00  0.00    +0.055 A 
ATOM     21  S   UNL     1       6.435   3.474  -3.955  0.00  0.00    -0.088 S 
ATOM     22 BR   UNL     1       6.963   5.474  -6.550  0.00  0.00    -0.043 Br
ENDBRANCH  16  17
ENDBRANCH  13  16
ENDBRANCH  11  13
TORSDOF 3
