REMARK  Name = ZINC39850895
REMARK  7 active torsions:
REMARK  status: ('A' for Active; 'I' for Inactive)
REMARK    1  A    between atoms: C_5  and  C_7
REMARK    2  A    between atoms: C_10  and  C_12
REMARK    3  A    between atoms: C_13  and  C_14
REMARK    4  A    between atoms: C_14  and  C_16
REMARK    5  A    between atoms: C_19  and  N_22
REMARK    6  A    between atoms: C_23  and  C_25
REMARK    7  A    between atoms: C_26  and  C_27
REMARK                            x       y       z     vdW  Elec       q    Type
REMARK                         _______ _______ _______ _____ _____    ______ ____
ROOT
ATOM      1  C   UNL     1       4.670  -5.989  -4.096  0.00  0.00    +0.022 A 
ATOM      2  C   UNL     1       4.852  -4.703  -4.612  0.00  0.00    +0.013 A 
ATOM      3  C   UNL     1       5.725  -4.499  -5.657  0.00  0.00    +0.024 A 
ATOM      4  C   UNL     1       6.426  -5.572  -6.200  0.00  0.00    +0.034 A 
ATOM      5  C   UNL     1       6.247  -6.854  -5.688  0.00  0.00    +0.024 A 
ATOM      6  C   UNL     1       5.380  -7.063  -4.640  0.00  0.00    +0.013 A 
ENDROOT
BRANCH   4   7
ATOM      7  N   UNL     1       7.308  -5.362  -7.258  0.00  0.00    -0.282 N 
ATOM      8  C   UNL     1       8.004  -4.210  -7.337  0.00  0.00    +0.241 C 
ATOM      9  O   UNL     1       7.935  -3.394  -6.435  0.00  0.00    -0.270 OA
ATOM     10  H   UNL     1       7.422  -6.045  -7.937  0.00  0.00    +0.155 HD
BRANCH   8  11
ATOM     11  C   UNL     1       8.814  -3.950  -8.466  0.00  0.00    +0.071 C 
ATOM     12  C   UNL     1       9.515  -2.791  -8.546  0.00  0.00    +0.051 C 
BRANCH  12  13
ATOM     13  C   UNL     1      10.326  -2.530  -9.677  0.00  0.00    +0.128 A 
ATOM     14  C   UNL     1      11.091  -1.401  -9.885  0.00  0.00    +0.049 A 
ATOM     15  C   UNL     1      11.723  -1.570 -11.127  0.00  0.00    +0.042 A 
ATOM     16  C   UNL     1      11.328  -2.767 -11.616  0.00  0.00    +0.195 A 
ATOM     17  O   UNL     1      10.492  -3.343 -10.741  0.00  0.00    -0.464 OA
ENDBRANCH  12  13
ENDBRANCH   8  11
ENDBRANCH   4   7
BRANCH   1  18
ATOM     18  C   UNL     1       3.735  -6.211  -2.975  0.00  0.00    +0.186 C 
ATOM     19  O   UNL     1       3.581  -7.333  -2.523  0.00  0.00    -0.287 OA
BRANCH  18  21
ATOM     20  C   UNL     1       2.157  -5.329  -1.394  0.00  0.00    +0.050 C 
ATOM     21  C   UNL     1       3.019  -5.125  -2.427  0.00  0.00    +0.055 C 
BRANCH  20  25
ATOM     22  C   UNL     1       0.699  -2.202  -0.502  0.00  0.00    +0.137 A 
ATOM     23  C   UNL     1       0.070  -3.014   0.415  0.00  0.00    +0.050 A 
ATOM     24  C   UNL     1       0.538  -4.312   0.201  0.00  0.00    +0.050 A 
ATOM     25  C   UNL     1       1.441  -4.243  -0.846  0.00  0.00    +0.129 A 
ATOM     26  O   UNL     1       1.516  -2.959  -1.256  0.00  0.00    -0.455 OA
BRANCH  22  31
ATOM     27  C   UNL     1      -0.959   1.149  -0.845  0.00  0.00    +0.001 A 
ATOM     28  C   UNL     1       0.140   1.989  -0.897  0.00  0.00    +0.001 A 
ATOM     29  C   UNL     1       1.421   1.470  -0.822  0.00  0.00    +0.021 A 
ATOM     30  C   UNL     1       1.611   0.108  -0.693  0.00  0.00    +0.052 A 
ATOM     31  C   UNL     1       0.505  -0.746  -0.639  0.00  0.00    +0.036 A 
ATOM     32  C   UNL     1      -0.785  -0.213  -0.717  0.00  0.00    +0.013 A 
ATOM     33 CL   UNL     1       3.218  -0.541  -0.599  0.00  0.00    -0.083 Cl
ENDBRANCH  22  31
ENDBRANCH  20  25
ENDBRANCH  18  21
ENDBRANCH   1  18
TORSDOF 7
