REMARK  Name = ZINC29494215
REMARK  6 active torsions:
REMARK  status: ('A' for Active; 'I' for Inactive)
REMARK    1  A    between atoms: C_1  and  N_2
REMARK    2  A    between atoms: C_3  and  C_5
REMARK    3  A    between atoms: C_16  and  C_18
REMARK    4  A    between atoms: C_18  and  S_19
REMARK    5  A    between atoms: S_19  and  C_20
REMARK    6  A    between atoms: N_21  and  C_22
REMARK                            x       y       z     vdW  Elec       q    Type
REMARK                         _______ _______ _______ _____ _____    ______ ____
ROOT
ATOM      1  C   UNL     1      -4.724   0.484   4.189  0.00  0.00    +0.276 C 
ATOM      2  C   UNL     1      -4.282   1.740   4.954  0.00  0.00    +0.168 C 
ATOM      3  N   UNL     1      -2.812   1.713   5.042  0.00  0.00    -0.264 N 
ATOM      4  C   UNL     1      -2.096   1.321   3.897  0.00  0.00    +0.078 A 
ATOM      5  C   UNL     1      -0.731   1.546   3.821  0.00  0.00    +0.027 A 
ATOM      6  C   UNL     1      -0.031   1.155   2.694  0.00  0.00    +0.002 A 
ATOM      7  C   UNL     1      -0.692   0.541   1.646  0.00  0.00    +0.004 A 
ATOM      8  C   UNL     1      -2.054   0.315   1.717  0.00  0.00    +0.047 A 
ATOM      9  C   UNL     1      -2.765   0.705   2.843  0.00  0.00    +0.143 A 
ATOM     10  O   UNL     1      -4.105   0.487   2.901  0.00  0.00    -0.476 OA
ATOM     11  C   UNL     1      -2.175   2.054   6.180  0.00  0.00    +0.230 C 
ATOM     12  O   UNL     1      -0.972   1.923   6.264  0.00  0.00    -0.274 OA
ENDROOT
BRANCH   1  15
ATOM     13  C   UNL     1      -8.473   0.408   4.960  0.00  0.00    +0.128 C 
ATOM     14  N   UNL     1      -7.016   0.401   5.115  0.00  0.00    -0.315 N 
ATOM     15  C   UNL     1      -6.222   0.491   4.030  0.00  0.00    +0.255 C 
ATOM     16  O   UNL     1      -6.714   0.577   2.925  0.00  0.00    -0.272 OA
ATOM     17  H   UNL     1      -6.570   0.323   6.118  0.00  0.00    +0.148 HD
ENDBRANCH   1  15
BRANCH  11  18
ATOM     18  C   UNL     1      -2.957   2.597   7.348  0.00  0.00    +0.173 C 
BRANCH  18  19
ATOM     19  S   UNL     1      -1.815   3.098   8.659  0.00  0.00    -0.084 S 
BRANCH  19  20
ATOM     20  C   UNL     1      -2.964   3.676   9.862  0.00  0.00    +0.126 C 
ATOM     21  N   UNL     1      -4.244   3.638   9.613  0.00  0.00    -0.365 N 
ATOM     22  N   UNL     1      -2.512   4.168  11.065  0.00  0.00    -0.339 N 
ATOM     23  H   UNL     1      -3.230   4.529  11.816  0.00  0.00    +0.144 HD
ATOM     24  H   UNL     1      -1.433   4.201  11.275  0.00  0.00    +0.144 HD
ATOM     25  H   UNL     1      -4.612   3.149   8.698  0.00  0.00    +0.162 HD
BRANCH  21  26
ATOM     26  C   UNL     1      -5.191   4.245  10.551  0.00  0.00    +0.081 C 
ATOM     27  C   UNL     1      -6.058   3.152  11.180  0.00  0.00    +0.024 C 
ATOM     28  C   UNL     1      -7.047   3.787  12.159  0.00  0.00    +0.002 C 
ATOM     29  C   UNL     1      -7.941   4.778  11.411  0.00  0.00    +0.000 C 
ATOM     30  C   UNL     1      -7.074   5.871  10.782  0.00  0.00    +0.002 C 
ATOM     31  C   UNL     1      -6.085   5.237   9.803  0.00  0.00    +0.024 C 
ENDBRANCH  21  26
ENDBRANCH  19  20
ENDBRANCH  18  19
ENDBRANCH  11  18
TORSDOF 5
