REMARK  Name = ZINC45699687
REMARK  8 active torsions:
REMARK  status: ('A' for Active; 'I' for Inactive)
REMARK    1  A    between atoms: C_3  and  C_6
REMARK    2  A    between atoms: C_6  and  C_8
REMARK    3  A    between atoms: C_6  and  N_24
REMARK    4  A    between atoms: C_8  and  N_9
REMARK    5  A    between atoms: N_12  and  C_13
REMARK    6  A    between atoms: C_16  and  O_19
REMARK    7  A    between atoms: O_19  and  C_20
REMARK    8  A    between atoms: C_20  and  C_21
REMARK                            x       y       z     vdW  Elec       q    Type
REMARK                         _______ _______ _______ _____ _____    ______ ____
ROOT
ATOM      1  N   UNL     1       5.787   2.121   1.059  0.00  0.00    -0.300 N 
ATOM      2  C   UNL     1       6.555   2.046   2.164  0.00  0.00    +0.304 C 
ATOM      3  O   UNL     1       6.056   1.747   3.232  0.00  0.00    -0.253 OA
ATOM      4  N   UNL     1       7.876   2.304   2.086  0.00  0.00    -0.269 N 
ATOM      5  H   UNL     1       6.185   2.361   0.208  0.00  0.00    +0.150 HD
ATOM      6  H   UNL     1       8.286   2.476   1.224  0.00  0.00    +0.156 HD
ENDROOT
BRANCH   4   7
ATOM      7  C   UNL     1       8.656   2.323   3.250  0.00  0.00    +0.035 A 
ATOM      8  C   UNL     1       9.707   3.223   3.367  0.00  0.00    +0.027 A 
ATOM      9  C   UNL     1      10.475   3.242   4.514  0.00  0.00    +0.047 A 
ATOM     10  C   UNL     1      10.197   2.362   5.550  0.00  0.00    +0.121 A 
ATOM     11  C   UNL     1       9.148   1.462   5.434  0.00  0.00    +0.047 A 
ATOM     12  C   UNL     1       8.375   1.446   4.289  0.00  0.00    +0.027 A 
BRANCH  10  13
ATOM     13  O   UNL     1      10.954   2.381   6.680  0.00  0.00    -0.483 OA
BRANCH  13  14
ATOM     14  C   UNL     1      10.611   1.447   7.706  0.00  0.00    +0.324 C 
BRANCH  14  15
ATOM     15  C   UNL     1      11.552   1.615   8.871  0.00  0.00    +0.248 C 
ATOM     16  O   UNL     1      12.429   2.451   8.828  0.00  0.00    -0.272 OA
ATOM     17  N   UNL     1      11.418   0.835   9.962  0.00  0.00    -0.327 N 
ATOM     18  H   UNL     1      10.717   0.166   9.998  0.00  0.00    +0.145 HD
ATOM     19  H   UNL     1      12.024   0.942  10.713  0.00  0.00    +0.145 HD
ENDBRANCH  14  15
ENDBRANCH  13  14
ENDBRANCH  10  13
ENDBRANCH   4   7
BRANCH   1  20
ATOM     20  C   UNL     1       4.352   1.841   1.144  0.00  0.00    +0.095 C 
BRANCH  20  21
ATOM     21  C   UNL     1       3.742   1.875  -0.258  0.00  0.00    -0.013 C 
BRANCH  21  22
ATOM     22  N   UNL     1       2.332   1.467  -0.189  0.00  0.00    +0.386 N 
ATOM     23  C   UNL     1       2.231   0.129   0.432  0.00  0.00    -0.078 C 
ATOM     24  C   UNL     1       1.070  -0.569  -0.318  0.00  0.00    -0.020 C 
ATOM     25  C   UNL     1       1.276  -0.051  -1.766  0.00  0.00    -0.020 C 
ATOM     26  C   UNL     1       1.769   1.396  -1.550  0.00  0.00    -0.078 C 
ATOM     27  H   UNL     1       1.811   2.134   0.360  0.00  0.00    -0.081 HD
ENDBRANCH  21  22
BRANCH  21  30
ATOM     28  C   UNL     1       4.620   5.113  -2.062  0.00  0.00    +0.008 A 
ATOM     29  C   UNL     1       4.731   3.787  -1.689  0.00  0.00    +0.009 A 
ATOM     30  C   UNL     1       3.833   3.273  -0.813  0.00  0.00    -0.022 A 
ATOM     31  S   UNL     1       2.788   4.683  -0.486  0.00  0.00    -0.103 S 
ATOM     32  C   UNL     1       3.617   5.861  -1.540  0.00  0.00    +0.045 A 
ENDBRANCH  21  30
ENDBRANCH  20  21
ENDBRANCH   1  20
TORSDOF 8
