REMARK  Name = ZINC34022839
REMARK  14 active torsions:
REMARK  status: ('A' for Active; 'I' for Inactive)
REMARK    1  A    between atoms: C_1  and  C_2
REMARK    2  A    between atoms: C_1  and  N_14
REMARK    3  A    between atoms: C_2  and  N_3
REMARK    4  A    between atoms: N_3  and  C_4
REMARK    5  A    between atoms: N_3  and  C_9
REMARK    6  A    between atoms: C_4  and  P_5
REMARK    7  A    between atoms: C_9  and  P_10
REMARK    8  A    between atoms: P_10  and  O_13
REMARK    9  A    between atoms: N_14  and  C_15
REMARK   10  A    between atoms: N_14  and  C_18
REMARK   11  A    between atoms: C_15  and  C_16
REMARK   12  A    between atoms: C_16  and  O_17
REMARK   13  A    between atoms: C_18  and  P_19
REMARK   14  A    between atoms: P_19  and  O_22
REMARK                            x       y       z     vdW  Elec       q    Type
REMARK                         _______ _______ _______ _____ _____    ______ ____
ROOT
ATOM      1  C   UNL     1       0.454   0.796  -0.180  0.00  0.00    -0.062 C 
ENDROOT
BRANCH   1   2
ATOM      2  N   UNL     1      -0.624  -0.197  -0.076  0.00  0.00    +0.396 N 
ATOM      3  H   UNL     1      -1.117  -0.068   0.795  0.00  0.00    -0.080 HD
BRANCH   2   4
ATOM      4  C   UNL     1      -1.557  -0.026  -1.197  0.00  0.00    +0.056 C 
BRANCH   4   5
ATOM      5  P   UNL     1      -3.182   0.502  -0.560  0.00  0.00    +0.371 P 
ATOM      6  O   UNL     1      -3.671  -0.513   0.528  0.00  0.00    -0.256 OA
ATOM      7  O   UNL     1      -3.055   1.928   0.076  0.00  0.00    -0.140 OA
ATOM      8  O   UNL     1      -4.215   0.546  -1.736  0.00  0.00    -0.140 OA
ENDBRANCH   4   5
ENDBRANCH   2   4
BRANCH   2   9
ATOM      9  C   UNL     1      -0.050  -1.549  -0.118  0.00  0.00    +0.054 C 
BRANCH   9  10
ATOM     10  P   UNL     1      -1.286  -2.752   0.471  0.00  0.00    +0.342 P 
ATOM     11  O   UNL     1      -1.790  -2.330   1.869  0.00  0.00    -0.258 OA
ATOM     12  O   UNL     1      -2.476  -2.793  -0.514  0.00  0.00    -0.143 OA
BRANCH  10  13
ATOM     13  O   UNL     1      -0.614  -4.212   0.560  0.00  0.00    -0.324 OA
ATOM     14  H   UNL     1      -1.215  -4.904   0.868  0.00  0.00    +0.220 HD
ENDBRANCH  10  13
ENDBRANCH   9  10
ENDBRANCH   2   9
ENDBRANCH   1   2
BRANCH   1  15
ATOM     15  C   UNL     1      -0.128   2.200  -0.011  0.00  0.00    +0.066 C 
BRANCH  15  16
ATOM     16  N   UNL     1       0.949   3.193  -0.115  0.00  0.00    -0.291 NA
BRANCH  16  17
ATOM     17  C   UNL     1       1.519   3.212  -1.469  0.00  0.00    +0.112 C 
BRANCH  17  18
ATOM     18  C   UNL     1       2.865   3.938  -1.447  0.00  0.00    +0.171 C 
BRANCH  18  19
ATOM     19  O   UNL     1       3.784   3.213  -0.627  0.00  0.00    -0.394 OA
ATOM     20  H   UNL     1       4.661   3.617  -0.567  0.00  0.00    +0.209 HD
ENDBRANCH  18  19
ENDBRANCH  17  18
ENDBRANCH  16  17
BRANCH  16  21
ATOM     21  C   UNL     1       0.475   4.528   0.275  0.00  0.00    +0.214 C 
BRANCH  21  22
ATOM     22  P   UNL     1       0.557   4.696   2.088  0.00  0.00    +0.371 P 
ATOM     23  O   UNL     1      -0.256   3.559   2.747  0.00  0.00    -0.255 OA
ATOM     24  O   UNL     1       2.029   4.610   2.548  0.00  0.00    -0.139 OA
BRANCH  22  25
ATOM     25  O   UNL     1      -0.059   6.118   2.524  0.00  0.00    -0.322 OA
ATOM     26  H   UNL     1      -0.049   6.276   3.478  0.00  0.00    +0.220 HD
ENDBRANCH  22  25
ENDBRANCH  21  22
ENDBRANCH  16  21
ENDBRANCH  15  16
ENDBRANCH   1  15
TORSDOF 14
