REMARK  Name = ZINC65251901
REMARK  7 active torsions:
REMARK  status: ('A' for Active; 'I' for Inactive)
REMARK    1  A    between atoms: C_1  and  C_2
REMARK    2  A    between atoms: C_2  and  C_3
REMARK    3  A    between atoms: C_2  and  N_10
REMARK    4  A    between atoms: C_14  and  C_16
REMARK    5  A    between atoms: C_16  and  N_17
REMARK    6  A    between atoms: C_21  and  C_23
REMARK    7  A    between atoms: N_25  and  C_26
REMARK                            x       y       z     vdW  Elec       q    Type
REMARK                         _______ _______ _______ _____ _____    ______ ____
ROOT
ATOM      1  N   UNL     1       0.711  -0.489   1.189  0.00  0.00    -0.296 N 
ATOM      2  C   UNL     1       2.054  -0.600   1.174  0.00  0.00    +0.306 C 
ATOM      3  O   UNL     1       2.677  -0.297   0.175  0.00  0.00    -0.252 OA
ATOM      4  N   UNL     1       2.706  -1.046   2.266  0.00  0.00    -0.242 N 
ATOM      5  C   UNL     1       4.049  -1.157   2.250  0.00  0.00    +0.204 C 
ATOM      6  O   UNL     1       4.671  -0.854   1.254  0.00  0.00    -0.277 OA
ATOM      7  H   UNL     1       0.213  -0.731   1.986  0.00  0.00    +0.151 HD
ATOM      8  H   UNL     1       2.208  -1.288   3.062  0.00  0.00    +0.159 HD
ENDROOT
BRANCH   1  10
ATOM      9  C   UNL     1      -0.019   1.526   0.010  0.00  0.00    +0.028 C 
ATOM     10  C   UNL     1       0.002  -0.004   0.002  0.00  0.00    +0.075 C 
BRANCH  10  11
ATOM     11  C   UNL     1      -1.433  -0.534   0.013  0.00  0.00    +0.012 C 
ATOM     12  C   UNL     1      -1.440  -2.074  -0.116  0.00  0.00    +0.009 C 
ATOM     13  C   UNL     1      -2.219  -2.356  -1.437  0.00  0.00    -0.010 C 
ATOM     14  C   UNL     1      -3.696  -1.981  -1.107  0.00  0.00    +0.004 C 
ATOM     15  C   UNL     1      -3.689  -0.440  -0.979  0.00  0.00    +0.004 C 
ATOM     16  C   UNL     1      -2.208  -0.029  -1.243  0.00  0.00    -0.006 C 
ATOM     17  C   UNL     1      -1.790  -1.114  -2.297  0.00  0.00    +0.007 C 
ENDBRANCH  10  11
ENDBRANCH   1  10
BRANCH   5  18
ATOM     18  C   UNL     1       4.778  -1.656   3.471  0.00  0.00    +0.019 C 
BRANCH  18  19
ATOM     19  N   UNL     1       6.221  -1.684   3.202  0.00  0.00    +0.386 N 
ATOM     20  C   UNL     1       6.704  -0.315   2.984  0.00  0.00    -0.078 C 
ATOM     21  C   UNL     1       8.191  -0.346   2.623  0.00  0.00    -0.018 C 
ATOM     22  C   UNL     1       8.976  -0.989   3.771  0.00  0.00    +0.009 C 
ATOM     23  C   UNL     1       8.415  -2.388   4.038  0.00  0.00    +0.058 C 
ATOM     24  C   UNL     1       6.919  -2.282   4.347  0.00  0.00    -0.065 C 
ATOM     25  H   UNL     1       6.398  -2.236   2.376  0.00  0.00    -0.081 HD
BRANCH  23  26
ATOM     26  C   UNL     1       9.129  -3.000   5.216  0.00  0.00    +0.215 C 
ATOM     27  O   UNL     1       8.503  -3.324   6.204  0.00  0.00    -0.276 OA
ATOM     28  N   UNL     1      10.463  -3.188   5.172  0.00  0.00    -0.312 N 
ATOM     29  H   UNL     1      10.963  -2.929   4.382  0.00  0.00    +0.149 HD
BRANCH  28  30
ATOM     30  C   UNL     1      11.157  -3.782   6.317  0.00  0.00    +0.073 C 
ATOM     31  C   UNL     1      12.478  -3.144   6.751  0.00  0.00    +0.024 C 
ATOM     32  C   UNL     1      12.480  -4.501   6.045  0.00  0.00    +0.024 C 
ENDBRANCH  28  30
ENDBRANCH  23  26
ENDBRANCH  18  19
ENDBRANCH   5  18
TORSDOF 6
