REMARK  Name = ZINC08858978
REMARK  12 active torsions:
REMARK  status: ('A' for Active; 'I' for Inactive)
REMARK    1  A    between atoms: C_1  and  C_2
REMARK    2  A    between atoms: C_2  and  C_3
REMARK    3  A    between atoms: C_3  and  C_4
REMARK    4  A    between atoms: C_4  and  O_5
REMARK    5  A    between atoms: O_5  and  C_6
REMARK    6  A    between atoms: C_9  and  C_14
REMARK    7  A    between atoms: C_11  and  O_12
REMARK    8  A    between atoms: O_12  and  C_13
REMARK    9  A    between atoms: N_15  and  N_16
REMARK   10  A    between atoms: C_17  and  C_18
REMARK   11  A    between atoms: N_28  and  C_29
REMARK   12  A    between atoms: C_32  and  C_35
REMARK                            x       y       z     vdW  Elec       q    Type
REMARK                         _______ _______ _______ _____ _____    ______ ____
ROOT
ATOM      1  N   UNL     1      -2.541 -10.704   0.140  0.00  0.00    -0.261 N 
ATOM      2  C   UNL     1      -1.255 -10.956   0.261  0.00  0.00    +0.160 C 
ATOM      3  N   UNL     1      -0.334 -10.201  -0.441  0.00  0.00    -0.297 N 
ATOM      4  H   UNL     1      -0.504  -9.261  -0.609  0.00  0.00    +0.154 HD
ATOM      5  H   UNL     1      -3.191 -11.279   0.574  0.00  0.00    +0.190 HD
ENDROOT
BRANCH   2   6
ATOM      6  C   UNL     1      -0.797 -12.042   1.143  0.00  0.00    +0.172 A 
ATOM      7  N   UNL     1      -1.616 -12.934   1.788  0.00  0.00    -0.336 N 
ATOM      8  H   UNL     1      -2.585 -12.962   1.747  0.00  0.00    +0.167 HD
ATOM      9  C   UNL     1      -0.801 -13.783   2.507  0.00  0.00    +0.067 A 
ATOM     10  C   UNL     1      -1.037 -14.868   3.342  0.00  0.00    +0.028 A 
ATOM     11  C   UNL     1       0.025 -15.524   3.926  0.00  0.00    +0.002 A 
ATOM     12  C   UNL     1       1.328 -15.110   3.686  0.00  0.00    +0.002 A 
ATOM     13  C   UNL     1       1.582 -14.046   2.868  0.00  0.00    +0.030 A 
ATOM     14  C   UNL     1       0.520 -13.362   2.263  0.00  0.00    +0.090 A 
ATOM     15  N   UNL     1       0.456 -12.309   1.426  0.00  0.00    -0.225 NA
ENDBRANCH   2   6
BRANCH   3  16
ATOM     16  C   UNL     1       0.843 -10.791  -0.907  0.00  0.00    +0.032 A 
ATOM     17  C   UNL     1       0.848 -12.127  -1.289  0.00  0.00    +0.023 A 
ATOM     18  C   UNL     1       2.013 -12.707  -1.750  0.00  0.00    +0.005 A 
ATOM     19  C   UNL     1       3.174 -11.960  -1.832  0.00  0.00    -0.050 A 
ATOM     20  C   UNL     1       3.173 -10.631  -1.452  0.00  0.00    +0.005 A 
ATOM     21  C   UNL     1       2.010 -10.042  -0.995  0.00  0.00    +0.023 A 
ATOM     22  C   UNL     1       4.444 -12.598  -2.335  0.00  0.00    +0.044 C 
ENDBRANCH   3  16
BRANCH   1  24
ATOM     23  C   UNL     1      -4.208  -9.383  -0.594  0.00  0.00    +0.140 C 
ATOM     24  N   UNL     1      -2.937  -9.692  -0.555  0.00  0.00    -0.180 NA
BRANCH  23  28
ATOM     25  C   UNL     1      -5.548  -6.255  -3.131  0.00  0.00    +0.162 A 
ATOM     26  C   UNL     1      -4.190  -6.513  -3.006  0.00  0.00    +0.050 A 
ATOM     27  C   UNL     1      -3.750  -7.528  -2.184  0.00  0.00    +0.013 A 
ATOM     28  C   UNL     1      -4.674  -8.301  -1.472  0.00  0.00    -0.002 A 
ATOM     29  C   UNL     1      -6.044  -8.039  -1.597  0.00  0.00    +0.059 A 
ATOM     30  C   UNL     1      -6.475  -7.017  -2.421  0.00  0.00    +0.162 A 
BRANCH  30  31
ATOM     31  O   UNL     1      -7.804  -6.757  -2.541  0.00  0.00    -0.491 OA
ATOM     32  C   UNL     1      -8.697  -7.577  -1.785  0.00  0.00    +0.277 C 
ENDBRANCH  30  31
BRANCH  25  33
ATOM     33  O   UNL     1      -5.976  -5.254  -3.943  0.00  0.00    -0.488 OA
BRANCH  33  34
ATOM     34  C   UNL     1      -4.973  -4.513  -4.642  0.00  0.00    +0.229 C 
BRANCH  34  35
ATOM     35  C   UNL     1      -5.641  -3.436  -5.500  0.00  0.00    +0.041 C 
BRANCH  35  37
ATOM     36  C   UNL     1      -5.235  -1.565  -7.106  0.00  0.00    +0.004 C 
ATOM     37  C   UNL     1      -4.567  -2.642  -6.248  0.00  0.00    -0.000 C 
ENDBRANCH  35  37
ENDBRANCH  34  35
ENDBRANCH  33  34
ENDBRANCH  25  33
ENDBRANCH  23  28
ENDBRANCH   1  24
TORSDOF 9
