REMARK  Name = ZINC03006933
REMARK  11 active torsions:
REMARK  status: ('A' for Active; 'I' for Inactive)
REMARK    1  A    between atoms: C_1  and  C_2
REMARK    2  A    between atoms: C_2  and  C_3
REMARK    3  A    between atoms: C_3  and  C_4
REMARK    4  A    between atoms: C_4  and  N_5
REMARK    5  A    between atoms: N_5  and  C_6
REMARK    6  A    between atoms: N_5  and  S_7
REMARK    7  A    between atoms: S_7  and  C_10
REMARK    8  A    between atoms: C_13  and  C_16
REMARK    9  A    between atoms: N_18  and  C_19
REMARK   10  A    between atoms: C_20  and  C_28
REMARK   11  A    between atoms: C_27  and  N_59
REMARK                            x       y       z     vdW  Elec       q    Type
REMARK                         _______ _______ _______ _____ _____    ______ ____
ROOT
ATOM      1  C   UNL     1      -3.119   3.066   4.885  0.00  0.00    +0.249 C 
ATOM      2  O   UNL     1      -3.928   2.303   5.378  0.00  0.00    -0.270 OA
ATOM      3  N   UNL     1      -2.918   4.281   5.433  0.00  0.00    -0.275 N 
ATOM      4  H   UNL     1      -2.273   4.889   5.040  0.00  0.00    +0.156 HD
ENDROOT
BRANCH   3   5
ATOM      5  C   UNL     1      -3.634   4.661   6.556  0.00  0.00    +0.085 A 
ATOM      6  C   UNL     1      -3.568   5.859   7.257  0.00  0.00    +0.068 A 
ATOM      7  C   UNL     1      -4.433   6.006   8.412  0.00  0.00    -0.027 A 
ATOM      8  C   UNL     1      -5.221   4.941   8.683  0.00  0.00    -0.021 A 
ATOM      9  S   UNL     1      -4.834   3.761   7.424  0.00  0.00    -0.079 S 
ATOM     10  C   UNL     1      -6.201   4.824   9.809  0.00  0.00    -0.036 C 
ATOM     11  C   UNL     1      -5.797   7.196  10.099  0.00  0.00    -0.074 C 
ATOM     12  C   UNL     1      -4.496   7.248   9.293  0.00  0.00    +0.018 C 
ATOM     13  C   UNL     1      -6.947   5.947  11.826  0.00  0.00    -0.096 C 
ATOM     14  N   UNL     1      -5.893   5.894  10.790  0.00  0.00    +0.381 N 
ATOM     15  H   UNL     1      -4.994   5.686  11.239  0.00  0.00    -0.082 HD
BRANCH   6  16
ATOM     16  C   UNL     1      -2.659   6.933   6.845  0.00  0.00    +0.244 C 
ATOM     17  O   UNL     1      -3.036   7.780   6.057  0.00  0.00    -0.270 OA
ATOM     18  N   UNL     1      -1.406   6.981   7.338  0.00  0.00    -0.325 N 
ATOM     19  H   UNL     1      -1.105   6.306   7.966  0.00  0.00    +0.145 HD
ATOM     20  H   UNL     1      -0.804   7.691   7.065  0.00  0.00    +0.145 HD
ENDBRANCH   6  16
ENDBRANCH   3   5
BRANCH   1  24
ATOM     21  C   UNL     1      -0.927   1.900   1.439  0.00  0.00    +0.106 A 
ATOM     22  C   UNL     1      -0.715   3.146   2.002  0.00  0.00    +0.029 A 
ATOM     23  C   UNL     1      -1.427   3.533   3.118  0.00  0.00    +0.015 A 
ATOM     24  C   UNL     1      -2.356   2.660   3.687  0.00  0.00    +0.037 A 
ATOM     25  C   UNL     1      -2.561   1.402   3.117  0.00  0.00    +0.015 A 
ATOM     26  C   UNL     1      -1.846   1.030   1.998  0.00  0.00    +0.029 A 
BRANCH  21  27
ATOM     27  S   UNL     1      -0.017   1.417   0.010  0.00  0.00    +0.061 S 
ATOM     28  O   UNL     1       0.002  -0.004   0.002  0.00  0.00    -0.153 OA
ATOM     29  O   UNL     1       1.172   2.195   0.003  0.00  0.00    -0.153 OA
BRANCH  27  30
ATOM     30  N   UNL     1      -0.897   1.885  -1.312  0.00  0.00    -0.180 NA
ATOM     31  C   UNL     1      -0.691   3.213  -1.897  0.00  0.00    +0.131 C 
BRANCH  30  32
ATOM     32  C   UNL     1      -1.883   0.973  -1.897  0.00  0.00    +0.109 C 
BRANCH  32  33
ATOM     33  C   UNL     1      -3.267   1.280  -1.323  0.00  0.00    +0.017 C 
BRANCH  33  35
ATOM     34  C   UNL     1      -5.680   0.634  -1.359  0.00  0.00    +0.004 C 
ATOM     35  C   UNL     1      -4.296   0.327  -1.934  0.00  0.00    -0.002 C 
ENDBRANCH  33  35
ENDBRANCH  32  33
ENDBRANCH  30  32
ENDBRANCH  27  30
ENDBRANCH  21  27
ENDBRANCH   1  24
TORSDOF 8
