REMARK  Name = ZINC35703198
REMARK  16 active torsions:
REMARK  status: ('A' for Active; 'I' for Inactive)
REMARK    1  A    between atoms: C_1  and  C_2
REMARK    2  A    between atoms: C_5  and  S_8
REMARK    3  A    between atoms: S_8  and  O_11
REMARK    4  A    between atoms: O_11  and  C_12
REMARK    5  A    between atoms: C_15  and  C_20
REMARK    6  A    between atoms: C_17  and  O_18
REMARK    7  A    between atoms: O_18  and  C_19
REMARK    8  A    between atoms: C_21  and  N_29
REMARK    9  A    between atoms: N_29  and  C_30
REMARK   10  A    between atoms: C_30  and  C_31
REMARK   11  A    between atoms: C_30  and  C_32
REMARK   12  A    between atoms: C_30  and  C_33
REMARK   13  A    between atoms: C_33  and  C_34
REMARK   14  A    between atoms: C_34  and  C_35
REMARK   15  A    between atoms: C_34  and  C_36
REMARK   16  A    between atoms: C_34  and  C_37
REMARK                            x       y       z     vdW  Elec       q    Type
REMARK                         _______ _______ _______ _____ _____    ______ ____
ROOT
ATOM      1  C   UNL     1       4.958  -1.701   6.273  0.00  0.00    +0.087 A 
ATOM      2  C   UNL     1       6.267  -1.745   5.841  0.00  0.00    +0.129 A 
ATOM      3  N   UNL     1       7.052  -1.785   6.959  0.00  0.00    -0.289 N 
ATOM      4  C   UNL     1       8.409  -1.837   7.132  0.00  0.00    +0.094 A 
ATOM      5  C   UNL     1       8.943  -1.868   8.369  0.00  0.00    +0.018 A 
ATOM      6  C   UNL     1       8.111  -1.848   9.503  0.00  0.00    +0.005 A 
ATOM      7  C   UNL     1       6.761  -1.797   9.350  0.00  0.00    +0.045 A 
ATOM      8  C   UNL     1       6.213  -1.764   8.050  0.00  0.00    +0.117 A 
ATOM      9  N   UNL     1       4.963  -1.709   7.619  0.00  0.00    -0.338 N 
ATOM     10  H   UNL     1       4.175  -1.681   8.183  0.00  0.00    +0.167 HD
ENDROOT
BRANCH   1  14
ATOM     11  C   UNL     1       1.510  -1.545   3.783  0.00  0.00    +0.198 A 
ATOM     12  C   UNL     1       2.603  -0.738   3.506  0.00  0.00    +0.053 A 
ATOM     13  C   UNL     1       3.722  -0.786   4.312  0.00  0.00    +0.014 A 
ATOM     14  C   UNL     1       3.756  -1.648   5.408  0.00  0.00    +0.005 A 
ATOM     15  C   UNL     1       2.658  -2.460   5.687  0.00  0.00    +0.059 A 
ATOM     16  C   UNL     1       1.536  -2.404   4.879  0.00  0.00    +0.165 A 
BRANCH  16  17
ATOM     17  O   UNL     1       0.461  -3.191   5.152  0.00  0.00    -0.491 OA
ATOM     18  C   UNL     1       0.557  -4.047   6.292  0.00  0.00    +0.277 C 
ENDBRANCH  16  17
BRANCH  11  19
ATOM     19  O   UNL     1       0.409  -1.495   2.986  0.00  0.00    -0.339 OA
BRANCH  19  20
ATOM     20  S   UNL     1      -0.625  -0.467   3.423  0.00  0.00    +0.151 S 
ATOM     21  O   UNL     1      -0.662  -0.507   4.843  0.00  0.00    -0.131 OA
ATOM     22  O   UNL     1      -1.779  -0.687   2.624  0.00  0.00    -0.131 OA
BRANCH  20  27
ATOM     23  C   UNL     1       1.508   4.970   1.907  0.00  0.00    +0.044 C 
ATOM     24  C   UNL     1       0.976   3.612   2.285  0.00  0.00    -0.050 A 
ATOM     25  C   UNL     1       0.195   2.902   1.392  0.00  0.00    +0.005 A 
ATOM     26  C   UNL     1      -0.293   1.656   1.740  0.00  0.00    +0.031 A 
ATOM     27  C   UNL     1      -0.001   1.120   2.980  0.00  0.00    +0.128 A 
ATOM     28  C   UNL     1       0.780   1.830   3.873  0.00  0.00    +0.031 A 
ATOM     29  C   UNL     1       1.272   3.074   3.524  0.00  0.00    +0.005 A 
ENDBRANCH  20  27
ENDBRANCH  19  20
ENDBRANCH  11  19
ENDBRANCH   1  14
BRANCH   2  30
ATOM     30  N   UNL     1       6.705  -1.750   4.516  0.00  0.00    -0.323 N 
ATOM     31  H   UNL     1       6.071  -1.612   3.795  0.00  0.00    +0.148 HD
BRANCH  30  32
ATOM     32  C   UNL     1       8.123  -1.962   4.214  0.00  0.00    +0.028 C 
ATOM     33  C   UNL     1       8.931  -0.749   4.681  0.00  0.00    +0.031 C 
ATOM     34  C   UNL     1       8.617  -3.214   4.941  0.00  0.00    +0.031 C 
BRANCH  32  35
ATOM     35  C   UNL     1       8.302  -2.144   2.705  0.00  0.00    +0.031 C 
BRANCH  35  36
ATOM     36  C   UNL     1       7.413  -3.291   2.221  0.00  0.00    -0.036 C 
ATOM     37  C   UNL     1       6.071  -3.241   2.954  0.00  0.00    +0.010 C 
ATOM     38  C   UNL     1       7.177  -3.153   0.716  0.00  0.00    +0.010 C 
ATOM     39  C   UNL     1       8.102  -4.626   2.509  0.00  0.00    +0.010 C 
ENDBRANCH  35  36
ENDBRANCH  32  35
ENDBRANCH  30  32
ENDBRANCH   2  30
TORSDOF 9
