REMARK  Name = ZINC48122597
REMARK  13 active torsions:
REMARK  status: ('A' for Active; 'I' for Inactive)
REMARK    1  A    between atoms: C_1  and  C_2
REMARK    2  A    between atoms: C_4  and  O_26
REMARK    3  A    between atoms: C_7  and  N_8
REMARK    4  A    between atoms: N_11  and  C_12
REMARK    5  A    between atoms: C_12  and  C_13
REMARK    6  A    between atoms: C_17  and  N_19
REMARK    7  A    between atoms: C_20  and  C_22
REMARK    8  A    between atoms: C_22  and  N_23
REMARK    9  A    between atoms: N_23  and  C_24
REMARK   10  A    between atoms: N_23  and  C_25
REMARK   11  A    between atoms: O_26  and  C_27
REMARK   12  A    between atoms: C_27  and  C_28
REMARK   13  A    between atoms: C_27  and  C_29
REMARK                            x       y       z     vdW  Elec       q    Type
REMARK                         _______ _______ _______ _____ _____    ______ ____
ROOT
ATOM      1  N   UNL     1       0.568  -0.322  -0.011  0.00  0.00    -0.269 N 
ATOM      2  C   UNL     1       0.045  -1.083   0.972  0.00  0.00    +0.304 C 
ATOM      3  O   UNL     1      -0.085  -2.281   0.809  0.00  0.00    -0.252 OA
ATOM      4  N   UNL     1      -0.333  -0.515   2.135  0.00  0.00    -0.295 N 
ATOM      5  H   UNL     1       0.732   0.622   0.142  0.00  0.00    +0.156 HD
ATOM      6  H   UNL     1      -0.228   0.440   2.264  0.00  0.00    +0.151 HD
ENDROOT
BRANCH   1  13
ATOM      7  C   UNL     1       0.437   1.331  -2.321  0.00  0.00    +0.046 C 
ATOM      8  C   UNL     1       0.823  -0.123  -2.405  0.00  0.00    -0.026 A 
ATOM      9  C   UNL     1       1.131  -0.687  -3.628  0.00  0.00    +0.050 A 
ATOM     10  C   UNL     1       1.486  -2.026  -3.705  0.00  0.00    +0.121 A 
ATOM     11  C   UNL     1       1.532  -2.799  -2.554  0.00  0.00    +0.047 A 
ATOM     12  C   UNL     1       1.224  -2.237  -1.331  0.00  0.00    +0.027 A 
ATOM     13  C   UNL     1       0.875  -0.895  -1.252  0.00  0.00    +0.038 A 
BRANCH  10  14
ATOM     14  O   UNL     1       1.790  -2.580  -4.909  0.00  0.00    -0.489 OA
BRANCH  14  15
ATOM     15  C   UNL     1       2.266  -3.928  -4.901  0.00  0.00    +0.167 C 
ATOM     16  C   UNL     1       1.077  -4.889  -4.968  0.00  0.00    +0.051 C 
ATOM     17  C   UNL     1       3.174  -4.154  -6.111  0.00  0.00    +0.051 C 
ENDBRANCH  14  15
ENDBRANCH  10  14
ENDBRANCH   1  13
BRANCH   4  18
ATOM     18  C   UNL     1      -0.901  -1.342   3.202  0.00  0.00    +0.141 C 
BRANCH  18  19
ATOM     19  C   UNL     1      -1.237  -0.472   4.386  0.00  0.00    -0.029 A 
ATOM     20  C   UNL     1      -0.292  -0.249   5.370  0.00  0.00    +0.005 A 
ATOM     21  C   UNL     1      -0.597   0.549   6.457  0.00  0.00    +0.002 A 
ATOM     22  C   UNL     1      -1.847   1.126   6.564  0.00  0.00    +0.023 A 
ATOM     23  C   UNL     1      -2.799   0.904   5.577  0.00  0.00    +0.034 A 
ATOM     24  C   UNL     1      -2.488   0.106   4.484  0.00  0.00    +0.028 A 
BRANCH  23  25
ATOM     25  N   UNL     1      -4.066   1.486   5.682  0.00  0.00    -0.287 N 
ATOM     26  C   UNL     1      -4.203   2.709   6.232  0.00  0.00    +0.201 C 
ATOM     27  O   UNL     1      -3.220   3.343   6.553  0.00  0.00    -0.278 OA
ATOM     28  H   UNL     1      -4.847   1.010   5.359  0.00  0.00    +0.155 HD
BRANCH  26  29
ATOM     29  C   UNL     1      -5.577   3.289   6.449  0.00  0.00    +0.018 C 
BRANCH  29  30
ATOM     30  N   UNL     1      -5.456   4.621   7.057  0.00  0.00    +0.382 N 
ATOM     31  C   UNL     1      -4.794   5.532   6.113  0.00  0.00    -0.096 C 
ATOM     32  C   UNL     1      -6.794   5.136   7.378  0.00  0.00    -0.096 C 
ATOM     33  H   UNL     1      -4.909   4.556   7.902  0.00  0.00    -0.082 HD
ENDBRANCH  29  30
ENDBRANCH  26  29
ENDBRANCH  23  25
ENDBRANCH  18  19
ENDBRANCH   4  18
TORSDOF 8
