REMARK  Name = ZINC42398698
REMARK  7 active torsions:
REMARK  status: ('A' for Active; 'I' for Inactive)
REMARK    1  A    between atoms: C_1  and  N_2
REMARK    2  A    between atoms: N_2  and  C_3
REMARK    3  A    between atoms: N_2  and  C_10
REMARK    4  A    between atoms: C_3  and  C_4
REMARK    5  A    between atoms: C_10  and  C_12
REMARK    6  A    between atoms: C_10  and  C_14
REMARK    7  A    between atoms: C_12  and  N_13
REMARK                            x       y       z     vdW  Elec       q    Type
REMARK                         _______ _______ _______ _____ _____    ______ ____
ROOT
ATOM      1  C   UNL     1       0.538  -0.613  -1.156  0.00  0.00    +0.076 C 
ENDROOT
BRANCH   1   2
ATOM      2  C   UNL     1       0.138   0.068  -2.439  0.00  0.00    +0.006 A 
ATOM      3  C   UNL     1       0.896   0.355  -3.526  0.00  0.00    +0.028 A 
ATOM      4  C   UNL     1       0.309   0.993  -4.603  0.00  0.00    +0.025 A 
ATOM      5  C   UNL     1      -1.007   1.312  -4.541  0.00  0.00    +0.060 A 
ATOM      6  S   UNL     1      -1.460   0.699  -2.926  0.00  0.00    -0.099 S 
ATOM      7 BR   UNL     1       1.327   1.415  -6.140  0.00  0.00    -0.050 Br
ENDBRANCH   1   2
BRANCH   1   9
ATOM      8  C   UNL     1       0.174   1.489  -0.011  0.00  0.00    +0.105 C 
ATOM      9  N   UNL     1      -0.121   0.050  -0.023  0.00  0.00    -0.295 NA
BRANCH   9  10
ATOM     10  C   UNL     1       0.261  -0.576   1.249  0.00  0.00    +0.127 C 
BRANCH  10  11
ATOM     11  C   UNL     1      -0.648  -0.084   2.345  0.00  0.00    +0.005 A 
ATOM     12  C   UNL     1      -1.823  -0.603   2.777  0.00  0.00    +0.027 A 
ATOM     13  C   UNL     1      -2.494   0.024   3.810  0.00  0.00    +0.025 A 
ATOM     14  C   UNL     1      -1.957   1.141   4.361  0.00  0.00    +0.060 A 
ATOM     15  S   UNL     1      -0.454   1.331   3.416  0.00  0.00    -0.099 S 
ATOM     16 BR   UNL     1      -4.137  -0.664   4.446  0.00  0.00    -0.050 Br
ENDBRANCH  10  11
ENDBRANCH   9  10
ENDBRANCH   1   9
BRANCH   1  17
ATOM     17  C   UNL     1       0.114  -2.082  -1.204  0.00  0.00    -0.062 C 
BRANCH  17  18
ATOM     18  N   UNL     1      -1.352  -2.168  -1.232  0.00  0.00    +0.379 N 
ATOM     19  H   UNL     1      -1.631  -3.132  -1.334  0.00  0.00    -0.090 HD
ATOM     20  H   UNL     1      -1.727  -1.799  -0.370  0.00  0.00    -0.090 HD
ATOM     21  H   UNL     1      -1.706  -1.631  -2.009  0.00  0.00    -0.090 HD
ENDBRANCH  17  18
ENDBRANCH   1  17
TORSDOF 6
