REMARK  Name = ZINC02562258
REMARK  3 active torsions:
REMARK  status: ('A' for Active; 'I' for Inactive)
REMARK    1  A    between atoms: C_1  and  C_2
REMARK    2  A    between atoms: C_13  and  C_14
REMARK    3  A    between atoms: C_13  and  C_15
REMARK                            x       y       z     vdW  Elec       q    Type
REMARK                         _______ _______ _______ _____ _____    ______ ____
ROOT
ATOM      1  C   UNL     1      -3.142   5.978   2.785  0.00  0.00    +0.111 C 
ATOM      2  C   UNL     1      -2.359   5.386   1.641  0.00  0.00    +0.231 C 
ATOM      3  O   UNL     1      -2.404   5.903   0.544  0.00  0.00    -0.274 OA
ATOM      4  N   UNL     1      -1.610   4.283   1.836  0.00  0.00    -0.173 N 
ATOM      5  C   UNL     1      -0.801   3.580   0.875  0.00  0.00    +0.109 C 
ATOM      6  C   UNL     1      -1.016   3.665  -0.635  0.00  0.00    +0.029 C 
ATOM      7  C   UNL     1      -0.948   2.165  -1.105  0.00  0.00    -0.003 C 
ATOM      8  C   UNL     1      -2.337   1.580  -0.696  0.00  0.00    +0.005 C 
ATOM      9  C   UNL     1      -2.287   1.559   0.854  0.00  0.00    +0.011 C 
ATOM     10  C   UNL     1      -0.858   2.047   1.176  0.00  0.00    +0.018 C 
ATOM     11  C   UNL     1      -0.019   1.526   0.010  0.00  0.00    -0.023 C 
ATOM     12  C   UNL     1       0.001  -0.003  -0.055  0.00  0.00    +0.012 C 
ATOM     13  C   UNL     1       1.393   2.117   0.000  0.00  0.00    +0.012 C 
ATOM     14  C   UNL     1      -0.469   1.938   2.627  0.00  0.00    +0.198 C 
ATOM     15  S   UNL     1      -1.402   3.406   3.267  0.00  0.00    +0.048 S 
ATOM     16  O   UNL     1      -2.709   3.032   3.679  0.00  0.00    -0.155 OA
ATOM     17  O   UNL     1      -0.571   4.211   4.091  0.00  0.00    -0.155 OA
ENDROOT
TORSDOF 0
