REMARK  Name = ZINC60036751
REMARK  8 active torsions:
REMARK  status: ('A' for Active; 'I' for Inactive)
REMARK    1  A    between atoms: C_1  and  C_2
REMARK    2  A    between atoms: C_5  and  S_7
REMARK    3  A    between atoms: S_7  and  C_8
REMARK    4  A    between atoms: C_11  and  N_14
REMARK    5  A    between atoms: N_17  and  C_18
REMARK    6  A    between atoms: C_18  and  C_19
REMARK    7  A    between atoms: C_19  and  C_21
REMARK    8  A    between atoms: C_19  and  N_26
REMARK                            x       y       z     vdW  Elec       q    Type
REMARK                         _______ _______ _______ _____ _____    ______ ____
ROOT
ATOM      1  N   UNL     1       0.578  -8.668   0.393  0.00  0.00    -0.269 N 
ATOM      2  C   UNL     1       0.344  -9.715   1.208  0.00  0.00    +0.304 C 
ATOM      3  O   UNL     1       0.166  -9.533   2.397  0.00  0.00    -0.253 OA
ATOM      4  N   UNL     1       0.309 -10.965   0.706  0.00  0.00    -0.300 N 
ATOM      5  H   UNL     1       0.788  -8.818  -0.542  0.00  0.00    +0.156 HD
ATOM      6  H   UNL     1       0.451 -11.111  -0.243  0.00  0.00    +0.150 HD
ENDROOT
BRANCH   1  10
ATOM      7  C   UNL     1       0.399  -4.779   1.892  0.00  0.00    +0.015 A 
ATOM      8  C   UNL     1      -0.026  -5.045   0.596  0.00  0.00    +0.017 A 
ATOM      9  C   UNL     1       0.034  -6.332   0.100  0.00  0.00    +0.024 A 
ATOM     10  C   UNL     1       0.518  -7.361   0.897  0.00  0.00    +0.035 A 
ATOM     11  C   UNL     1       0.942  -7.096   2.192  0.00  0.00    +0.024 A 
ATOM     12  C   UNL     1       0.888  -5.808   2.687  0.00  0.00    +0.017 A 
BRANCH   7  13
ATOM     13  S   UNL     1       0.324  -3.136   2.524  0.00  0.00    -0.063 S 
BRANCH  13  18
ATOM     14  C   UNL     1      -3.452  -1.109   5.550  0.00  0.00    +0.066 C 
ATOM     15  C   UNL     1      -2.879  -2.222   4.711  0.00  0.00    +0.047 A 
ATOM     16  C   UNL     1      -3.548  -3.386   4.527  0.00  0.00    +0.070 A 
ATOM     17  S   UNL     1      -2.401  -4.268   3.482  0.00  0.00    -0.069 S 
ATOM     18  C   UNL     1      -1.210  -3.083   3.390  0.00  0.00    +0.139 A 
ATOM     19  N   UNL     1      -1.706  -2.103   4.117  0.00  0.00    -0.238 NA
ENDBRANCH  13  18
ENDBRANCH   7  13
ENDBRANCH   1  10
BRANCH   4  20
ATOM     20  C   UNL     1       0.055 -12.104   1.592  0.00  0.00    +0.098 C 
BRANCH  20  21
ATOM     21  C   UNL     1       0.190 -13.406   0.800  0.00  0.00    +0.016 C 
BRANCH  21  22
ATOM     22  N   UNL     1      -0.195 -14.540   1.652  0.00  0.00    +0.387 N 
ATOM     23  C   UNL     1      -1.651 -14.492   1.941  0.00  0.00    -0.078 C 
ATOM     24  C   UNL     1      -1.985 -15.957   2.321  0.00  0.00    -0.020 C 
ATOM     25  C   UNL     1      -1.095 -16.775   1.357  0.00  0.00    -0.020 C 
ATOM     26  C   UNL     1       0.034 -15.815   0.938  0.00  0.00    -0.078 C 
ATOM     27  H   UNL     1       0.333 -14.523   2.512  0.00  0.00    -0.081 HD
ENDBRANCH  21  22
BRANCH  21  28
ATOM     28  C   UNL     1       1.619 -13.576   0.353  0.00  0.00    +0.093 A 
ATOM     29  C   UNL     1       2.099 -13.294  -0.872  0.00  0.00    +0.043 A 
ATOM     30  C   UNL     1       3.479 -13.601  -0.851  0.00  0.00    +0.041 A 
ATOM     31  C   UNL     1       3.760 -14.052   0.384  0.00  0.00    +0.195 A 
ATOM     32  O   UNL     1       2.631 -14.030   1.111  0.00  0.00    -0.469 OA
ENDBRANCH  21  28
ENDBRANCH  20  21
ENDBRANCH   4  20
TORSDOF 7
