REMARK  Name = ZINC44167158
REMARK  6 active torsions:
REMARK  status: ('A' for Active; 'I' for Inactive)
REMARK    1  A    between atoms: C_5  and  C_7
REMARK    2  A    between atoms: C_7  and  C_8
REMARK    3  A    between atoms: C_8  and  N_9
REMARK    4  A    between atoms: C_10  and  C_12
REMARK    5  A    between atoms: C_17  and  C_20
REMARK    6  A    between atoms: C_23  and  C_26
REMARK                            x       y       z     vdW  Elec       q    Type
REMARK                         _______ _______ _______ _____ _____    ______ ____
ROOT
ATOM      1  C   UNL     1       1.538  -6.353   2.551  0.00  0.00    +0.027 C 
ATOM      2  C   UNL     1       0.182  -6.878   2.064  0.00  0.00    +0.062 C 
ATOM      3  S   UNL     1      -1.111  -6.227   3.166  0.00  0.00    -0.163 S 
ATOM      4  C   UNL     1      -0.462  -6.622   4.820  0.00  0.00    +0.058 C 
ATOM      5  C   UNL     1       0.990  -6.136   4.895  0.00  0.00    -0.030 C 
ATOM      6  N   UNL     1       1.802  -6.844   3.905  0.00  0.00    +0.392 N 
ATOM      7  H   UNL     1       1.590  -7.830   3.947  0.00  0.00    -0.084 HD
ATOM      8  H   UNL     1       2.778  -6.707   4.123  0.00  0.00    -0.084 HD
ENDROOT
BRANCH   5   9
ATOM      9  C   UNL     1       1.536  -6.402   6.274  0.00  0.00    -0.061 A 
ATOM     10  C   UNL     1       1.984  -7.667   6.607  0.00  0.00    +0.002 A 
ATOM     11  C   UNL     1       2.485  -7.912   7.872  0.00  0.00    +0.012 A 
ATOM     12  C   UNL     1       2.540  -6.892   8.803  0.00  0.00    +0.055 A 
ATOM     13  C   UNL     1       2.093  -5.627   8.470  0.00  0.00    +0.012 A 
ATOM     14  C   UNL     1       1.595  -5.381   7.204  0.00  0.00    +0.002 A 
BRANCH  12  15
ATOM     15  C   UNL     1       3.085  -7.159  10.182  0.00  0.00    +0.417 C 
ATOM     16  F   UNL     1       4.465  -6.925  10.192  0.00  0.00    -0.166 F 
ATOM     17  F   UNL     1       2.462  -6.310  11.103  0.00  0.00    -0.166 F 
ATOM     18  F   UNL     1       2.836  -8.490  10.533  0.00  0.00    -0.166 F 
ENDBRANCH  12  15
ENDBRANCH   5   9
BRANCH   1  20
ATOM     19  N   UNL     1       2.332  -4.166   3.392  0.00  0.00    -0.316 N 
ATOM     20  C   UNL     1       1.518  -4.846   2.560  0.00  0.00    +0.200 C 
ATOM     21  O   UNL     1       0.769  -4.245   1.819  0.00  0.00    -0.278 OA
ATOM     22  H   UNL     1       2.931  -4.647   3.984  0.00  0.00    +0.149 HD
BRANCH  19  23
ATOM     23  C   UNL     1       2.312  -2.701   3.400  0.00  0.00    +0.109 C 
BRANCH  23  24
ATOM     24  C   UNL     1       3.323  -2.184   4.426  0.00  0.00    +0.055 C 
BRANCH  24  29
ATOM     25  C   UNL     1       4.194   1.413   3.680  0.00  0.00    +0.000 A 
ATOM     26  C   UNL     1       3.266   2.088   4.451  0.00  0.00    +0.001 A 
ATOM     27  C   UNL     1       2.356   1.382   5.214  0.00  0.00    +0.020 A 
ATOM     28  C   UNL     1       2.374  -0.002   5.206  0.00  0.00    +0.044 A 
ATOM     29  C   UNL     1       3.303  -0.677   4.434  0.00  0.00    -0.028 A 
ATOM     30  C   UNL     1       4.213   0.031   3.672  0.00  0.00    +0.005 A 
ATOM     31 CL   UNL     1       1.231  -0.890   6.165  0.00  0.00    -0.083 Cl
ENDBRANCH  24  29
ENDBRANCH  23  24
ENDBRANCH  19  23
ENDBRANCH   1  20
TORSDOF 6
