REMARK  Name = ZINC44713841
REMARK  8 active torsions:
REMARK  status: ('A' for Active; 'I' for Inactive)
REMARK    1  A    between atoms: C_1  and  C_2
REMARK    2  A    between atoms: C_3  and  C_9
REMARK    3  A    between atoms: C_4  and  C_8
REMARK    4  A    between atoms: C_9  and  C_11
REMARK    5  A    between atoms: C_9  and  N_12
REMARK    6  A    between atoms: C_13  and  C_15
REMARK    7  A    between atoms: C_26  and  C_28
REMARK    8  A    between atoms: C_28  and  C_34
REMARK                            x       y       z     vdW  Elec       q    Type
REMARK                         _______ _______ _______ _____ _____    ______ ____
ROOT
ATOM      1  C   UNL     1      -2.555  -1.810  -4.904  0.00  0.00    +0.100 C 
ATOM      2  C   UNL     1      -1.936  -3.096  -5.497  0.00  0.00    +0.121 C 
ATOM      3  N   UNL     1      -2.633  -3.284  -6.792  0.00  0.00    -0.300 N 
ATOM      4  C   UNL     1      -2.765  -1.913  -7.341  0.00  0.00    +0.115 C 
ATOM      5  C   UNL     1      -3.097  -1.037  -6.117  0.00  0.00    -0.004 C 
ATOM      6  C   UNL     1      -2.403   0.317  -6.234  0.00  0.00    -0.010 C 
ATOM      7  C   UNL     1      -2.999   1.091  -7.413  0.00  0.00    -0.082 C 
ATOM      8  N   UNL     1      -4.440   1.275  -7.201  0.00  0.00    +0.379 N 
ATOM      9  C   UNL     1      -5.114  -0.029  -7.183  0.00  0.00    -0.082 C 
ATOM     10  C   UNL     1      -4.606  -0.851  -5.995  0.00  0.00    -0.010 C 
ATOM     11  C   UNL     1      -3.051  -4.439  -7.345  0.00  0.00    +0.222 C 
ATOM     12  O   UNL     1      -3.533  -4.440  -8.457  0.00  0.00    -0.275 OA
ATOM     13  H   UNL     1      -4.592   1.743  -6.320  0.00  0.00    -0.086 HD
ATOM     14  H   UNL     1      -4.820   1.838  -7.947  0.00  0.00    -0.086 HD
ENDROOT
BRANCH  11  15
ATOM     15  C   UNL     1      -2.921  -5.731  -6.580  0.00  0.00    +0.044 C 
ATOM     16  C   UNL     1      -1.463  -5.931  -6.160  0.00  0.00    +0.016 C 
ATOM     17  C   UNL     1      -0.577  -5.984  -7.407  0.00  0.00    +0.001 C 
ATOM     18  C   UNL     1      -1.016  -7.150  -8.295  0.00  0.00    +0.000 C 
ATOM     19  C   UNL     1      -2.474  -6.950  -8.714  0.00  0.00    +0.001 C 
ATOM     20  C   UNL     1      -3.360  -6.897  -7.468  0.00  0.00    +0.016 C 
ATOM     21  C   UNL     1      -3.807  -5.678  -5.333  0.00  0.00    +0.021 C 
ENDBRANCH  11  15
BRANCH   1  23
ATOM     22  N   UNL     1      -1.857  -0.141  -3.218  0.00  0.00    -0.308 N 
ATOM     23  C   UNL     1      -1.502  -1.001  -4.193  0.00  0.00    +0.219 C 
ATOM     24  O   UNL     1      -0.334  -1.122  -4.499  0.00  0.00    -0.275 OA
ATOM     25  H   UNL     1      -2.790  -0.044  -2.973  0.00  0.00    +0.149 HD
BRANCH  22  26
ATOM     26  C   UNL     1      -0.833   0.646  -2.526  0.00  0.00    +0.104 C 
ATOM     27  C   UNL     1      -0.202  -0.199  -1.418  0.00  0.00    +0.033 C 
BRANCH  26  30
ATOM     28  C   UNL     1      -3.506   0.734  -0.904  0.00  0.00    +0.065 C 
ATOM     29  C   UNL     1      -2.621   1.912  -1.222  0.00  0.00    +0.038 A 
ATOM     30  C   UNL     1      -1.465   1.875  -1.924  0.00  0.00    +0.015 A 
ATOM     31  C   UNL     1      -0.960   3.177  -1.991  0.00  0.00    +0.065 A 
ATOM     32  N   UNL     1      -1.783   3.968  -1.353  0.00  0.00    -0.179 NA
ATOM     33  N   UNL     1      -2.843   3.194  -0.863  0.00  0.00    -0.281 N 
ATOM     34  H   UNL     1      -3.600   3.521  -0.353  0.00  0.00    +0.189 HD
ATOM     35  C   UNL     1       0.314   3.597  -2.680  0.00  0.00    +0.068 C 
ENDBRANCH  26  30
ENDBRANCH  22  26
ENDBRANCH   1  23
TORSDOF 4
