REMARK  Name = ZINC56170429
REMARK  12 active torsions:
REMARK  status: ('A' for Active; 'I' for Inactive)
REMARK    1  A    between atoms: C_1  and  C_2
REMARK    2  A    between atoms: C_2  and  C_3
REMARK    3  A    between atoms: C_3  and  C_4
REMARK    4  A    between atoms: C_4  and  N_5
REMARK    5  A    between atoms: C_9  and  C_11
REMARK    6  A    between atoms: C_11  and  C_13
REMARK    7  A    between atoms: C_11  and  N_14
REMARK    8  A    between atoms: N_14  and  C_15
REMARK    9  A    between atoms: C_18  and  N_22
REMARK   10  A    between atoms: C_20  and  C_21
REMARK   11  A    between atoms: N_25  and  C_28
REMARK   12  A    between atoms: C_28  and  C_29
REMARK                            x       y       z     vdW  Elec       q    Type
REMARK                         _______ _______ _______ _____ _____    ______ ____
ROOT
ATOM      1  N   UNL     1      -5.902  -7.680   0.017  0.00  0.00    -0.333 N 
ATOM      2  H   UNL     1      -5.135  -8.157   0.371  0.00  0.00    +0.147 HD
ENDROOT
BRANCH   1   3
ATOM      3  C   UNL     1      -6.996  -8.392  -0.489  0.00  0.00    +0.031 A 
ATOM      4  C   UNL     1      -8.092  -7.710  -1.001  0.00  0.00    +0.025 A 
ATOM      5  C   UNL     1      -9.171  -8.412  -1.500  0.00  0.00    +0.025 A 
ATOM      6  C   UNL     1      -9.161  -9.801  -1.489  0.00  0.00    +0.030 A 
ATOM      7  C   UNL     1      -8.065 -10.483  -0.977  0.00  0.00    +0.028 A 
ATOM      8  C   UNL     1      -6.983  -9.780  -0.483  0.00  0.00    -0.028 A 
ATOM      9  C   UNL     1      -5.791 -10.521   0.066  0.00  0.00    +0.046 C 
BRANCH   6  10
ATOM     10  N   UNL     1     -10.255 -10.513  -1.994  0.00  0.00    -0.333 N 
ATOM     11  C   UNL     1     -10.219 -11.980  -2.101  0.00  0.00    +0.086 C 
ATOM     12  C   UNL     1     -11.485 -12.546  -1.451  0.00  0.00    -0.060 C 
ATOM     13  N   UNL     1     -12.667 -11.923  -2.059  0.00  0.00    +0.382 N 
ATOM     14  C   UNL     1     -12.681 -10.484  -1.766  0.00  0.00    -0.060 C 
ATOM     15  C   UNL     1     -11.476  -9.816  -2.426  0.00  0.00    +0.086 C 
ATOM     16  H   UNL     1     -12.642 -12.060  -3.059  0.00  0.00    -0.082 HD
BRANCH  13  17
ATOM     17  C   UNL     1     -13.882 -12.544  -1.514  0.00  0.00    -0.082 C 
ATOM     18  C   UNL     1     -15.109 -11.985  -2.236  0.00  0.00    -0.017 C 
ENDBRANCH  13  17
ENDBRANCH   6  10
ENDBRANCH   1   3
BRANCH   1  19
ATOM     19  C   UNL     1      -5.915  -6.215   0.012  0.00  0.00    +0.154 C 
ATOM     20  C   UNL     1      -6.637  -5.707   1.261  0.00  0.00    +0.038 C 
BRANCH  19  25
ATOM     21  N   UNL     1      -2.765  -2.584  -0.013  0.00  0.00    -0.299 N 
ATOM     22  C   UNL     1      -2.999  -3.911  -0.008  0.00  0.00    +0.306 C 
ATOM     23  O   UNL     1      -2.068  -4.692  -0.008  0.00  0.00    -0.252 OA
ATOM     24  N   UNL     1      -4.266  -4.372  -0.001  0.00  0.00    -0.239 N 
ATOM     25  C   UNL     1      -4.499  -5.700   0.005  0.00  0.00    +0.240 C 
ATOM     26  O   UNL     1      -3.571  -6.479   0.004  0.00  0.00    -0.273 OA
ATOM     27  H   UNL     1      -3.508  -1.961  -0.013  0.00  0.00    +0.150 HD
ATOM     28  H   UNL     1      -5.009  -3.749  -0.001  0.00  0.00    +0.159 HD
BRANCH  21  29
ATOM     29  C   UNL     1      -1.389  -2.083  -0.020  0.00  0.00    +0.106 C 
BRANCH  29  30
ATOM     30  C   UNL     1      -1.403  -0.553  -0.026  0.00  0.00    +0.018 C 
BRANCH  30  32
ATOM     31  C   UNL     1       0.021   1.500  -0.039  0.00  0.00    +0.004 C 
ATOM     32  C   UNL     1       0.035  -0.030  -0.033  0.00  0.00    -0.002 C 
ENDBRANCH  30  32
ENDBRANCH  29  30
ENDBRANCH  21  29
ENDBRANCH  19  25
ENDBRANCH   1  19
TORSDOF 8
