REMARK  Name = ZINC39632236
REMARK  4 active torsions:
REMARK  status: ('A' for Active; 'I' for Inactive)
REMARK    1  A    between atoms: C_4  and  N_6
REMARK    2  A    between atoms: C_7  and  C_9
REMARK    3  A    between atoms: C_20  and  C_22
REMARK    4  A    between atoms: C_28  and  C_30
REMARK                            x       y       z     vdW  Elec       q    Type
REMARK                         _______ _______ _______ _____ _____    ______ ____
ROOT
ATOM      1  C   UNL     1       0.751  -3.350  -2.995  0.00  0.00    +0.100 C 
ATOM      2  C   UNL     1      -0.626  -3.016  -3.612  0.00  0.00    +0.121 C 
ATOM      3  N   UNL     1      -1.128  -4.310  -4.130  0.00  0.00    -0.299 N 
ATOM      4  C   UNL     1      -0.727  -5.300  -3.101  0.00  0.00    +0.115 C 
ATOM      5  C   UNL     1       0.680  -4.849  -2.660  0.00  0.00    -0.004 C 
ATOM      6  C   UNL     1       0.857  -5.065  -1.160  0.00  0.00    -0.010 C 
ATOM      7  C   UNL     1       0.842  -6.566  -0.860  0.00  0.00    -0.082 C 
ATOM      8  N   UNL     1       1.924  -7.226  -1.600  0.00  0.00    +0.379 N 
ATOM      9  C   UNL     1       1.696  -7.094  -3.044  0.00  0.00    -0.082 C 
ATOM     10  C   UNL     1       1.747  -5.615  -3.437  0.00  0.00    -0.010 C 
ATOM     11  C   UNL     1      -1.798  -4.537  -5.277  0.00  0.00    +0.236 C 
ATOM     12  O   UNL     1      -2.146  -5.663  -5.564  0.00  0.00    -0.274 OA
ATOM     13  H   UNL     1       2.805  -6.798  -1.359  0.00  0.00    -0.086 HD
ATOM     14  H   UNL     1       1.950  -8.204  -1.353  0.00  0.00    -0.086 HD
ENDROOT
BRANCH  11  15
ATOM     15  C   UNL     1      -2.116  -3.392  -6.203  0.00  0.00    +0.162 C 
ATOM     16  C   UNL     1      -3.356  -2.630  -5.690  0.00  0.00    +0.033 C 
ATOM     17  C   UNL     1      -4.112  -2.275  -6.997  0.00  0.00    +0.021 C 
ATOM     18  C   UNL     1      -3.828  -3.524  -7.869  0.00  0.00    +0.109 C 
ATOM     19  N   UNL     1      -2.439  -3.906  -7.542  0.00  0.00    -0.283 N 
ATOM     20  C   UNL     1      -1.607  -4.609  -8.336  0.00  0.00    +0.320 C 
ATOM     21  O   UNL     1      -0.483  -4.865  -7.960  0.00  0.00    -0.266 OA
BRANCH  20  22
ATOM     22  C   UNL     1      -2.073  -5.075  -9.691  0.00  0.00    +0.470 C 
ATOM     23  F   UNL     1      -1.041  -5.777 -10.323  0.00  0.00    -0.162 F 
ATOM     24  F   UNL     1      -3.182  -5.914  -9.539  0.00  0.00    -0.162 F 
ATOM     25  F   UNL     1      -2.428  -3.968 -10.469  0.00  0.00    -0.162 F 
ENDBRANCH  20  22
ENDBRANCH  11  15
BRANCH   1  27
ATOM     26  N   UNL     1       2.226  -2.217  -1.365  0.00  0.00    -0.312 N 
ATOM     27  C   UNL     1       0.974  -2.543  -1.742  0.00  0.00    +0.218 C 
ATOM     28  O   UNL     1       0.027  -2.186  -1.074  0.00  0.00    -0.275 OA
ATOM     29  H   UNL     1       2.984  -2.502  -1.900  0.00  0.00    +0.149 HD
BRANCH  26  33
ATOM     30  C   UNL     1       3.759   0.658  -0.096  0.00  0.00    +0.002 C 
ATOM     31  C   UNL     1       4.321  -0.332   0.954  0.00  0.00    +0.002 C 
ATOM     32  C   UNL     1       3.855  -1.706   0.413  0.00  0.00    +0.022 C 
ATOM     33  C   UNL     1       2.444  -1.432  -0.147  0.00  0.00    +0.073 C 
ATOM     34  C   UNL     1       2.383   0.071  -0.471  0.00  0.00    +0.022 C 
ENDBRANCH  26  33
ENDBRANCH   1  27
TORSDOF 4
