REMARK  Name = ZINC43102367
REMARK  5 active torsions:
REMARK  status: ('A' for Active; 'I' for Inactive)
REMARK    1  A    between atoms: C_1  and  C_2
REMARK    2  A    between atoms: C_2  and  C_4
REMARK    3  A    between atoms: C_2  and  N_18
REMARK    4  A    between atoms: C_4  and  C_6
REMARK    5  A    between atoms: C_4  and  N_11
REMARK                            x       y       z     vdW  Elec       q    Type
REMARK                         _______ _______ _______ _____ _____    ______ ____
ROOT
ATOM      1  C   UNL     1       0.848  -0.509   1.173  0.00  0.00    +0.079 C 
ENDROOT
BRANCH   1   2
ATOM      2  N   UNL     1       0.217  -0.132   2.445  0.00  0.00    -0.287 NA
ATOM      3  C   UNL     1      -1.243  -0.018   2.296  0.00  0.00    +0.104 C 
ATOM      4  C   UNL     1      -1.874   0.067   3.687  0.00  0.00    +0.119 C 
ATOM      5  N   UNL     1      -1.199   1.091   4.481  0.00  0.00    -0.313 N 
ATOM      6  C   UNL     1       0.010   1.570   4.172  0.00  0.00    +0.227 C 
ATOM      7  O   UNL     1       0.511   2.398   4.903  0.00  0.00    -0.274 OA
ATOM      8  C   UNL     1       0.774   1.127   2.957  0.00  0.00    +0.181 C 
ATOM      9  H   UNL     1      -1.649   1.439   5.267  0.00  0.00    +0.149 HD
ENDBRANCH   1   2
BRANCH   1  10
ATOM     10  C   UNL     1       0.739  -2.000   0.980  0.00  0.00    +0.005 A 
ATOM     11  C   UNL     1       1.690  -2.881   0.587  0.00  0.00    +0.013 A 
ATOM     12  C   UNL     1       1.361  -4.219   0.479  0.00  0.00    +0.008 A 
ATOM     13  C   UNL     1       0.096  -4.611   0.769  0.00  0.00    +0.045 A 
ATOM     14  S   UNL     1      -0.675  -3.064   1.219  0.00  0.00    -0.100 S 
ENDBRANCH   1  10
BRANCH   1  16
ATOM     15  C   UNL     1       0.362   1.716   0.145  0.00  0.00    -0.012 C 
ATOM     16  C   UNL     1       0.140   0.207   0.021  0.00  0.00    -0.056 C 
BRANCH  16  17
ATOM     17  N   UNL     1       0.686  -0.265  -1.258  0.00  0.00    +0.381 N 
ATOM     18  H   UNL     1       0.540  -1.260  -1.340  0.00  0.00    -0.090 HD
ATOM     19  H   UNL     1       0.219   0.207  -2.018  0.00  0.00    -0.090 HD
ATOM     20  H   UNL     1       1.675  -0.066  -1.296  0.00  0.00    -0.090 HD
ENDBRANCH  16  17
ENDBRANCH   1  16
TORSDOF 4
