REMARK  Name = ZINC12305990
REMARK  9 active torsions:
REMARK  status: ('A' for Active; 'I' for Inactive)
REMARK    1  A    between atoms: C_1  and  C_2
REMARK    2  A    between atoms: C_3  and  C_14
REMARK    3  A    between atoms: N_6  and  C_7
REMARK    4  A    between atoms: C_14  and  C_16
REMARK    5  A    between atoms: C_14  and  N_53
REMARK    6  A    between atoms: C_17  and  C_18
REMARK    7  A    between atoms: C_17  and  N_53
REMARK    8  A    between atoms: N_20  and  C_27
REMARK    9  A    between atoms: C_27  and  C_28
REMARK                            x       y       z     vdW  Elec       q    Type
REMARK                         _______ _______ _______ _____ _____    ______ ____
ROOT
ATOM      1  N   UNL     1      -0.043   0.903   0.001  0.00  0.00    +0.386 N 
ATOM      2  H   UNL     1      -0.466   1.275   0.859  0.00  0.00    -0.085 HD
ATOM      3  H   UNL     1      -0.014  -0.122   0.049  0.00  0.00    -0.085 HD
ENDROOT
BRANCH   1   4
ATOM      4  C   UNL     1       1.331   1.423  -0.129  0.00  0.00    -0.040 C 
ATOM      5  C   UNL     1       1.390   2.853   0.413  0.00  0.00    -0.009 C 
BRANCH   4   8
ATOM      6  C   UNL     1       4.429   1.218  -0.518  0.00  0.00    +0.066 C 
ATOM      7  C   UNL     1       3.608   0.459   0.493  0.00  0.00    +0.043 A 
ATOM      8  C   UNL     1       2.268   0.547   0.662  0.00  0.00    -0.021 A 
ATOM      9  C   UNL     1       1.906  -0.323   1.696  0.00  0.00    +0.137 A 
ATOM     10  N   UNL     1       2.990  -0.909   2.137  0.00  0.00    -0.174 NA
ATOM     11  N   UNL     1       4.079  -0.430   1.397  0.00  0.00    -0.237 N 
BRANCH  11  12
ATOM     12  C   UNL     1       5.418  -0.810   1.560  0.00  0.00    +0.068 A 
ATOM     13  C   UNL     1       5.742  -2.143   1.776  0.00  0.00    +0.028 A 
ATOM     14  C   UNL     1       7.062  -2.516   1.932  0.00  0.00    +0.005 A 
ATOM     15  C   UNL     1       8.062  -1.563   1.884  0.00  0.00    +0.038 A 
ATOM     16  C   UNL     1       7.744  -0.232   1.674  0.00  0.00    +0.125 A 
ATOM     17  C   UNL     1       6.423   0.146   1.512  0.00  0.00    +0.066 A 
ATOM     18  F   UNL     1       8.723   0.698   1.628  0.00  0.00    -0.205 F 
ENDBRANCH  11  12
ENDBRANCH   4   8
ENDBRANCH   1   4
BRANCH   1  19
ATOM     19  C   UNL     1      -0.857   1.313  -1.159  0.00  0.00    -0.044 C 
BRANCH  19  20
ATOM     20  C   UNL     1      -2.253   0.768  -1.000  0.00  0.00    -0.039 A 
ATOM     21  C   UNL     1      -2.755  -0.327  -1.591  0.00  0.00    +0.089 A 
ATOM     22  N   UNL     1      -4.056  -0.510  -1.208  0.00  0.00    -0.338 N 
ATOM     23  C   UNL     1      -4.432   0.489  -0.338  0.00  0.00    +0.050 A 
ATOM     24  C   UNL     1      -3.317   1.330  -0.165  0.00  0.00    +0.001 A 
ATOM     25  C   UNL     1      -3.409   2.445   0.670  0.00  0.00    +0.010 A 
ATOM     26  C   UNL     1      -4.580   2.709   1.324  0.00  0.00    +0.001 A 
ATOM     27  C   UNL     1      -5.681   1.879   1.161  0.00  0.00    +0.002 A 
ATOM     28  C   UNL     1      -5.614   0.776   0.338  0.00  0.00    +0.026 A 
BRANCH  22  29
ATOM     29  C   UNL     1      -4.920  -1.605  -1.656  0.00  0.00    +0.217 C 
BRANCH  29  30
ATOM     30  C   UNL     1      -5.741  -1.147  -2.833  0.00  0.00    +0.230 C 
ATOM     31  O   UNL     1      -5.617  -0.018  -3.257  0.00  0.00    -0.274 OA
ATOM     32  N   UNL     1      -6.613  -1.994  -3.416  0.00  0.00    -0.328 N 
ATOM     33  H   UNL     1      -6.713  -2.897  -3.078  0.00  0.00    +0.145 HD
ATOM     34  H   UNL     1      -7.142  -1.699  -4.174  0.00  0.00    +0.145 HD
ENDBRANCH  29  30
ENDBRANCH  22  29
ENDBRANCH  19  20
ENDBRANCH   1  19
TORSDOF 7
