REMARK  Name = ZINC07666412
REMARK  7 active torsions:
REMARK  status: ('A' for Active; 'I' for Inactive)
REMARK    1  A    between atoms: C_1  and  O_2
REMARK    2  A    between atoms: O_2  and  C_3
REMARK    3  A    between atoms: C_8  and  N_9
REMARK    4  A    between atoms: C_10  and  S_12
REMARK    5  A    between atoms: S_12  and  C_13
REMARK    6  A    between atoms: C_13  and  C_14
REMARK    7  A    between atoms: C_13  and  C_20
REMARK                            x       y       z     vdW  Elec       q    Type
REMARK                         _______ _______ _______ _____ _____    ______ ____
ROOT
ATOM      1  N   UNL     1       1.411  -3.516   0.786  0.00  0.00    -0.293 N 
ATOM      2  C   UNL     1       0.772  -4.580   0.191  0.00  0.00    +0.130 C 
ATOM      3  N   UNL     1       0.859  -4.755  -1.099  0.00  0.00    -0.381 N 
ATOM      4  H   UNL     1       0.485  -5.551  -1.507  0.00  0.00    +0.158 HD
ATOM      5  H   UNL     1       1.298  -4.088  -1.650  0.00  0.00    +0.158 HD
ATOM      6  H   UNL     1       0.977  -3.031   1.506  0.00  0.00    +0.154 HD
ENDROOT
BRANCH   1  12
ATOM      7  C   UNL     1       3.264  -1.959   0.833  0.00  0.00    +0.141 A 
ATOM      8  C   UNL     1       4.528  -1.588   0.405  0.00  0.00    +0.047 A 
ATOM      9  C   UNL     1       5.212  -2.378  -0.500  0.00  0.00    +0.004 A 
ATOM     10  C   UNL     1       4.637  -3.540  -0.982  0.00  0.00    +0.002 A 
ATOM     11  C   UNL     1       3.376  -3.918  -0.559  0.00  0.00    +0.027 A 
ATOM     12  C   UNL     1       2.687  -3.132   0.353  0.00  0.00    +0.075 A 
BRANCH   7  14
ATOM     13  C   UNL     1       3.244   0.006   2.172  0.00  0.00    +0.277 C 
ATOM     14  O   UNL     1       2.591  -1.183   1.723  0.00  0.00    -0.493 OA
ENDBRANCH   7  14
ENDBRANCH   1  12
BRANCH   2  15
ATOM     15  S   UNL     1      -0.162  -5.708   1.172  0.00  0.00    -0.080 S 
BRANCH  15  16
ATOM     16  C   UNL     1      -0.798  -6.910  -0.028  0.00  0.00    +0.114 C 
BRANCH  16  17
ATOM     17  C   UNL     1      -1.522  -8.012   0.701  0.00  0.00    -0.030 A 
ATOM     18  C   UNL     1      -1.165  -9.331   0.491  0.00  0.00    +0.005 A 
ATOM     19  C   UNL     1      -1.829 -10.342   1.160  0.00  0.00    +0.000 A 
ATOM     20  C   UNL     1      -2.851 -10.034   2.039  0.00  0.00    +0.000 A 
ATOM     21  C   UNL     1      -3.208  -8.716   2.249  0.00  0.00    +0.000 A 
ATOM     22  C   UNL     1      -2.541  -7.704   1.583  0.00  0.00    +0.005 A 
ENDBRANCH  16  17
BRANCH  16  23
ATOM     23  C   UNL     1      -1.750  -6.222  -0.973  0.00  0.00    -0.030 A 
ATOM     24  C   UNL     1      -2.773  -5.438  -0.473  0.00  0.00    +0.005 A 
ATOM     25  C   UNL     1      -3.646  -4.807  -1.339  0.00  0.00    +0.000 A 
ATOM     26  C   UNL     1      -3.496  -4.960  -2.704  0.00  0.00    +0.000 A 
ATOM     27  C   UNL     1      -2.472  -5.743  -3.204  0.00  0.00    +0.000 A 
ATOM     28  C   UNL     1      -1.597  -6.370  -2.338  0.00  0.00    +0.005 A 
ENDBRANCH  16  23
ENDBRANCH  15  16
ENDBRANCH   2  15
TORSDOF 6
