REMARK  Name = ZINC50362437
REMARK  10 active torsions:
REMARK  status: ('A' for Active; 'I' for Inactive)
REMARK    1  A    between atoms: C_1  and  C_2
REMARK    2  A    between atoms: C_2  and  C_3
REMARK    3  A    between atoms: C_2  and  C_4
REMARK    4  A    between atoms: C_2  and  C_5
REMARK    5  A    between atoms: C_5  and  N_6
REMARK    6  A    between atoms: N_6  and  C_7
REMARK    7  A    between atoms: N_6  and  C_8
REMARK    8  A    between atoms: C_8  and  C_10
REMARK    9  A    between atoms: C_8  and  C_12
REMARK   10  A    between atoms: C_10  and  N_11
REMARK                            x       y       z     vdW  Elec       q    Type
REMARK                         _______ _______ _______ _____ _____    ______ ____
ROOT
ATOM      1  C   UNL     1       2.409  -0.367  -2.616  0.00  0.00    +0.105 C 
ENDROOT
BRANCH   1   2
ATOM      2  C   UNL     1       1.434  -0.934  -3.615  0.00  0.00    +0.123 A 
ATOM      3  C   UNL     1       1.544  -2.124  -4.233  0.00  0.00    +0.062 A 
ATOM      4  C   UNL     1       0.418  -2.252  -5.080  0.00  0.00    +0.070 A 
ATOM      5  C   UNL     1      -0.314  -1.132  -4.928  0.00  0.00    +0.184 A 
ATOM      6  O   UNL     1       0.305  -0.340  -4.035  0.00  0.00    -0.450 OA
ATOM      7 BR   UNL     1      -1.938  -0.743  -5.814  0.00  0.00    -0.007 Br
ATOM      8 BR   UNL     1       0.017  -3.716  -6.208  0.00  0.00    -0.046 Br
ENDBRANCH   1   2
BRANCH   1   9
ATOM      9  N   UNL     1       1.670   0.202  -1.480  0.00  0.00    -0.297 NA
ATOM     10  C   UNL     1       0.740   1.246  -1.928  0.00  0.00    +0.105 C 
BRANCH   9  11
ATOM     11  C   UNL     1       0.964  -0.847  -0.733  0.00  0.00    +0.090 C 
BRANCH  11  13
ATOM     12  C   UNL     1       2.394  -0.251   1.228  0.00  0.00    +0.012 C 
ATOM     13  C   UNL     1       1.882  -1.402   0.358  0.00  0.00    -0.025 C 
ATOM     14  C   UNL     1       3.069  -2.118  -0.289  0.00  0.00    +0.012 C 
ATOM     15  C   UNL     1       1.102  -2.390   1.227  0.00  0.00    +0.012 C 
ENDBRANCH  11  13
ENDBRANCH   9  11
ENDBRANCH   1   9
BRANCH   1  16
ATOM     16  C   UNL     1       3.243   0.728  -3.283  0.00  0.00    -0.059 C 
BRANCH  16  17
ATOM     17  N   UNL     1       4.106   1.365  -2.279  0.00  0.00    +0.379 N 
ATOM     18  H   UNL     1       3.543   1.689  -1.507  0.00  0.00    -0.090 HD
ATOM     19  H   UNL     1       4.783   0.695  -1.944  0.00  0.00    -0.090 HD
ATOM     20  H   UNL     1       4.587   2.148  -2.697  0.00  0.00    -0.090 HD
ENDBRANCH  16  17
ENDBRANCH   1  16
TORSDOF 6
