REMARK  Name = ZINC18461520
REMARK  9 active torsions:
REMARK  status: ('A' for Active; 'I' for Inactive)
REMARK    1  A    between atoms: C_1  and  C_2
REMARK    2  A    between atoms: C_2  and  C_4
REMARK    3  A    between atoms: C_2  and  O_15
REMARK    4  A    between atoms: N_6  and  C_7
REMARK    5  A    between atoms: C_8  and  C_12
REMARK    6  A    between atoms: O_15  and  C_16
REMARK    7  A    between atoms: C_16  and  C_18
REMARK    8  A    between atoms: C_21  and  O_37
REMARK    9  A    between atoms: C_25  and  C_27
REMARK                            x       y       z     vdW  Elec       q    Type
REMARK                         _______ _______ _______ _____ _____    ______ ____
ROOT
ATOM      1  C   UNL     1      -0.167  -0.742  -2.171  0.00  0.00    +0.329 C 
ATOM      2  O   UNL     1      -1.367  -0.619  -2.111  0.00  0.00    -0.249 OA
ENDROOT
BRANCH   1   3
ATOM      3  C   UNL     1       0.490  -1.097  -3.480  0.00  0.00    +0.187 C 
ATOM      4  C   UNL     1       1.448   0.035  -3.911  0.00  0.00    +0.066 C 
ATOM      5  C   UNL     1       1.246   0.095  -5.448  0.00  0.00    +0.134 C 
ATOM      6  C   UNL     1      -0.265  -0.223  -5.575  0.00  0.00    +0.140 C 
ATOM      7  N   UNL     1      -0.529  -1.234  -4.530  0.00  0.00    -0.285 N 
ATOM      8  C   UNL     1      -1.535  -2.131  -4.537  0.00  0.00    +0.223 C 
ATOM      9  O   UNL     1      -1.607  -2.967  -3.662  0.00  0.00    -0.275 OA
BRANCH   8  10
ATOM     10  C   UNL     1      -2.570  -2.095  -5.632  0.00  0.00    +0.048 C 
ATOM     11  C   UNL     1      -1.934  -2.542  -6.950  0.00  0.00    +0.019 C 
ATOM     12  C   UNL     1      -2.985  -2.505  -8.061  0.00  0.00    -0.009 C 
ATOM     13  C   UNL     1      -4.137  -3.447  -7.705  0.00  0.00    +0.007 C 
ATOM     14  C   UNL     1      -4.772  -3.000  -6.387  0.00  0.00    -0.009 C 
ATOM     15  C   UNL     1      -3.722  -3.037  -5.276  0.00  0.00    +0.019 C 
ATOM     16  C   UNL     1      -5.307  -1.575  -6.537  0.00  0.00    +0.007 C 
ATOM     17  C   UNL     1      -4.155  -0.633  -6.893  0.00  0.00    -0.009 C 
ATOM     18  C   UNL     1      -3.519  -1.080  -8.210  0.00  0.00    +0.007 C 
ATOM     19  C   UNL     1      -3.104  -0.669  -5.781  0.00  0.00    +0.019 C 
ENDBRANCH   8  10
BRANCH   5  20
ATOM     20  O   UNL     1       1.540   1.399  -5.953  0.00  0.00    -0.390 OA
ATOM     21  H   UNL     1       1.428   1.485  -6.909  0.00  0.00    +0.210 HD
ENDBRANCH   5  20
ENDBRANCH   1   3
BRANCH   1  22
ATOM     22  O   UNL     1       0.582  -0.561  -1.072  0.00  0.00    -0.451 OA
BRANCH  22  24
ATOM     23  C   UNL     1      -0.226   1.295   0.248  0.00  0.00    +0.062 C 
ATOM     24  C   UNL     1      -0.107  -0.226   0.135  0.00  0.00    +0.259 C 
BRANCH  24  25
ATOM     25  C   UNL     1       0.660  -0.760   1.316  0.00  0.00    +0.258 C 
ATOM     26  O   UNL     1       1.740  -1.288   1.150  0.00  0.00    -0.271 OA
ATOM     27  N   UNL     1       0.147  -0.652   2.558  0.00  0.00    -0.276 N 
ATOM     28  H   UNL     1      -0.716  -0.230   2.691  0.00  0.00    +0.155 HD
BRANCH  27  29
ATOM     29  C   UNL     1       0.854  -1.143   3.645  0.00  0.00    +0.084 A 
ATOM     30  C   UNL     1       0.483  -1.124   4.982  0.00  0.00    +0.065 A 
ATOM     31  C   UNL     1       1.414  -1.710   5.919  0.00  0.00    +0.022 A 
ATOM     32  C   UNL     1       2.544  -2.211   5.388  0.00  0.00    +0.048 A 
ATOM     33  S   UNL     1       2.349  -1.903   3.646  0.00  0.00    -0.081 S 
BRANCH  30  34
ATOM     34  C   UNL     1      -0.788  -0.540   5.421  0.00  0.00    +0.244 C 
ATOM     35  O   UNL     1      -1.550  -0.055   4.605  0.00  0.00    -0.270 OA
ATOM     36  N   UNL     1      -1.114  -0.541   6.729  0.00  0.00    -0.325 N 
ATOM     37  H   UNL     1      -0.507  -0.928   7.380  0.00  0.00    +0.145 HD
ATOM     38  H   UNL     1      -1.955  -0.154   7.020  0.00  0.00    +0.145 HD
ENDBRANCH  30  34
ENDBRANCH  27  29
ENDBRANCH  24  25
ENDBRANCH  22  24
ENDBRANCH   1  22
TORSDOF 8
