REMARK  Name = ZINC39432172
REMARK  9 active torsions:
REMARK  status: ('A' for Active; 'I' for Inactive)
REMARK    1  A    between atoms: C_1  and  C_2
REMARK    2  A    between atoms: C_4  and  N_17
REMARK    3  A    between atoms: N_8  and  C_11
REMARK    4  A    between atoms: N_9  and  C_10
REMARK    5  A    between atoms: C_18  and  C_20
REMARK    6  A    between atoms: C_20  and  S_21
REMARK    7  A    between atoms: S_21  and  C_22
REMARK    8  A    between atoms: C_26  and  C_28
REMARK    9  A    between atoms: C_31  and  N_34
REMARK                            x       y       z     vdW  Elec       q    Type
REMARK                         _______ _______ _______ _____ _____    ______ ____
ROOT
ATOM      1  N   UNL     1      -2.463   0.152   0.510  0.00  0.00    -0.302 N 
ATOM      2  C   UNL     1      -3.712  -0.045   0.043  0.00  0.00    +0.224 C 
ATOM      3  O   UNL     1      -3.913  -0.872  -0.821  0.00  0.00    -0.275 OA
ATOM      4  H   UNL     1      -2.302   0.813   1.201  0.00  0.00    +0.150 HD
ENDROOT
BRANCH   1   7
ATOM      5  C   UNL     1      -0.242   1.629   0.258  0.00  0.00    +0.028 C 
ATOM      6  C   UNL     1      -0.009   0.121   0.147  0.00  0.00    +0.102 C 
ATOM      7  C   UNL     1      -1.348  -0.635  -0.025  0.00  0.00    +0.179 C 
ATOM      8  C   UNL     1      -1.119  -1.887   0.802  0.00  0.00    +0.256 C 
ATOM      9  O   UNL     1      -1.790  -2.897   0.769  0.00  0.00    -0.272 OA
ATOM     10  N   UNL     1      -0.039  -1.679   1.578  0.00  0.00    -0.201 N 
ATOM     11  N   UNL     1       0.494  -0.433   1.425  0.00  0.00    -0.218 NA
ATOM     12  C   UNL     1       0.133   0.436   2.554  0.00  0.00    +0.128 C 
BRANCH  10  13
ATOM     13  C   UNL     1       0.483  -2.640   2.451  0.00  0.00    +0.053 A 
ATOM     14  C   UNL     1      -0.364  -3.343   3.298  0.00  0.00    +0.025 A 
ATOM     15  C   UNL     1       0.154  -4.292   4.158  0.00  0.00    +0.002 A 
ATOM     16  C   UNL     1       1.514  -4.542   4.176  0.00  0.00    +0.000 A 
ATOM     17  C   UNL     1       2.360  -3.843   3.333  0.00  0.00    +0.002 A 
ATOM     18  C   UNL     1       1.847  -2.898   2.467  0.00  0.00    +0.025 A 
ENDBRANCH  10  13
ENDBRANCH   1   7
BRANCH   2  19
ATOM     19  C   UNL     1      -4.858   0.764   0.593  0.00  0.00    +0.168 C 
BRANCH  19  20
ATOM     20  S   UNL     1      -6.396   0.271  -0.232  0.00  0.00    -0.102 S 
BRANCH  20  21
ATOM     21  C   UNL     1      -7.661   1.323   0.533  0.00  0.00    +0.281 C 
ATOM     22  N   UNL     1      -7.318   2.739   0.350  0.00  0.00    -0.253 NA
ATOM     23  C   UNL     1      -7.177   3.257   1.522  0.00  0.00    +0.136 C 
ATOM     24  C   UNL     1      -7.414   2.228   2.555  0.00  0.00    +0.087 C 
ATOM     25  N   UNL     1      -7.699   1.094   1.983  0.00  0.00    -0.245 NA
BRANCH  24  26
ATOM     26  C   UNL     1      -7.340   2.452   4.018  0.00  0.00    +0.002 A 
ATOM     27  C   UNL     1      -7.579   1.399   4.901  0.00  0.00    +0.012 A 
ATOM     28  C   UNL     1      -7.509   1.614   6.262  0.00  0.00    +0.033 A 
ATOM     29  C   UNL     1      -7.202   2.871   6.751  0.00  0.00    +0.126 A 
ATOM     30  C   UNL     1      -6.965   3.920   5.881  0.00  0.00    +0.033 A 
ATOM     31  C   UNL     1      -7.026   3.716   4.518  0.00  0.00    +0.012 A 
BRANCH  29  32
ATOM     32  N   UNL     1      -7.129   3.095   8.213  0.00  0.00    +0.056 N 
ATOM     33  O   UNL     1      -7.337   2.181   8.976  0.00  0.00    -0.126 OA
ATOM     34  O   UNL     1      -6.862   4.193   8.643  0.00  0.00    -0.126 OA
ENDBRANCH  29  32
ENDBRANCH  24  26
ENDBRANCH  20  21
ENDBRANCH  19  20
ENDBRANCH   2  19
TORSDOF 7
