REMARK  Name = ZINC38798905
REMARK  9 active torsions:
REMARK  status: ('A' for Active; 'I' for Inactive)
REMARK    1  A    between atoms: C_1  and  C_2
REMARK    2  A    between atoms: C_2  and  C_3
REMARK    3  A    between atoms: C_3  and  C_4
REMARK    4  A    between atoms: C_3  and  N_6
REMARK    5  A    between atoms: C_4  and  C_5
REMARK    6  A    between atoms: C_7  and  C_9
REMARK    7  A    between atoms: C_12  and  N_15
REMARK    8  A    between atoms: N_15  and  S_16
REMARK    9  A    between atoms: S_16  and  C_19
REMARK                            x       y       z     vdW  Elec       q    Type
REMARK                         _______ _______ _______ _____ _____    ______ ____
ROOT
ATOM      1  N   UNL     1      -2.871   2.584  -7.541  0.00  0.00    -0.216 N 
ATOM      2  H   UNL     1      -2.923   1.985  -8.302  0.00  0.00    +0.174 HD
ENDROOT
BRANCH   1   6
ATOM      3  C   UNL     1      -0.593   1.531  -4.221  0.00  0.00    +0.037 A 
ATOM      4  C   UNL     1      -1.462   0.600  -4.798  0.00  0.00    +0.015 A 
ATOM      5  C   UNL     1      -2.213   0.951  -5.895  0.00  0.00    +0.025 A 
ATOM      6  C   UNL     1      -2.110   2.232  -6.431  0.00  0.00    +0.048 A 
ATOM      7  C   UNL     1      -1.245   3.161  -5.859  0.00  0.00    +0.025 A 
ATOM      8  C   UNL     1      -0.495   2.818  -4.758  0.00  0.00    +0.015 A 
BRANCH   3  10
ATOM      9  N   UNL     1       0.119  -0.083  -2.527  0.00  0.00    -0.309 N 
ATOM     10  C   UNL     1       0.214   1.158  -3.043  0.00  0.00    +0.244 C 
ATOM     11  O   UNL     1       0.966   1.971  -2.539  0.00  0.00    -0.270 OA
ATOM     12  H   UNL     1      -0.480  -0.731  -2.929  0.00  0.00    +0.149 HD
BRANCH   9  13
ATOM     13  C   UNL     1       0.921  -0.453  -1.358  0.00  0.00    +0.073 C 
BRANCH  13  15
ATOM     14  C   UNL     1       0.093   1.501  -0.039  0.00  0.00    +0.006 C 
ATOM     15  C   UNL     1       0.192  -0.025  -0.083  0.00  0.00    +0.019 C 
ENDBRANCH  13  15
BRANCH  13  16
ATOM     16  C   UNL     1       1.129  -1.969  -1.342  0.00  0.00    +0.019 C 
ATOM     17  C   UNL     1       1.966  -2.381  -2.554  0.00  0.00    +0.006 C 
ENDBRANCH  13  16
ENDBRANCH   9  13
ENDBRANCH   3  10
ENDBRANCH   1   6
BRANCH   1  18
ATOM     18  S   UNL     1      -3.687   4.024  -7.562  0.00  0.00    +0.072 S 
ATOM     19  O   UNL     1      -2.738   5.033  -7.242  0.00  0.00    -0.150 OA
ATOM     20  O   UNL     1      -4.444   4.045  -8.765  0.00  0.00    -0.150 OA
BRANCH  18  21
ATOM     21  C   UNL     1      -4.847   3.986  -6.237  0.00  0.00    +0.110 A 
ATOM     22  C   UNL     1      -6.145   3.356  -6.452  0.00  0.00    +0.031 A 
ATOM     23  C   UNL     1      -7.079   3.292  -5.479  0.00  0.00    +0.027 A 
ATOM     24  C   UNL     1      -6.794   3.867  -4.166  0.00  0.00    +0.056 A 
ATOM     25  N   UNL     1      -7.454   3.973  -3.041  0.00  0.00    -0.268 N 
ATOM     26  C   UNL     1      -6.659   4.628  -2.130  0.00  0.00    +0.308 C 
ATOM     27  O   UNL     1      -6.974   4.887  -0.988  0.00  0.00    -0.252 OA
ATOM     28  N   UNL     1      -5.452   4.945  -2.709  0.00  0.00    -0.267 N 
ATOM     29  C   UNL     1      -5.461   4.514  -3.945  0.00  0.00    +0.058 A 
ATOM     30  C   UNL     1      -4.506   4.535  -5.051  0.00  0.00    +0.054 A 
ATOM     31  H   UNL     1      -4.719   5.408  -2.275  0.00  0.00    +0.156 HD
ATOM     32  H   UNL     1      -8.353   3.646  -2.877  0.00  0.00    +0.156 HD
ENDBRANCH  18  21
ENDBRANCH   1  18
TORSDOF 7
