REMARK  Name = ZINC53502734
REMARK  6 active torsions:
REMARK  status: ('A' for Active; 'I' for Inactive)
REMARK    1  A    between atoms: C_9  and  N_11
REMARK    2  A    between atoms: N_14  and  C_15
REMARK    3  A    between atoms: C_15  and  C_16
REMARK    4  A    between atoms: C_16  and  C_17
REMARK    5  A    between atoms: C_20  and  S_23
REMARK    6  A    between atoms: S_23  and  N_26
REMARK                            x       y       z     vdW  Elec       q    Type
REMARK                         _______ _______ _______ _____ _____    ______ ____
ROOT
ATOM      1  N   UNL     1       4.147  -1.058   1.302  0.00  0.00    -0.293 N 
ATOM      2  C   UNL     1       5.090  -0.183   1.704  0.00  0.00    +0.300 C 
ATOM      3  O   UNL     1       5.457   0.702   0.956  0.00  0.00    -0.253 OA
ATOM      4  N   UNL     1       5.626  -0.289   2.936  0.00  0.00    -0.299 N 
ATOM      5  H   UNL     1       3.854  -1.764   1.899  0.00  0.00    +0.151 HD
ATOM      6  H   UNL     1       5.333  -0.996   3.533  0.00  0.00    +0.150 HD
ENDROOT
BRANCH   1  15
ATOM      7  C   UNL     1      -0.017   1.377   0.010  0.00  0.00    +0.000 A 
ATOM      8  C   UNL     1       1.172   2.083   0.002  0.00  0.00    +0.000 A 
ATOM      9  C   UNL     1       2.376   1.406  -0.013  0.00  0.00    +0.006 A 
ATOM     10  C   UNL     1       2.396   0.021  -0.021  0.00  0.00    -0.024 A 
ATOM     11  C   UNL     1       1.208  -0.685  -0.013  0.00  0.00    -0.042 A 
ATOM     12  C   UNL     1       0.002  -0.004   0.002  0.00  0.00    +0.004 A 
ATOM     13  C   UNL     1       1.496  -2.171  -0.025  0.00  0.00    +0.037 C 
ATOM     14  C   UNL     1       2.966  -2.294  -0.480  0.00  0.00    +0.032 C 
ATOM     15  C   UNL     1       3.564  -0.942  -0.037  0.00  0.00    +0.105 C 
ENDBRANCH   1  15
BRANCH   4  16
ATOM     16  C   UNL     1       6.651   0.662   3.373  0.00  0.00    +0.110 C 
BRANCH  16  17
ATOM     17  C   UNL     1       7.088   0.321   4.800  0.00  0.00    +0.054 C 
BRANCH  17  18
ATOM     18  C   UNL     1       8.142   1.299   5.250  0.00  0.00    -0.046 A 
ATOM     19  C   UNL     1       9.478   1.030   5.018  0.00  0.00    +0.005 A 
ATOM     20  C   UNL     1      10.445   1.928   5.430  0.00  0.00    +0.029 A 
ATOM     21  C   UNL     1      10.076   3.094   6.075  0.00  0.00    +0.105 A 
ATOM     22  C   UNL     1       8.740   3.363   6.306  0.00  0.00    +0.029 A 
ATOM     23  C   UNL     1       7.773   2.467   5.889  0.00  0.00    +0.005 A 
BRANCH  21  24
ATOM     24  S   UNL     1      11.309   4.237   6.602  0.00  0.00    +0.056 S 
ATOM     25  O   UNL     1      10.738   4.989   7.664  0.00  0.00    -0.153 OA
ATOM     26  O   UNL     1      12.512   3.496   6.754  0.00  0.00    -0.153 OA
BRANCH  24  27
ATOM     27  N   UNL     1      11.560   5.296   5.354  0.00  0.00    -0.204 NA
ATOM     28  H   UNL     1      11.058   5.202   4.529  0.00  0.00    +0.144 HD
ATOM     29  H   UNL     1      12.210   6.011   5.447  0.00  0.00    +0.144 HD
ENDBRANCH  24  27
ENDBRANCH  21  24
ENDBRANCH  17  18
ENDBRANCH  16  17
ENDBRANCH   4  16
TORSDOF 6
