REMARK  Name = ZINC58489671
REMARK  5 active torsions:
REMARK  status: ('A' for Active; 'I' for Inactive)
REMARK    1  A    between atoms: C_10  and  C_16
REMARK    2  A    between atoms: C_19  and  O_23
REMARK    3  A    between atoms: O_23  and  C_24
REMARK    4  A    between atoms: C_24  and  C_25
REMARK    5  A    between atoms: C_25  and  O_26
REMARK                            x       y       z     vdW  Elec       q    Type
REMARK                         _______ _______ _______ _____ _____    ______ ____
ROOT
ATOM      1  C   UNL     1       0.213   1.847  -0.214  0.00  0.00    +0.002 A 
ATOM      2  C   UNL     1       1.465   2.444  -0.204  0.00  0.00    +0.002 A 
ATOM      3  C   UNL     1       2.607   1.673  -0.159  0.00  0.00    +0.028 A 
ATOM      4  C   UNL     1       2.509   0.290  -0.122  0.00  0.00    +0.072 A 
ATOM      5  C   UNL     1       1.241  -0.321  -0.134  0.00  0.00    +0.091 A 
ATOM      6  C   UNL     1       0.094   0.475  -0.179  0.00  0.00    +0.030 A 
ATOM      7  N   UNL     1       1.440  -1.666  -0.097  0.00  0.00    -0.214 NA
ATOM      8  C   UNL     1       2.716  -1.917  -0.064  0.00  0.00    +0.205 A 
ATOM      9  N   UNL     1       3.423  -0.739  -0.070  0.00  0.00    -0.288 N 
ATOM     10  C   UNL     1       4.887  -0.668  -0.018  0.00  0.00    +0.210 C 
ATOM     11  N   UNL     1       5.411  -2.016  -0.310  0.00  0.00    -0.294 N 
ATOM     12  C   UNL     1       4.729  -3.105   0.212  0.00  0.00    +0.159 C 
ATOM     13  N   UNL     1       3.355  -3.154  -0.032  0.00  0.00    -0.259 N 
ATOM     14  N   UNL     1       5.338  -4.032   0.895  0.00  0.00    -0.375 N 
ATOM     15  H   UNL     1       6.207  -2.137  -0.851  0.00  0.00    +0.151 HD
ATOM     16  H   UNL     1       6.293  -3.972   1.049  0.00  0.00    +0.158 HD
ATOM     17  H   UNL     1       2.881  -3.989  -0.168  0.00  0.00    +0.158 HD
ATOM     18  H   UNL     1       4.835  -4.783   1.249  0.00  0.00    +0.158 HD
ENDROOT
BRANCH  10  19
ATOM     19  C   UNL     1       5.329  -0.234   1.355  0.00  0.00    +0.007 A 
ATOM     20  C   UNL     1       4.445  -0.294   2.417  0.00  0.00    +0.012 A 
ATOM     21  C   UNL     1       4.847   0.103   3.677  0.00  0.00    +0.046 A 
ATOM     22  C   UNL     1       6.141   0.564   3.878  0.00  0.00    +0.122 A 
ATOM     23  C   UNL     1       7.027   0.624   2.812  0.00  0.00    +0.061 A 
ATOM     24  C   UNL     1       6.621   0.220   1.554  0.00  0.00    +0.028 A 
ATOM     25 BR   UNL     1       7.829   0.294   0.102  0.00  0.00    -0.050 Br
BRANCH  22  26
ATOM     26  O   UNL     1       6.539   0.956   5.116  0.00  0.00    -0.490 OA
BRANCH  26  27
ATOM     27  C   UNL     1       7.884   1.419   5.249  0.00  0.00    +0.256 C 
BRANCH  27  28
ATOM     28  C   UNL     1       8.147   1.814   6.704  0.00  0.00    +0.196 C 
BRANCH  28  29
ATOM     29  O   UNL     1       8.062   0.654   7.535  0.00  0.00    -0.392 OA
ATOM     30  H   UNL     1       8.218   0.830   8.473  0.00  0.00    +0.210 HD
ENDBRANCH  28  29
ENDBRANCH  27  28
ENDBRANCH  26  27
ENDBRANCH  22  26
ENDBRANCH  10  19
TORSDOF 5
