REMARK  Name = ZINC04729641
REMARK  8 active torsions:
REMARK  status: ('A' for Active; 'I' for Inactive)
REMARK    1  A    between atoms: C_1  and  O_2
REMARK    2  A    between atoms: O_2  and  C_3
REMARK    3  A    between atoms: C_7  and  C_9
REMARK    4  A    between atoms: C_11  and  C_24
REMARK    5  A    between atoms: C_13  and  C_16
REMARK    6  A    between atoms: C_21  and  O_22
REMARK    7  A    between atoms: C_29  and  O_30
REMARK    8  A    between atoms: O_30  and  C_31
REMARK                            x       y       z     vdW  Elec       q    Type
REMARK                         _______ _______ _______ _____ _____    ______ ____
ROOT
ATOM      1  C   UNL     1      -0.838   0.728   4.700  0.00  0.00    +0.040 C 
ATOM      2  N   UNL     1      -1.164   1.289   3.598  0.00  0.00    -0.298 NA
ATOM      3  C   UNL     1      -2.001   2.479   3.501  0.00  0.00    +0.084 C 
ATOM      4  C   UNL     1      -2.432   2.229   5.861  0.00  0.00    -0.028 C 
ATOM      5  C   UNL     1      -1.277   1.240   6.044  0.00  0.00    +0.044 C 
ATOM      6  N   UNL     1      -2.064   3.179   4.793  0.00  0.00    +0.401 N 
ATOM      7  H   UNL     1      -2.768   3.924   4.742  0.00  0.00    -0.081 HD
ATOM      8  H   UNL     1      -1.146   3.588   5.003  0.00  0.00    -0.081 HD
ENDROOT
BRANCH   4   9
ATOM      9  C   UNL     1      -2.666   2.981   7.146  0.00  0.00    -0.018 A 
ATOM     10  C   UNL     1      -2.143   4.249   7.310  0.00  0.00    +0.025 A 
ATOM     11  C   UNL     1      -2.358   4.939   8.490  0.00  0.00    +0.041 A 
ATOM     12  C   UNL     1      -3.097   4.362   9.507  0.00  0.00    +0.023 A 
ATOM     13  C   UNL     1      -3.621   3.094   9.347  0.00  0.00    +0.047 A 
ATOM     14  C   UNL     1      -3.412   2.402   8.162  0.00  0.00    +0.119 A 
ATOM     15 CL   UNL     1      -1.700   6.533   8.693  0.00  0.00    -0.084 Cl
BRANCH  14  16
ATOM     16  O   UNL     1      -3.932   1.157   8.001  0.00  0.00    -0.507 OA
ATOM     17  H   UNL     1      -3.347   0.445   8.293  0.00  0.00    +0.292 HD
ENDBRANCH  14  16
ENDBRANCH   4   9
BRANCH   1  22
ATOM     18  C   UNL     1       1.230  -2.120   3.384  0.00  0.00    +0.121 A 
ATOM     19  C   UNL     1       1.599  -2.751   4.565  0.00  0.00    +0.045 A 
ATOM     20  C   UNL     1       1.176  -2.251   5.782  0.00  0.00    +0.004 A 
ATOM     21  C   UNL     1       0.390  -1.118   5.833  0.00  0.00    +0.010 A 
ATOM     22  C   UNL     1       0.008  -0.481   4.651  0.00  0.00    -0.001 A 
ATOM     23  C   UNL     1       0.435  -0.987   3.422  0.00  0.00    +0.055 A 
BRANCH  18  25
ATOM     24  C   UNL     1       2.464  -3.789   2.224  0.00  0.00    +0.277 C 
ATOM     25  O   UNL     1       1.648  -2.617   2.190  0.00  0.00    -0.495 OA
ENDBRANCH  18  25
ENDBRANCH   1  22
BRANCH   3  26
ATOM     26  C   UNL     1      -1.425   3.409   2.465  0.00  0.00    +0.001 A 
ATOM     27  C   UNL     1      -1.531   4.776   2.627  0.00  0.00    +0.007 A 
ATOM     28  C   UNL     1      -1.003   5.630   1.677  0.00  0.00    +0.000 A 
ATOM     29  C   UNL     1      -0.367   5.117   0.561  0.00  0.00    +0.004 A 
ATOM     30  C   UNL     1      -0.253   3.751   0.396  0.00  0.00    +0.046 A 
ATOM     31  C   UNL     1      -0.787   2.892   1.346  0.00  0.00    +0.123 A 
BRANCH  31  32
ATOM     32  O   UNL     1      -0.682   1.547   1.184  0.00  0.00    -0.495 OA
ATOM     33  C   UNL     1      -0.013   1.086   0.008  0.00  0.00    +0.277 C 
ENDBRANCH  31  32
ENDBRANCH   3  26
TORSDOF 6
