REMARK  Name = ZINC67432669
REMARK  12 active torsions:
REMARK  status: ('A' for Active; 'I' for Inactive)
REMARK    1  A    between atoms: C_1  and  C_2
REMARK    2  A    between atoms: C_3  and  C_15
REMARK    3  A    between atoms: N_10  and  C_11
REMARK    4  A    between atoms: C_11  and  C_12
REMARK    5  A    between atoms: C_15  and  N_16
REMARK    6  A    between atoms: N_16  and  C_17
REMARK    7  A    between atoms: C_17  and  C_19
REMARK    8  A    between atoms: C_17  and  C_23
REMARK    9  A    between atoms: C_19  and  C_20
REMARK   10  A    between atoms: C_20  and  C_21
REMARK   11  A    between atoms: C_20  and  C_22
REMARK   12  A    between atoms: N_27  and  C_28
REMARK                            x       y       z     vdW  Elec       q    Type
REMARK                         _______ _______ _______ _____ _____    ______ ____
ROOT
ATOM      1  C   UNL     1       0.727   1.400   0.334  0.00  0.00    +0.064 C 
ATOM      2  C   UNL     1       0.554  -0.095   0.252  0.00  0.00    +0.019 A 
ATOM      3  C   UNL     1       0.337  -0.785  -0.879  0.00  0.00    -0.036 A 
ATOM      4  C   UNL     1       0.232  -2.197  -0.506  0.00  0.00    +0.001 A 
ATOM      5  C   UNL     1       0.014  -3.377  -1.221  0.00  0.00    +0.010 A 
ATOM      6  C   UNL     1      -0.032  -4.572  -0.561  0.00  0.00    +0.001 A 
ATOM      7  C   UNL     1       0.138  -4.623   0.817  0.00  0.00    +0.002 A 
ATOM      8  C   UNL     1       0.353  -3.472   1.542  0.00  0.00    +0.026 A 
ATOM      9  C   UNL     1       0.403  -2.244   0.890  0.00  0.00    +0.050 A 
ATOM     10  N   UNL     1       0.602  -0.951   1.318  0.00  0.00    -0.335 N 
ENDROOT
BRANCH  10  11
ATOM     11  C   UNL     1       0.829  -0.551   2.709  0.00  0.00    +0.217 C 
BRANCH  11  12
ATOM     12  C   UNL     1      -0.494  -0.262   3.370  0.00  0.00    +0.230 C 
ATOM     13  O   UNL     1      -1.525  -0.379   2.742  0.00  0.00    -0.274 OA
ATOM     14  N   UNL     1      -0.532   0.126   4.661  0.00  0.00    -0.328 N 
ATOM     15  H   UNL     1       0.292   0.220   5.163  0.00  0.00    +0.145 HD
ATOM     16  H   UNL     1      -1.383   0.312   5.086  0.00  0.00    +0.145 HD
ENDBRANCH  11  12
ENDBRANCH  10  11
BRANCH   3  17
ATOM     17  C   UNL     1       0.222  -0.214  -2.269  0.00  0.00    -0.043 C 
BRANCH  17  18
ATOM     18  N   UNL     1       1.551  -0.176  -2.894  0.00  0.00    +0.388 N 
ATOM     19  H   UNL     1       2.141   0.469  -2.391  0.00  0.00    -0.084 HD
ATOM     20  H   UNL     1       1.961  -1.097  -2.868  0.00  0.00    -0.084 HD
BRANCH  18  21
ATOM     21  C   UNL     1       1.423   0.263  -4.290  0.00  0.00    -0.002 C 
BRANCH  21  22
ATOM     22  C   UNL     1       0.918   1.683  -4.325  0.00  0.00    +0.114 A 
ATOM     23  N   UNL     1       1.350   2.671  -3.584  0.00  0.00    -0.221 NA
ATOM     24  C   UNL     1       0.680   3.784  -3.880  0.00  0.00    +0.245 A 
ATOM     25  N   UNL     1      -0.192   3.518  -4.817  0.00  0.00    -0.159 NA
ATOM     26  N   UNL     1      -0.051   2.156  -5.128  0.00  0.00    -0.254 N 
ATOM     27  C   UNL     1      -0.811   1.400  -6.126  0.00  0.00    +0.174 C 
ENDBRANCH  21  22
BRANCH  21  28
ATOM     28  C   UNL     1       2.790   0.191  -4.974  0.00  0.00    -0.005 C 
BRANCH  28  29
ATOM     29  C   UNL     1       3.252  -1.266  -5.038  0.00  0.00    -0.018 C 
ATOM     30  C   UNL     1       2.317  -2.057  -5.956  0.00  0.00    +0.007 C 
ATOM     31  C   UNL     1       4.678  -1.325  -5.589  0.00  0.00    +0.007 C 
ENDBRANCH  28  29
ENDBRANCH  21  28
ENDBRANCH  18  21
ENDBRANCH  17  18
ENDBRANCH   3  17
TORSDOF 8
