REMARK  Name = ZINC37808987
REMARK  8 active torsions:
REMARK  status: ('A' for Active; 'I' for Inactive)
REMARK    1  A    between atoms: C_1  and  N_2
REMARK    2  A    between atoms: N_2  and  C_3
REMARK    3  A    between atoms: N_2  and  S_4
REMARK    4  A    between atoms: S_4  and  N_7
REMARK    5  A    between atoms: C_13  and  C_15
REMARK    6  A    between atoms: C_15  and  C_17
REMARK    7  A    between atoms: C_15  and  N_21
REMARK    8  A    between atoms: C_17  and  C_18
REMARK                            x       y       z     vdW  Elec       q    Type
REMARK                         _______ _______ _______ _____ _____    ______ ____
ROOT
ATOM      1  N   UNL     1       1.581  -1.045  -1.877  0.00  0.00    -0.163 NA
ATOM      2  C   UNL     1       2.276  -0.043  -2.697  0.00  0.00    +0.129 C 
ATOM      3  C   UNL     1       3.549   0.393  -1.963  0.00  0.00    +0.125 C 
ATOM      4  N   UNL     1       4.283  -0.808  -1.540  0.00  0.00    -0.300 N 
ATOM      5  C   UNL     1       3.588  -1.810  -0.720  0.00  0.00    +0.125 C 
ATOM      6  C   UNL     1       2.316  -2.244  -1.449  0.00  0.00    +0.129 C 
ATOM      7  C   UNL     1       5.569  -0.988  -1.898  0.00  0.00    +0.202 C 
ATOM      8  O   UNL     1       6.132  -0.154  -2.576  0.00  0.00    -0.277 OA
ENDROOT
BRANCH   1   9
ATOM      9  S   UNL     1      -0.000  -0.824  -1.437  0.00  0.00    +0.099 S 
ATOM     10  O   UNL     1      -0.531  -2.115  -1.167  0.00  0.00    -0.141 OA
ATOM     11  O   UNL     1      -0.572   0.049  -2.401  0.00  0.00    -0.141 OA
BRANCH   9  13
ATOM     12  C   UNL     1      -0.018   1.461   0.010  0.00  0.00    +0.132 C 
ATOM     13  N   UNL     1       0.002  -0.004   0.002  0.00  0.00    -0.172 NA
ATOM     14  C   UNL     1       0.024  -0.743   1.267  0.00  0.00    +0.132 C 
ENDBRANCH   9  13
ENDBRANCH   1   9
BRANCH   7  15
ATOM     15  C   UNL     1       6.309  -2.225  -1.457  0.00  0.00    +0.022 C 
BRANCH  15  16
ATOM     16  N   UNL     1       7.474  -2.435  -2.326  0.00  0.00    +0.386 N 
ATOM     17  H   UNL     1       7.969  -3.263  -2.031  0.00  0.00    -0.089 HD
ATOM     18  H   UNL     1       7.166  -2.549  -3.280  0.00  0.00    -0.089 HD
ATOM     19  H   UNL     1       8.088  -1.636  -2.264  0.00  0.00    -0.089 HD
ENDBRANCH  15  16
BRANCH  15  20
ATOM     20  C   UNL     1       6.776  -2.051  -0.011  0.00  0.00    +0.088 C 
BRANCH  20  21
ATOM     21  C   UNL     1       7.406  -3.333   0.471  0.00  0.00    +0.209 C 
ATOM     22  O   UNL     1       7.476  -4.290  -0.270  0.00  0.00    -0.276 OA
ATOM     23  N   UNL     1       7.894  -3.414   1.725  0.00  0.00    -0.329 N 
ATOM     24  H   UNL     1       7.838  -2.648   2.317  0.00  0.00    +0.145 HD
ATOM     25  H   UNL     1       8.300  -4.239   2.035  0.00  0.00    +0.145 HD
ENDBRANCH  20  21
ENDBRANCH  15  20
ENDBRANCH   7  15
TORSDOF 6
