REMARK  Name = ZINC06193322
REMARK  19 active torsions:
REMARK  status: ('A' for Active; 'I' for Inactive)
REMARK    1  A    between atoms: C_1  and  C_2
REMARK    2  A    between atoms: C_2  and  N_69
REMARK    3  A    between atoms: C_3  and  C_4
REMARK    4  A    between atoms: C_3  and  N_69
REMARK    5  A    between atoms: C_5  and  C_6
REMARK    6  A    between atoms: C_5  and  N_69
REMARK    7  A    between atoms: C_6  and  N_7
REMARK    8  A    between atoms: N_7  and  C_8
REMARK    9  A    between atoms: N_7  and  C_23
REMARK   10  A    between atoms: C_8  and  C_9
REMARK   11  A    between atoms: C_13  and  C_22
REMARK   12  A    between atoms: C_15  and  C_21
REMARK   13  A    between atoms: C_23  and  N_25
REMARK   14  A    between atoms: N_25  and  C_26
REMARK   15  A    between atoms: C_26  and  C_27
REMARK   16  A    between atoms: C_27  and  C_28
REMARK   17  A    between atoms: C_28  and  N_71
REMARK   18  A    between atoms: C_29  and  N_71
REMARK   19  A    between atoms: C_30  and  N_71
REMARK                            x       y       z     vdW  Elec       q    Type
REMARK                         _______ _______ _______ _____ _____    ______ ____
ROOT
ATOM      1  N   UNL     1      -1.263   8.154  -2.412  0.00  0.00    -0.310 N 
ENDROOT
BRANCH   1   2
ATOM      2  C   UNL     1      -0.423   8.563  -3.383  0.00  0.00    +0.133 C 
ATOM      3  S   UNL     1       1.269   8.413  -3.171  0.00  0.00    -0.019 S 
BRANCH   2   4
ATOM      4  N   UNL     1      -0.916   9.091  -4.522  0.00  0.00    -0.326 N 
ATOM      5  H   UNL     1      -1.874   9.176  -4.642  0.00  0.00    +0.148 HD
BRANCH   4   6
ATOM      6  C   UNL     1      -0.003   9.536  -5.578  0.00  0.00    +0.101 C 
BRANCH   6   7
ATOM      7  C   UNL     1      -0.813  10.090  -6.752  0.00  0.00    +0.000 C 
BRANCH   7   8
ATOM      8  C   UNL     1       0.141  10.554  -7.855  0.00  0.00    -0.078 C 
BRANCH   8  11
ATOM      9  C   UNL     1      -1.351  12.311  -8.598  0.00  0.00    -0.097 C 
ATOM     10  C   UNL     1       0.223  11.322 -10.150  0.00  0.00    -0.097 C 
ATOM     11  N   UNL     1      -0.656  11.066  -8.989  0.00  0.00    +0.376 N 
ATOM     12  H   UNL     1      -1.357  10.362  -9.250  0.00  0.00    -0.083 HD
ENDBRANCH   8  11
ENDBRANCH   7   8
ENDBRANCH   6   7
ENDBRANCH   4   6
ENDBRANCH   2   4
ENDBRANCH   1   2
BRANCH   1  13
ATOM     13  C   UNL     1      -2.711   8.282  -2.593  0.00  0.00    +0.088 C 
BRANCH  13  14
ATOM     14  C   UNL     1      -3.172   9.642  -2.065  0.00  0.00    -0.060 C 
BRANCH  14  15
ATOM     15  N   UNL     1      -4.630   9.765  -2.275  0.00  0.00    +0.380 N 
ATOM     16  H   UNL     1      -4.846   9.553  -3.256  0.00  0.00    -0.082 HD
BRANCH  15  18
ATOM     17  C   UNL     1      -5.033   9.076   0.065  0.00  0.00    -0.017 C 
ATOM     18  C   UNL     1      -5.348   8.806  -1.408  0.00  0.00    -0.082 C 
ENDBRANCH  15  18
BRANCH  15  19
ATOM     19  C   UNL     1      -5.069  11.144  -1.974  0.00  0.00    -0.082 C 
ATOM     20  C   UNL     1      -6.478  11.345  -2.538  0.00  0.00    -0.017 C 
ENDBRANCH  15  19
ENDBRANCH  14  15
ENDBRANCH  13  14
ENDBRANCH   1  13
BRANCH   1  21
ATOM     21  C   UNL     1      -0.728   7.581  -1.175  0.00  0.00    +0.147 C 
BRANCH  21  22
ATOM     22  C   UNL     1      -0.586   6.089  -1.333  0.00  0.00    +0.035 A 
ATOM     23  C   UNL     1       0.604   5.559  -1.711  0.00  0.00    +0.020 A 
ATOM     24  C   UNL     1       0.708   4.106  -1.856  0.00  0.00    -0.001 A 
ATOM     25  C   UNL     1       1.909   3.502  -2.243  0.00  0.00    +0.013 A 
ATOM     26  C   UNL     1       1.974   2.143  -2.368  0.00  0.00    -0.050 A 
ATOM     27  C   UNL     1       0.859   1.356  -2.114  0.00  0.00    +0.008 A 
ATOM     28  C   UNL     1      -0.336   1.930  -1.737  0.00  0.00    -0.026 A 
ATOM     29  C   UNL     1      -0.424   3.312  -1.597  0.00  0.00    +0.052 A 
ATOM     30  N   UNL     1      -1.605   3.912  -1.216  0.00  0.00    -0.322 N 
ATOM     31  H   UNL     1      -2.409   3.346  -1.033  0.00  0.00    +0.169 HD
ATOM     32  C   UNL     1      -1.692   5.247  -1.086  0.00  0.00    +0.254 A 
ATOM     33  O   UNL     1      -2.752   5.744  -0.747  0.00  0.00    -0.268 OA
ATOM     34  C   UNL     1      -1.540   1.064  -1.470  0.00  0.00    +0.046 C 
ATOM     35  C   UNL     1       3.268   1.493  -2.785  0.00  0.00    +0.044 C 
ENDBRANCH  21  22
ENDBRANCH   1  21
TORSDOF 13
