REMARK  Name = ZINC45070029
REMARK  8 active torsions:
REMARK  status: ('A' for Active; 'I' for Inactive)
REMARK    1  A    between atoms: C_1  and  C_2
REMARK    2  A    between atoms: C_2  and  C_4
REMARK    3  A    between atoms: C_2  and  N_10
REMARK    4  A    between atoms: N_10  and  C_11
REMARK    5  A    between atoms: C_11  and  C_12
REMARK    6  A    between atoms: C_12  and  C_13
REMARK    7  A    between atoms: C_13  and  S_14
REMARK    8  A    between atoms: S_14  and  N_17
REMARK                            x       y       z     vdW  Elec       q    Type
REMARK                         _______ _______ _______ _____ _____    ______ ____
ROOT
ATOM      1  N   UNL     1       0.690  -0.478  -1.207  0.00  0.00    +0.384 N 
ATOM      2  H   UNL     1       0.632  -1.484  -1.254  0.00  0.00    -0.085 HD
ATOM      3  H   UNL     1       0.251  -0.077  -2.022  0.00  0.00    -0.085 HD
ENDROOT
BRANCH   1   5
ATOM      4  C   UNL     1      -0.019   1.526   0.010  0.00  0.00    -0.008 C 
ATOM      5  C   UNL     1       0.002  -0.004   0.002  0.00  0.00    -0.036 C 
BRANCH   5   6
ATOM      6  C   UNL     1      -1.412  -0.526   0.013  0.00  0.00    -0.011 A 
ATOM      7  C   UNL     1      -2.111  -1.077   1.035  0.00  0.00    +0.026 A 
ATOM      8  C   UNL     1      -3.411  -1.490   0.812  0.00  0.00    +0.023 A 
ATOM      9  C   UNL     1      -3.949  -1.330  -0.421  0.00  0.00    +0.046 A 
ATOM     10  S   UNL     1      -2.604  -0.570  -1.316  0.00  0.00    -0.102 S 
ATOM     11 BR   UNL     1      -1.318  -1.280   2.740  0.00  0.00    -0.050 Br
ENDBRANCH   5   6
ENDBRANCH   1   5
BRANCH   1  12
ATOM     12  C   UNL     1       2.100  -0.070  -1.159  0.00  0.00    -0.080 C 
BRANCH  12  13
ATOM     13  C   UNL     1       2.816  -0.564  -2.418  0.00  0.00    +0.005 C 
BRANCH  13  14
ATOM     14  C   UNL     1       4.285  -0.139  -2.368  0.00  0.00    +0.183 C 
BRANCH  14  15
ATOM     15  S   UNL     1       5.135  -0.724  -3.861  0.00  0.00    +0.027 S 
ATOM     16  O   UNL     1       5.218  -2.143  -3.852  0.00  0.00    -0.158 OA
ATOM     17  O   UNL     1       4.647  -0.034  -5.003  0.00  0.00    -0.158 OA
BRANCH  15  18
ATOM     18  N   UNL     1       6.699  -0.208  -3.690  0.00  0.00    -0.208 NA
ATOM     19  H   UNL     1       6.961   0.293  -2.902  0.00  0.00    +0.144 HD
ATOM     20  H   UNL     1       7.353  -0.407  -4.379  0.00  0.00    +0.144 HD
ENDBRANCH  15  18
ENDBRANCH  14  15
ENDBRANCH  13  14
ENDBRANCH  12  13
ENDBRANCH   1  12
TORSDOF 7
