REMARK  Name = ZINC55175500
REMARK  6 active torsions:
REMARK  status: ('A' for Active; 'I' for Inactive)
REMARK    1  A    between atoms: C_1  and  C_2
REMARK    2  A    between atoms: C_2  and  N_3
REMARK    3  A    between atoms: C_7  and  C_9
REMARK    4  A    between atoms: C_9  and  N_10
REMARK    5  A    between atoms: N_10  and  S_11
REMARK    6  A    between atoms: S_11  and  C_14
REMARK                            x       y       z     vdW  Elec       q    Type
REMARK                         _______ _______ _______ _____ _____    ______ ____
ROOT
ATOM      1  S   UNL     1       4.522  -2.171   0.330  0.00  0.00    +0.058 S 
ATOM      2  O   UNL     1       4.950  -1.311   1.377  0.00  0.00    -0.153 OA
ATOM      3  O   UNL     1       4.446  -3.582   0.487  0.00  0.00    -0.153 OA
ENDROOT
BRANCH   1   4
ATOM      4  C   UNL     1       5.591  -1.873  -1.038  0.00  0.00    +0.107 A 
ATOM      5  C   UNL     1       5.763  -2.847  -2.004  0.00  0.00    +0.032 A 
ATOM      6  C   UNL     1       6.601  -2.621  -3.081  0.00  0.00    +0.049 A 
ATOM      7  C   UNL     1       7.270  -1.415  -3.192  0.00  0.00    +0.142 A 
ATOM      8  C   UNL     1       7.097  -0.433  -2.218  0.00  0.00    +0.078 A 
ATOM      9  C   UNL     1       6.253  -0.663  -1.145  0.00  0.00    +0.055 A 
ATOM     10  N   UNL     1       7.783   0.784  -2.342  0.00  0.00    -0.280 N 
ATOM     11  C   UNL     1       8.335   1.106  -3.532  0.00  0.00    +0.255 C 
ATOM     12  O   UNL     1       8.960   2.139  -3.653  0.00  0.00    -0.272 OA
ATOM     13  C   UNL     1       8.173   0.176  -4.707  0.00  0.00    +0.325 C 
ATOM     14  O   UNL     1       8.096  -1.175  -4.245  0.00  0.00    -0.481 OA
ATOM     15  H   UNL     1       7.859   1.385  -1.585  0.00  0.00    +0.155 HD
ENDBRANCH   1   4
BRANCH   1  16
ATOM     16  N   UNL     1       3.009  -1.663  -0.111  0.00  0.00    -0.191 NA
ATOM     17  H   UNL     1       2.595  -0.916   0.349  0.00  0.00    +0.148 HD
BRANCH  16  18
ATOM     18  C   UNL     1       2.296  -2.340  -1.197  0.00  0.00    +0.090 C 
BRANCH  18  23
ATOM     19  N   UNL     1       0.690  -0.478  -1.207  0.00  0.00    +0.382 N 
ATOM     20  C   UNL     1      -0.098  -0.111  -2.403  0.00  0.00    -0.078 C 
ATOM     21  C   UNL     1       0.088  -1.300  -3.378  0.00  0.00    -0.020 C 
ATOM     22  C   UNL     1       0.095  -2.507  -2.403  0.00  0.00    -0.016 C 
ATOM     23  C   UNL     1       0.818  -1.946  -1.161  0.00  0.00    -0.053 C 
ATOM     24  H   UNL     1       1.606  -0.058  -1.264  0.00  0.00    -0.081 HD
BRANCH  19  26
ATOM     25  C   UNL     1      -0.019   1.526   0.010  0.00  0.00    -0.017 C 
ATOM     26  C   UNL     1       0.002  -0.004   0.002  0.00  0.00    -0.082 C 
ENDBRANCH  19  26
ENDBRANCH  18  23
ENDBRANCH  16  18
ENDBRANCH   1  16
TORSDOF 5
