REMARK  Name = ZINC08453079
REMARK  10 active torsions:
REMARK  status: ('A' for Active; 'I' for Inactive)
REMARK    1  A    between atoms: C_1  and  C_2
REMARK    2  A    between atoms: C_5  and  S_8
REMARK    3  A    between atoms: S_8  and  O_11
REMARK    4  A    between atoms: O_11  and  C_12
REMARK    5  A    between atoms: C_15  and  C_20
REMARK    6  A    between atoms: C_17  and  O_18
REMARK    7  A    between atoms: O_18  and  C_19
REMARK    8  A    between atoms: C_30  and  C_32
REMARK    9  A    between atoms: C_32  and  C_33
REMARK   10  A    between atoms: C_32  and  C_34
REMARK                            x       y       z     vdW  Elec       q    Type
REMARK                         _______ _______ _______ _____ _____    ______ ____
ROOT
ATOM      1  C   UNL     1      -1.177   3.532   1.889  0.00  0.00    +0.198 A 
ATOM      2  C   UNL     1      -1.463   4.880   1.711  0.00  0.00    +0.053 A 
ATOM      3  C   UNL     1      -0.761   5.835   2.411  0.00  0.00    +0.012 A 
ATOM      4  C   UNL     1       0.246   5.448   3.307  0.00  0.00    -0.021 A 
ATOM      5  C   UNL     1       0.534   4.087   3.485  0.00  0.00    +0.057 A 
ATOM      6  C   UNL     1      -0.180   3.138   2.782  0.00  0.00    +0.165 A 
ENDROOT
BRANCH   4   7
ATOM      7  C   UNL     1       0.994   6.461   4.054  0.00  0.00    +0.024 C 
ATOM      8  C   UNL     1       0.360   7.602   4.493  0.00  0.00    +0.081 C 
ATOM      9  C   UNL     1       1.115   8.742   5.084  0.00  0.00    +0.152 C 
ATOM     10  N   UNL     1       2.205   8.593   5.788  0.00  0.00    -0.283 NA
ATOM     11  N   UNL     1       0.537  10.001   4.809  0.00  0.00    -0.152 N 
ATOM     12  C   UNL     1      -0.803  10.030   4.487  0.00  0.00    +0.181 C 
ATOM     13  N   UNL     1      -1.611   9.011   4.334  0.00  0.00    -0.152 NA
ATOM     14  C   UNL     1      -1.113   7.763   4.397  0.00  0.00    +0.273 C 
ATOM     15  O   UNL     1      -1.852   6.792   4.381  0.00  0.00    -0.268 OA
ATOM     16  S   UNL     1      -1.103  11.768   4.304  0.00  0.00    -0.038 S 
ATOM     17  C   UNL     1       0.562  12.330   4.626  0.00  0.00    +0.102 C 
ATOM     18  N   UNL     1       1.192  11.213   4.851  0.00  0.00    -0.169 NA
ATOM     19  H   UNL     1       2.658   9.370   6.151  0.00  0.00    +0.188 HD
BRANCH  17  20
ATOM     20  C   UNL     1       1.101  13.738   4.635  0.00  0.00    +0.040 C 
ATOM     21  C   UNL     1       0.861  14.366   6.010  0.00  0.00    +0.014 C 
ATOM     22  C   UNL     1       2.602  13.712   4.341  0.00  0.00    +0.014 C 
ENDBRANCH  17  20
ENDBRANCH   4   7
BRANCH   6  23
ATOM     23  O   UNL     1       0.093   1.817   2.957  0.00  0.00    -0.491 OA
ATOM     24  C   UNL     1       1.126   1.484   3.886  0.00  0.00    +0.277 C 
ENDBRANCH   6  23
BRANCH   1  25
ATOM     25  O   UNL     1      -1.873   2.595   1.196  0.00  0.00    -0.339 OA
BRANCH  25  26
ATOM     26  S   UNL     1      -1.255   2.231  -0.146  0.00  0.00    +0.151 S 
ATOM     27  O   UNL     1      -0.758   3.439  -0.705  0.00  0.00    -0.131 OA
ATOM     28  O   UNL     1      -2.201   1.413  -0.820  0.00  0.00    -0.131 OA
BRANCH  26  33
ATOM     29  C   UNL     1       3.545  -1.250   0.966  0.00  0.00    +0.044 C 
ATOM     30  C   UNL     1       2.346  -0.381   0.690  0.00  0.00    -0.050 A 
ATOM     31  C   UNL     1       1.102  -0.956   0.512  0.00  0.00    +0.005 A 
ATOM     32  C   UNL     1       0.002  -0.158   0.259  0.00  0.00    +0.031 A 
ATOM     33  C   UNL     1       0.146   1.215   0.184  0.00  0.00    +0.128 A 
ATOM     34  C   UNL     1       1.390   1.790   0.364  0.00  0.00    +0.031 A 
ATOM     35  C   UNL     1       2.490   0.992   0.616  0.00  0.00    +0.005 A 
ENDBRANCH  26  33
ENDBRANCH  25  26
ENDBRANCH   1  25
TORSDOF 6
