REMARK  Name = ZINC12747168
REMARK  11 active torsions:
REMARK  status: ('A' for Active; 'I' for Inactive)
REMARK    1  A    between atoms: C_1  and  C_2
REMARK    2  A    between atoms: C_4  and  C_27
REMARK    3  A    between atoms: C_5  and  N_9
REMARK    4  A    between atoms: C_6  and  C_8
REMARK    5  A    between atoms: C_10  and  C_12
REMARK    6  A    between atoms: C_12  and  N_53
REMARK    7  A    between atoms: C_13  and  N_53
REMARK    8  A    between atoms: C_14  and  C_15
REMARK    9  A    between atoms: C_14  and  N_53
REMARK   10  A    between atoms: C_15  and  C_16
REMARK   11  A    between atoms: N_18  and  C_19
REMARK                            x       y       z     vdW  Elec       q    Type
REMARK                         _______ _______ _______ _____ _____    ______ ____
ROOT
ATOM      1  C   UNL     1      -6.128   3.255  -0.105  0.00  0.00    -0.096 C 
ATOM      2  N   UNL     1      -5.731   4.014  -1.309  0.00  0.00    +0.384 N 
ATOM      3  H   UNL     1      -5.546   3.355  -2.074  0.00  0.00    -0.082 HD
ENDROOT
BRANCH   2   4
ATOM      4  C   UNL     1      -4.504   4.790  -1.036  0.00  0.00    +0.018 C 
BRANCH   4   6
ATOM      5  N   UNL     1      -2.119   4.305  -0.595  0.00  0.00    -0.287 N 
ATOM      6  C   UNL     1      -3.357   3.833  -0.841  0.00  0.00    +0.201 C 
ATOM      7  O   UNL     1      -3.547   2.637  -0.907  0.00  0.00    -0.278 OA
ATOM      8  H   UNL     1      -1.976   5.258  -0.482  0.00  0.00    +0.155 HD
BRANCH   5  13
ATOM      9  C   UNL     1       2.262   0.720  -0.217  0.00  0.00    +0.044 C 
ATOM     10  C   UNL     1       1.098   1.672  -0.318  0.00  0.00    -0.050 A 
ATOM     11  C   UNL     1       0.281   1.648  -1.433  0.00  0.00    +0.008 A 
ATOM     12  C   UNL     1      -0.783   2.523  -1.530  0.00  0.00    -0.029 A 
ATOM     13  C   UNL     1      -1.038   3.421  -0.502  0.00  0.00    +0.039 A 
ATOM     14  C   UNL     1      -0.215   3.443   0.617  0.00  0.00    -0.029 A 
ATOM     15  C   UNL     1       0.850   2.569   0.706  0.00  0.00    +0.008 A 
ATOM     16  C   UNL     1      -0.484   4.420   1.732  0.00  0.00    +0.045 C 
ATOM     17  C   UNL     1      -1.670   2.499  -2.748  0.00  0.00    +0.045 C 
ENDBRANCH   5  13
ENDBRANCH   4   6
ENDBRANCH   2   4
BRANCH   2  18
ATOM     18  C   UNL     1      -6.824   4.924  -1.715  0.00  0.00    -0.069 C 
BRANCH  18  19
ATOM     19  C   UNL     1      -8.007   4.086  -2.205  0.00  0.00    +0.077 C 
BRANCH  19  20
ATOM     20  C   UNL     1      -9.122   5.000  -2.643  0.00  0.00    +0.215 C 
ATOM     21  O   UNL     1      -8.984   6.203  -2.570  0.00  0.00    -0.276 OA
ATOM     22  N   UNL     1     -10.273   4.481  -3.115  0.00  0.00    -0.284 N 
ATOM     23  H   UNL     1     -10.363   3.522  -3.224  0.00  0.00    +0.155 HD
BRANCH  22  24
ATOM     24  C   UNL     1     -11.337   5.327  -3.449  0.00  0.00    +0.053 A 
ATOM     25  C   UNL     1     -11.086   6.616  -3.899  0.00  0.00    +0.044 A 
ATOM     26  C   UNL     1     -12.139   7.447  -4.233  0.00  0.00    +0.043 A 
ATOM     27  C   UNL     1     -13.443   6.998  -4.109  0.00  0.00    +0.021 A 
ATOM     28  C   UNL     1     -13.696   5.717  -3.657  0.00  0.00    +0.023 A 
ATOM     29  C   UNL     1     -12.647   4.879  -3.326  0.00  0.00    +0.062 A 
ATOM     30 CL   UNL     1     -12.965   3.270  -2.758  0.00  0.00    -0.082 Cl
ATOM     31 CL   UNL     1     -11.827   9.057  -4.802  0.00  0.00    -0.083 Cl
ENDBRANCH  22  24
ENDBRANCH  19  20
ENDBRANCH  18  19
ENDBRANCH   2  18
TORSDOF 7
