REMARK  Name = ZINC39356214
REMARK  6 active torsions:
REMARK  status: ('A' for Active; 'I' for Inactive)
REMARK    1  A    between atoms: C_1  and  C_2
REMARK    2  A    between atoms: C_2  and  N_3
REMARK    3  A    between atoms: C_4  and  C_24
REMARK    4  A    between atoms: C_8  and  S_10
REMARK    5  A    between atoms: S_10  and  C_11
REMARK    6  A    between atoms: C_11  and  C_12
REMARK                            x       y       z     vdW  Elec       q    Type
REMARK                         _______ _______ _______ _____ _____    ______ ____
ROOT
ATOM      1  N   UNL     1       0.593  -0.522   0.954  0.00  0.00    +0.410 N 
ATOM      2  C   UNL     1       0.622  -1.972   1.284  0.00  0.00    +0.049 C 
ATOM      3  N   UNL     1       1.787  -2.079   2.200  0.00  0.00    -0.267 NA
ATOM      4  N   UNL     1       2.772  -1.143   1.651  0.00  0.00    -0.262 NA
ATOM      5  C   UNL     1       2.022  -0.146   0.860  0.00  0.00    +0.077 C 
ATOM      6  H   UNL     1       2.151  -3.019   2.215  0.00  0.00    +0.139 HD
ATOM      7  H   UNL     1       3.449  -1.625   1.078  0.00  0.00    +0.140 HD
ATOM      8  H   UNL     1       0.137  -0.000   1.688  0.00  0.00    -0.075 HD
ENDROOT
BRANCH   2   9
ATOM      9  C   UNL     1      -0.649  -2.387   1.979  0.00  0.00    -0.046 A 
ATOM     10  C   UNL     1      -1.519  -3.267   1.362  0.00  0.00    +0.005 A 
ATOM     11  C   UNL     1      -2.685  -3.647   2.000  0.00  0.00    +0.020 A 
ATOM     12  C   UNL     1      -2.981  -3.148   3.256  0.00  0.00    +0.041 A 
ATOM     13  C   UNL     1      -2.110  -2.268   3.873  0.00  0.00    +0.020 A 
ATOM     14  C   UNL     1      -0.942  -1.892   3.237  0.00  0.00    +0.005 A 
ATOM     15 CL   UNL     1      -4.445  -3.626   4.057  0.00  0.00    -0.084 Cl
ENDBRANCH   2   9
BRANCH   1  17
ATOM     16  C   UNL     1      -0.109   1.197  -0.642  0.00  0.00    -0.017 C 
ATOM     17  C   UNL     1      -0.084  -0.300  -0.331  0.00  0.00    -0.076 C 
ENDBRANCH   1  17
BRANCH   5  18
ATOM     18  S   UNL     1       2.275   1.512   1.548  0.00  0.00    -0.152 S 
BRANCH  18  19
ATOM     19  C   UNL     1       1.728   1.361   3.271  0.00  0.00    +0.143 C 
BRANCH  19  20
ATOM     20  C   UNL     1       1.887   2.688   3.968  0.00  0.00    +0.120 A 
ATOM     21  N   UNL     1       1.533   2.775   5.276  0.00  0.00    -0.310 N 
ATOM     22  H   UNL     1       1.188   1.993   5.734  0.00  0.00    +0.170 HD
ATOM     23  C   UNL     1       1.657   3.944   5.947  0.00  0.00    +0.259 A 
ATOM     24  O   UNL     1       1.345   4.037   7.120  0.00  0.00    -0.267 OA
ATOM     25  C   UNL     1       2.186   5.098   5.204  0.00  0.00    +0.065 A 
ATOM     26  C   UNL     1       2.353   6.346   5.801  0.00  0.00    +0.015 A 
ATOM     27  C   UNL     1       2.852   7.393   5.058  0.00  0.00    +0.001 A 
ATOM     28  C   UNL     1       3.188   7.214   3.723  0.00  0.00    +0.002 A 
ATOM     29  C   UNL     1       3.031   5.989   3.114  0.00  0.00    +0.028 A 
ATOM     30  C   UNL     1       2.527   4.912   3.846  0.00  0.00    +0.078 A 
ATOM     31  N   UNL     1       2.361   3.687   3.288  0.00  0.00    -0.233 NA
ENDBRANCH  19  20
ENDBRANCH  18  19
ENDBRANCH   5  18
TORSDOF 5
