REMARK  Name = ZINC11592627
REMARK  15 active torsions:
REMARK  status: ('A' for Active; 'I' for Inactive)
REMARK    1  A    between atoms: C_1  and  C_2
REMARK    2  A    between atoms: C_2  and  C_3
REMARK    3  A    between atoms: C_3  and  C_4
REMARK    4  A    between atoms: C_7  and  C_11
REMARK    5  A    between atoms: C_10  and  N_61
REMARK    6  A    between atoms: N_13  and  C_14
REMARK    7  A    between atoms: C_14  and  C_16
REMARK    8  A    between atoms: C_14  and  C_32
REMARK    9  A    between atoms: C_18  and  O_31
REMARK   10  A    between atoms: C_20  and  O_30
REMARK   11  A    between atoms: C_22  and  O_29
REMARK   12  A    between atoms: C_24  and  S_27
REMARK   13  A    between atoms: S_27  and  C_28
REMARK   14  A    between atoms: C_32  and  C_34
REMARK   15  A    between atoms: C_32  and  O_35
REMARK                            x       y       z     vdW  Elec       q    Type
REMARK                         _______ _______ _______ _____ _____    ______ ____
ROOT
ATOM      1  C   UNL     1       1.389   1.872  -0.209  0.00  0.00    +0.132 C 
ENDROOT
BRANCH   1   2
ATOM      2  C   UNL     1       2.492   1.440  -1.178  0.00  0.00    +0.173 C 
ATOM      3  C   UNL     1       3.850   1.901  -0.644  0.00  0.00    +0.176 C 
ATOM      4  C   UNL     1       4.120   1.219   0.701  0.00  0.00    +0.177 C 
ATOM      5  C   UNL     1       4.054  -0.300   0.513  0.00  0.00    +0.184 C 
ATOM      6  C   UNL     1       2.688  -0.676  -0.065  0.00  0.00    +0.207 C 
ATOM      7  O   UNL     1       2.488   0.016  -1.300  0.00  0.00    -0.356 OA
BRANCH   6   8
ATOM      8  S   UNL     1       2.626  -2.465  -0.357  0.00  0.00    -0.131 S 
ATOM      9  C   UNL     1       0.918  -2.764  -0.889  0.00  0.00    +0.087 C 
ENDBRANCH   6   8
BRANCH   5  10
ATOM     10  O   UNL     1       5.084  -0.715  -0.386  0.00  0.00    -0.386 OA
ATOM     11  H   UNL     1       5.102  -1.667  -0.551  0.00  0.00    +0.210 HD
ENDBRANCH   5  10
BRANCH   4  12
ATOM     12  O   UNL     1       5.418   1.587   1.172  0.00  0.00    -0.386 OA
ATOM     13  H   UNL     1       5.655   1.190   2.021  0.00  0.00    +0.210 HD
ENDBRANCH   4  12
BRANCH   3  14
ATOM     14  O   UNL     1       3.838   3.319  -0.466  0.00  0.00    -0.387 OA
ATOM     15  H   UNL     1       4.669   3.680  -0.129  0.00  0.00    +0.210 HD
ENDBRANCH   3  14
ENDBRANCH   1   2
BRANCH   1  18
ATOM     16  C   UNL     1       1.408   3.903   1.138  0.00  0.00    +0.200 C 
ATOM     17  O   UNL     1       1.327   3.212   2.131  0.00  0.00    -0.278 OA
ATOM     18  N   UNL     1       1.395   3.332  -0.083  0.00  0.00    -0.309 N 
ATOM     19  H   UNL     1       1.389   3.887  -0.878  0.00  0.00    +0.149 HD
BRANCH  16  22
ATOM     20  C   UNL     1       2.494   6.958   2.848  0.00  0.00    -0.029 C 
ATOM     21  C   UNL     1       2.871   5.767   1.924  0.00  0.00    -0.005 C 
ATOM     22  C   UNL     1       1.523   5.400   1.268  0.00  0.00    +0.019 C 
ATOM     23  C   UNL     1       1.076   6.553   3.322  0.00  0.00    -0.075 C 
ATOM     24  C   UNL     1      -0.454   4.830   2.553  0.00  0.00    -0.095 C 
ATOM     25  N   UNL     1       0.458   5.927   2.136  0.00  0.00    +0.386 N 
ATOM     26  H   UNL     1      -0.081   6.633   1.621  0.00  0.00    -0.081 HD
BRANCH  20  27
ATOM     27  C   UNL     1       3.458   7.063   4.031  0.00  0.00    +0.001 C 
BRANCH  27  29
ATOM     28  C   UNL     1       4.002   8.332   6.113  0.00  0.00    +0.004 C 
ATOM     29  C   UNL     1       3.037   8.227   4.930  0.00  0.00    -0.003 C 
ENDBRANCH  27  29
ENDBRANCH  20  27
ENDBRANCH  16  22
ENDBRANCH   1  18
BRANCH   1  30
ATOM     30  C   UNL     1       0.032   1.411  -0.743  0.00  0.00    +0.134 C 
ATOM     31  C   UNL     1      -1.068   1.823   0.238  0.00  0.00    +0.039 C 
BRANCH  30  32
ATOM     32  O   UNL     1      -0.211   2.018  -2.014  0.00  0.00    -0.390 OA
ATOM     33  H   UNL     1      -0.227   2.984  -1.992  0.00  0.00    +0.210 HD
ENDBRANCH  30  32
ENDBRANCH   1  30
TORSDOF 11
