REMARK  Name = ZINC45258897
REMARK  7 active torsions:
REMARK  status: ('A' for Active; 'I' for Inactive)
REMARK    1  A    between atoms: C_1  and  N_2
REMARK    2  A    between atoms: N_2  and  C_3
REMARK    3  A    between atoms: C_6  and  C_26
REMARK    4  A    between atoms: C_8  and  C_12
REMARK    5  A    between atoms: C_17  and  C_20
REMARK    6  A    between atoms: N_28  and  O_29
REMARK    7  A    between atoms: C_30  and  C_32
REMARK                            x       y       z     vdW  Elec       q    Type
REMARK                         _______ _______ _______ _____ _____    ______ ____
ROOT
ATOM      1  C   UNL     1       0.194  -1.036   1.387  0.00  0.00    +0.060 C 
ATOM      2  C   UNL     1       1.514  -1.002   2.162  0.00  0.00    +0.032 C 
ATOM      3  C   UNL     1       1.841   0.448   2.531  0.00  0.00    +0.073 C 
ATOM      4  C   UNL     1       0.680   1.037   3.336  0.00  0.00    +0.028 C 
ATOM      5  N   UNL     1      -0.547   1.000   2.532  0.00  0.00    +0.388 N 
ATOM      6  C   UNL     1      -0.906  -0.393   2.234  0.00  0.00    -0.059 C 
ATOM      7  H   UNL     1      -1.298   1.437   3.045  0.00  0.00    -0.085 HD
ATOM      8  H   UNL     1      -0.397   1.499   1.668  0.00  0.00    -0.085 HD
ENDROOT
BRANCH   4   9
ATOM      9  C   UNL     1       0.997   2.465   3.701  0.00  0.00    +0.203 C 
ATOM     10  O   UNL     1       1.075   3.309   2.834  0.00  0.00    -0.277 OA
ATOM     11  N   UNL     1       1.193   2.803   4.991  0.00  0.00    -0.299 N 
ATOM     12  C   UNL     1       1.390   4.206   5.394  0.00  0.00    +0.112 C 
ATOM     13  C   UNL     1       0.241   4.595   6.328  0.00  0.00    +0.054 C 
ATOM     14  C   UNL     1       0.012   3.521   7.350  0.00  0.00    -0.041 C 
ATOM     15  C   UNL     1       0.432   2.285   7.232  0.00  0.00    -0.004 C 
ATOM     16  C   UNL     1       1.213   1.787   6.053  0.00  0.00    +0.135 C 
BRANCH  14  17
ATOM     17  C   UNL     1      -0.736   3.882   8.573  0.00  0.00    -0.022 A 
ATOM     18  C   UNL     1      -2.078   4.255   8.489  0.00  0.00    +0.008 A 
ATOM     19  C   UNL     1      -2.771   4.590   9.633  0.00  0.00    +0.001 A 
ATOM     20  C   UNL     1      -2.138   4.557  10.863  0.00  0.00    +0.000 A 
ATOM     21  C   UNL     1      -0.808   4.188  10.954  0.00  0.00    +0.001 A 
ATOM     22  C   UNL     1      -0.105   3.846   9.817  0.00  0.00    +0.008 A 
ENDBRANCH  14  17
ENDBRANCH   4   9
BRANCH   1  24
ATOM     23  C   UNL     1       1.632   0.312  -0.211  0.00  0.00    +0.132 C 
ATOM     24  N   UNL     1       0.343  -0.294   0.133  0.00  0.00    -0.299 N 
ATOM     25  C   UNL     1      -0.706  -0.169  -0.705  0.00  0.00    +0.247 C 
ATOM     26  O   UNL     1      -1.796  -0.596  -0.381  0.00  0.00    -0.270 OA
BRANCH  25  27
ATOM     27  C   UNL     1      -0.528   0.489  -2.017  0.00  0.00    +0.037 A 
ATOM     28  C   UNL     1      -1.209   0.010  -3.138  0.00  0.00    +0.013 A 
ATOM     29  C   UNL     1      -1.039   0.628  -4.360  0.00  0.00    +0.001 A 
ATOM     30  C   UNL     1      -0.198   1.720  -4.475  0.00  0.00    +0.000 A 
ATOM     31  C   UNL     1       0.480   2.199  -3.368  0.00  0.00    +0.001 A 
ATOM     32  C   UNL     1       0.315   1.594  -2.139  0.00  0.00    +0.013 A 
ENDBRANCH  25  27
ENDBRANCH   1  24
BRANCH   3  33
ATOM     33  C   UNL     1       3.099   0.485   3.359  0.00  0.00    +0.237 C 
ATOM     34  O   UNL     1       3.060   0.882   4.505  0.00  0.00    -0.273 OA
ATOM     35  N   UNL     1       4.268   0.078   2.827  0.00  0.00    -0.197 N 
ATOM     36  H   UNL     1       4.300  -0.240   1.911  0.00  0.00    +0.182 HD
BRANCH  35  37
ATOM     37  O   UNL     1       5.451   0.113   3.605  0.00  0.00    -0.295 OA
ATOM     38  H   UNL     1       6.238  -0.198   3.138  0.00  0.00    +0.241 HD
ENDBRANCH  35  37
ENDBRANCH   3  33
TORSDOF 6
