REMARK  Name = ZINC34750163
REMARK  11 active torsions:
REMARK  status: ('A' for Active; 'I' for Inactive)
REMARK    1  A    between atoms: C_1  and  C_2
REMARK    2  A    between atoms: C_2  and  N_3
REMARK    3  A    between atoms: N_3  and  C_4
REMARK    4  A    between atoms: C_4  and  C_5
REMARK    5  A    between atoms: C_6  and  C_8
REMARK    6  A    between atoms: C_8  and  N_9
REMARK    7  A    between atoms: C_22  and  S_24
REMARK    8  A    between atoms: S_24  and  C_25
REMARK    9  A    between atoms: C_25  and  C_26
REMARK   10  A    between atoms: C_31  and  C_33
REMARK   11  A    between atoms: C_31  and  C_34
REMARK                            x       y       z     vdW  Elec       q    Type
REMARK                         _______ _______ _______ _____ _____    ______ ____
ROOT
ATOM      1  N   UNL     1      -2.021  -0.789  -3.691  0.00  0.00    +0.387 N 
ATOM      2  C   UNL     1      -1.456   0.139  -4.679  0.00  0.00    -0.059 C 
ATOM      3  C   UNL     1      -1.920  -0.265  -6.082  0.00  0.00    +0.088 C 
ATOM      4  N   UNL     1      -3.390  -0.335  -6.085  0.00  0.00    -0.318 N 
ATOM      5  C   UNL     1      -4.049  -1.114  -5.026  0.00  0.00    +0.088 C 
ATOM      6  C   UNL     1      -3.484  -0.670  -3.673  0.00  0.00    -0.059 C 
ATOM      7  C   UNL     1      -4.130   0.314  -7.056  0.00  0.00    +0.134 A 
ATOM      8  C   UNL     1      -4.368  -0.306  -8.315  0.00  0.00    +0.051 A 
ATOM      9  C   UNL     1      -3.924  -1.616  -8.790  0.00  0.00    -0.020 A 
ATOM     10  C   UNL     1      -4.288  -1.972 -10.040  0.00  0.00    +0.021 A 
ATOM     11  S   UNL     1      -5.233  -0.606 -10.652  0.00  0.00    -0.071 S 
ATOM     12  C   UNL     1      -5.136   0.446  -9.227  0.00  0.00    +0.115 A 
ATOM     13  N   UNL     1      -5.596   1.644  -8.921  0.00  0.00    -0.214 NA
ATOM     14  C   UNL     1      -5.342   2.173  -7.731  0.00  0.00    +0.191 A 
ATOM     15  N   UNL     1      -4.630   1.516  -6.823  0.00  0.00    -0.206 NA
ATOM     16  C   UNL     1      -3.947  -3.257 -10.730  0.00  0.00    +0.203 C 
ATOM     17  O   UNL     1      -2.912  -3.903  -9.973  0.00  0.00    -0.368 OA
ATOM     18  C   UNL     1      -3.187  -3.969  -8.571  0.00  0.00    +0.068 C 
ATOM     19  C   UNL     1      -3.084  -2.573  -7.948  0.00  0.00    +0.071 C 
ATOM     20  C   UNL     1      -4.600  -4.517  -8.357  0.00  0.00    +0.041 C 
ATOM     21  C   UNL     1      -2.177  -4.901  -7.898  0.00  0.00    +0.041 C 
ATOM     22  H   UNL     1      -1.764  -1.733  -3.936  0.00  0.00    -0.081 HD
ENDROOT
BRANCH   1  23
ATOM     23  C   UNL     1      -1.488  -0.468  -2.360  0.00  0.00    +0.019 C 
BRANCH  23  25
ATOM     24  N   UNL     1       0.706  -0.479  -1.219  0.00  0.00    -0.304 N 
ATOM     25  C   UNL     1      -0.001  -0.708  -2.343  0.00  0.00    +0.199 C 
ATOM     26  O   UNL     1       0.561  -1.106  -3.342  0.00  0.00    -0.278 OA
BRANCH  24  28
ATOM     27  C   UNL     1       0.016   1.533  -0.011  0.00  0.00    +0.024 C 
ATOM     28  C   UNL     1       0.028   0.003  -0.013  0.00  0.00    +0.104 C 
ENDBRANCH  24  28
BRANCH  24  29
ATOM     29  C   UNL     1       2.152  -0.712  -1.202  0.00  0.00    +0.104 C 
ATOM     30  C   UNL     1       2.431  -2.155  -0.778  0.00  0.00    +0.024 C 
ENDBRANCH  24  29
ENDBRANCH  23  25
ENDBRANCH   1  23
BRANCH  14  31
ATOM     31  S   UNL     1      -5.967   3.775  -7.347  0.00  0.00    -0.077 S 
BRANCH  31  32
ATOM     32  C   UNL     1      -6.861   4.269  -8.846  0.00  0.00    +0.172 C 
BRANCH  32  33
ATOM     33  C   UNL     1      -7.453   5.641  -8.649  0.00  0.00    +0.221 C 
ATOM     34  O   UNL     1      -7.288   6.227  -7.601  0.00  0.00    -0.275 OA
ATOM     35  N   UNL     1      -8.166   6.215  -9.638  0.00  0.00    -0.329 N 
ATOM     36  H   UNL     1      -8.297   5.746 -10.477  0.00  0.00    +0.145 HD
ATOM     37  H   UNL     1      -8.547   7.098  -9.511  0.00  0.00    +0.145 HD
ENDBRANCH  32  33
ENDBRANCH  31  32
ENDBRANCH  14  31
TORSDOF 7
