REMARK  Name = ZINC64600301
REMARK  7 active torsions:
REMARK  status: ('A' for Active; 'I' for Inactive)
REMARK    1  A    between atoms: C_1  and  O_2
REMARK    2  A    between atoms: O_2  and  C_3
REMARK    3  A    between atoms: C_6  and  C_9
REMARK    4  A    between atoms: C_9  and  N_10
REMARK    5  A    between atoms: C_11  and  O_36
REMARK    6  A    between atoms: C_14  and  O_35
REMARK    7  A    between atoms: C_15  and  C_19
REMARK                            x       y       z     vdW  Elec       q    Type
REMARK                         _______ _______ _______ _____ _____    ______ ____
ROOT
ATOM      1  N   UNL     1      -5.549  -2.708  -1.456  0.00  0.00    -0.252 N 
ATOM      2  C   UNL     1      -6.398  -1.786  -2.196  0.00  0.00    +0.334 C 
ATOM      3  N   UNL     1      -7.088  -2.439  -3.296  0.00  0.00    -0.204 NA
ATOM      4  C   UNL     1      -6.716  -3.541  -3.823  0.00  0.00    +0.200 C 
ATOM      5  C   UNL     1      -5.509  -4.301  -3.357  0.00  0.00    +0.179 C 
ATOM      6  C   UNL     1      -5.116  -3.865  -1.974  0.00  0.00    +0.233 C 
ATOM      7  O   UNL     1      -4.394  -4.578  -1.310  0.00  0.00    -0.275 OA
ENDROOT
BRANCH   5   8
ATOM      8  C   UNL     1      -4.344  -4.036  -4.313  0.00  0.00    +0.101 C 
ATOM      9  C   UNL     1      -3.142  -4.894  -3.911  0.00  0.00    +0.124 C 
ATOM     10  C   UNL     1      -1.984  -4.447  -4.796  0.00  0.00    -0.036 C 
ATOM     11  C   UNL     1      -1.520  -5.539  -5.386  0.00  0.00    +0.001 A 
ATOM     12  C   UNL     1      -0.370  -5.760  -6.278  0.00  0.00    +0.030 A 
ATOM     13  C   UNL     1      -0.189  -7.033  -6.720  0.00  0.00    +0.042 A 
ATOM     14  C   UNL     1      -1.028  -8.096  -6.368  0.00  0.00    +0.022 A 
ATOM     15  C   UNL     1      -2.104  -7.985  -5.549  0.00  0.00    +0.027 A 
ATOM     16  C   UNL     1      -2.393  -6.695  -5.016  0.00  0.00    +0.043 A 
ATOM     17  N   UNL     1      -3.346  -6.314  -4.188  0.00  0.00    -0.376 N 
ATOM     18 CL   UNL     1       1.151  -7.356  -7.776  0.00  0.00    -0.084 Cl
ATOM     19  C   UNL     1      -1.621  -2.989  -4.949  0.00  0.00    +0.048 C 
ATOM     20  C   UNL     1      -2.940  -2.244  -5.226  0.00  0.00    +0.085 C 
ATOM     21  N   UNL     1      -3.951  -2.620  -4.234  0.00  0.00    -0.310 NA
ATOM     22  H   UNL     1      -4.757  -2.017  -4.293  0.00  0.00    +0.122 HD
ATOM     23  H   UNL     1      -4.058  -6.867  -3.827  0.00  0.00    +0.160 HD
ENDBRANCH   5   8
BRANCH   4  24
ATOM     24  O   UNL     1      -7.441  -4.045  -4.843  0.00  0.00    -0.495 OA
ATOM     25  H   UNL     1      -8.204  -3.503  -5.089  0.00  0.00    +0.293 HD
ENDBRANCH   4  24
BRANCH   2  26
ATOM     26  O   UNL     1      -5.589  -0.730  -2.719  0.00  0.00    -0.356 OA
ATOM     27  H   UNL     1      -6.083  -0.071  -3.227  0.00  0.00    +0.214 HD
ENDBRANCH   2  26
BRANCH   1  28
ATOM     28  C   UNL     1      -5.148  -2.354  -0.092  0.00  0.00    +0.147 C 
BRANCH  28  32
ATOM     29  C   UNL     1      -1.494  -0.141  -0.210  0.00  0.00    +0.120 A 
ATOM     30  C   UNL     1      -2.711   0.522  -0.273  0.00  0.00    +0.046 A 
ATOM     31  C   UNL     1      -3.890  -0.196  -0.235  0.00  0.00    +0.009 A 
ATOM     32  C   UNL     1      -3.859  -1.574  -0.134  0.00  0.00    -0.030 A 
ATOM     33  C   UNL     1      -2.648  -2.238  -0.070  0.00  0.00    +0.009 A 
ATOM     34  C   UNL     1      -1.466  -1.525  -0.115  0.00  0.00    +0.046 A 
BRANCH  29  36
ATOM     35  C   UNL     1      -0.438   1.984  -0.347  0.00  0.00    +0.277 C 
ATOM     36  O   UNL     1      -0.332   0.562  -0.248  0.00  0.00    -0.495 OA
ENDBRANCH  29  36
ENDBRANCH  28  32
ENDBRANCH   1  28
TORSDOF 6
