REMARK  Name = ZINC36139309
REMARK  10 active torsions:
REMARK  status: ('A' for Active; 'I' for Inactive)
REMARK    1  A    between atoms: C_1  and  C_2
REMARK    2  A    between atoms: C_2  and  C_3
REMARK    3  A    between atoms: C_2  and  C_4
REMARK    4  A    between atoms: C_14  and  C_40
REMARK    5  A    between atoms: C_18  and  C_19
REMARK    6  A    between atoms: C_18  and  C_20
REMARK    7  A    between atoms: C_20  and  N_21
REMARK    8  A    between atoms: N_21  and  C_22
REMARK    9  A    between atoms: N_32  and  C_33
REMARK   10  A    between atoms: C_33  and  C_34
REMARK                            x       y       z     vdW  Elec       q    Type
REMARK                         _______ _______ _______ _____ _____    ______ ____
ROOT
ATOM      1  C   UNL     1      -8.244  -1.701  -0.718  0.00  0.00    -0.073 C 
ENDROOT
BRANCH   1  15
ATOM      2  C   UNL     1      -1.619  -0.522   1.451  0.00  0.00    -0.045 A 
ATOM      3  C   UNL     1      -2.647  -0.237   2.330  0.00  0.00    +0.004 A 
ATOM      4  C   UNL     1      -3.926  -0.673   2.051  0.00  0.00    +0.005 A 
ATOM      5  C   UNL     1      -4.188  -1.393   0.893  0.00  0.00    -0.038 A 
ATOM      6  C   UNL     1      -3.167  -1.673   0.014  0.00  0.00    -0.043 A 
ATOM      7  C   UNL     1      -1.879  -1.233   0.298  0.00  0.00    +0.007 A 
ATOM      8  C   UNL     1      -3.378  -2.431  -1.270  0.00  0.00    +0.036 C 
ATOM      9  C   UNL     1      -4.718  -3.166  -1.253  0.00  0.00    +0.009 C 
ATOM     10  C   UNL     1      -5.801  -2.175  -0.823  0.00  0.00    +0.004 C 
ATOM     11  C   UNL     1      -5.607  -1.850   0.655  0.00  0.00    -0.004 C 
ATOM     12  C   UNL     1      -5.863  -3.099   1.504  0.00  0.00    +0.011 C 
ATOM     13  C   UNL     1      -7.277  -3.621   1.248  0.00  0.00    +0.001 C 
ATOM     14  C   UNL     1      -7.414  -3.994  -0.231  0.00  0.00    +0.005 C 
ATOM     15  C   UNL     1      -7.189  -2.752  -1.068  0.00  0.00    -0.044 C 
ATOM     16  C   UNL     1      -7.326  -3.132  -2.544  0.00  0.00    +0.009 C 
ATOM     17  C   UNL     1      -6.577  -0.740   1.066  0.00  0.00    +0.016 C 
BRANCH   2  19
ATOM     18  C   UNL     1      -0.204   1.473   1.858  0.00  0.00    +0.012 C 
ATOM     19  C   UNL     1      -0.218  -0.053   1.749  0.00  0.00    +0.013 C 
ATOM     20  C   UNL     1       0.254  -0.663   3.071  0.00  0.00    +0.012 C 
ENDBRANCH   2  19
ENDBRANCH   1  15
BRANCH   1  21
ATOM     21  N   UNL     1      -9.571  -2.189  -1.117  0.00  0.00    +0.394 N 
ATOM     22  H   UNL     1      -9.556  -2.446  -2.092  0.00  0.00    -0.083 HD
ATOM     23  H   UNL     1      -9.815  -2.994  -0.560  0.00  0.00    -0.083 HD
BRANCH  21  24
ATOM     24  C   UNL     1     -10.566  -1.128  -0.906  0.00  0.00    +0.046 C 
ATOM     25  C   UNL     1     -10.805  -0.924   0.565  0.00  0.00    -0.059 C 
ATOM     26  C   UNL     1     -12.091  -1.184   0.800  0.00  0.00    +0.014 C 
ATOM     27  C   UNL     1     -12.731  -1.094   2.167  0.00  0.00    +0.040 C 
ATOM     28  C   UNL     1     -11.621  -1.088   3.224  0.00  0.00    +0.005 C 
ATOM     29  C   UNL     1     -10.569  -0.038   2.855  0.00  0.00    +0.005 C 
ATOM     30  C   UNL     1      -9.804  -0.504   1.610  0.00  0.00    +0.031 C 
ATOM     31  C   UNL     1     -12.750  -1.559  -0.453  0.00  0.00    +0.241 C 
ATOM     32  O   UNL     1     -13.925  -1.853  -0.562  0.00  0.00    -0.270 OA
ATOM     33  N   UNL     1     -11.863  -1.530  -1.470  0.00  0.00    -0.305 N 
BRANCH  33  34
ATOM     34  C   UNL     1     -12.141  -1.841  -2.874  0.00  0.00    +0.138 C 
BRANCH  34  35
ATOM     35  C   UNL     1     -12.036  -3.352  -3.092  0.00  0.00    +0.136 C 
ATOM     36  C   UNL     1     -12.254  -3.682  -4.584  0.00  0.00    +0.035 C 
ATOM     37  C   UNL     1     -13.096  -4.986  -4.514  0.00  0.00    +0.031 C 
ATOM     38  C   UNL     1     -13.939  -4.723  -3.240  0.00  0.00    +0.160 C 
ATOM     39  O   UNL     1     -13.058  -4.022  -2.345  0.00  0.00    -0.375 OA
ENDBRANCH  34  35
ENDBRANCH  33  34
ENDBRANCH  21  24
ENDBRANCH   1  21
TORSDOF 6
