REMARK  Name = ZINC63619719
REMARK  5 active torsions:
REMARK  status: ('A' for Active; 'I' for Inactive)
REMARK    1  A    between atoms: C_6  and  C_10
REMARK    2  A    between atoms: C_10  and  S_11
REMARK    3  A    between atoms: S_11  and  C_12
REMARK    4  A    between atoms: C_16  and  C_26
REMARK    5  A    between atoms: N_18  and  C_19
REMARK                            x       y       z     vdW  Elec       q    Type
REMARK                         _______ _______ _______ _____ _____    ______ ____
ROOT
ATOM      1  C   UNL     1       3.604  -2.859  -4.369  0.00  0.00    +0.217 C 
ATOM      2  N   UNL     1       5.081  -2.966  -4.244  0.00  0.00    -0.226 NA
ATOM      3  N   UNL     1       5.365  -4.292  -4.817  0.00  0.00    -0.230 NA
ATOM      4  C   UNL     1       4.235  -5.136  -4.370  0.00  0.00    +0.189 C 
ATOM      5  N   UNL     1       3.112  -4.223  -4.087  0.00  0.00    -0.284 N 
ATOM      6  H   UNL     1       5.542  -2.239  -4.769  0.00  0.00    +0.143 HD
ATOM      7  H   UNL     1       6.244  -4.652  -4.476  0.00  0.00    +0.143 HD
ENDROOT
BRANCH   5   8
ATOM      8  C   UNL     1       1.836  -4.575  -3.639  0.00  0.00    +0.033 A 
ATOM      9  C   UNL     1       0.717  -4.238  -4.390  0.00  0.00    +0.024 A 
ATOM     10  C   UNL     1      -0.543  -4.588  -3.945  0.00  0.00    +0.022 A 
ATOM     11  C   UNL     1      -0.691  -5.274  -2.753  0.00  0.00    +0.041 A 
ATOM     12  C   UNL     1       0.422  -5.612  -2.003  0.00  0.00    +0.022 A 
ATOM     13  C   UNL     1       1.684  -5.269  -2.445  0.00  0.00    +0.024 A 
ATOM     14 CL   UNL     1      -2.276  -5.712  -2.196  0.00  0.00    -0.084 Cl
ENDBRANCH   5   8
BRANCH   4  15
ATOM     15  C   UNL     1       3.850  -6.104  -5.459  0.00  0.00    -0.009 A 
ATOM     16  C   UNL     1       2.576  -6.649  -5.506  0.00  0.00    +0.024 A 
ATOM     17  C   UNL     1       2.259  -7.533  -6.521  0.00  0.00    +0.083 A 
ATOM     18  N   UNL     1       3.152  -7.858  -7.435  0.00  0.00    -0.367 N 
ATOM     19  C   UNL     1       4.372  -7.359  -7.422  0.00  0.00    +0.083 A 
ATOM     20  C   UNL     1       4.759  -6.465  -6.442  0.00  0.00    +0.024 A 
ATOM     21  H   UNL     1       2.904  -8.481  -8.136  0.00  0.00    +0.165 HD
ENDBRANCH   4  15
BRANCH   1  22
ATOM     22  S   UNL     1       2.948  -1.683  -3.153  0.00  0.00    -0.118 S 
BRANCH  22  23
ATOM     23  C   UNL     1       3.520  -2.335  -1.560  0.00  0.00    +0.119 C 
BRANCH  23  29
ATOM     24  C   UNL     1       0.018   2.004  -0.974  0.00  0.00    +0.002 A 
ATOM     25  C   UNL     1       1.209   2.748  -1.057  0.00  0.00    +0.002 A 
ATOM     26  C   UNL     1       2.428   2.183  -0.954  0.00  0.00    +0.027 A 
ATOM     27  C   UNL     1       2.539   0.732  -0.746  0.00  0.00    +0.060 A 
ATOM     28  N   UNL     1       3.558  -0.068  -0.613  0.00  0.00    -0.363 N 
ATOM     29  C   UNL     1       3.030  -1.426  -0.431  0.00  0.00    +0.184 C 
ATOM     30  N   UNL     1       1.567  -1.312  -0.475  0.00  0.00    -0.363 N 
ATOM     31  C   UNL     1       1.279  -0.055  -0.658  0.00  0.00    +0.060 A 
ATOM     32  C   UNL     1       0.007   0.669  -0.786  0.00  0.00    +0.027 A 
ATOM     33  H   UNL     1       4.493   0.187  -0.632  0.00  0.00    +0.162 HD
ATOM     34  H   UNL     1       0.932  -2.039  -0.384  0.00  0.00    +0.162 HD
ENDBRANCH  23  29
ENDBRANCH  22  23
ENDBRANCH   1  22
TORSDOF 5
