REMARK  Name = ZINC35427160
REMARK  7 active torsions:
REMARK  status: ('A' for Active; 'I' for Inactive)
REMARK    1  A    between atoms: C_1  and  C_2
REMARK    2  A    between atoms: C_2  and  C_3
REMARK    3  A    between atoms: C_8  and  N_9
REMARK    4  A    between atoms: C_24  and  C_26
REMARK    5  A    between atoms: C_29  and  O_32
REMARK    6  A    between atoms: O_32  and  C_33
REMARK    7  A    between atoms: N_35  and  C_38
REMARK                            x       y       z     vdW  Elec       q    Type
REMARK                         _______ _______ _______ _____ _____    ______ ____
ROOT
ATOM      1  N   UNL     1       3.184  -0.552  -0.856  0.00  0.00    -0.269 N 
ATOM      2  C   UNL     1       4.493  -0.624  -0.544  0.00  0.00    +0.308 C 
ATOM      3  O   UNL     1       5.308  -0.899  -1.404  0.00  0.00    -0.252 OA
ATOM      4  N   UNL     1       4.899  -0.391   0.720  0.00  0.00    -0.268 N 
ATOM      5  C   UNL     1       3.940  -0.061   1.790  0.00  0.00    +0.148 C 
ATOM      6  C   UNL     1       4.281  -0.725   3.106  0.00  0.00    +0.004 A 
ATOM      7  C   UNL     1       3.509  -1.758   3.670  0.00  0.00    -0.034 A 
ATOM      8  C   UNL     1       3.903  -2.262   4.871  0.00  0.00    -0.021 A 
ATOM      9  S   UNL     1       5.363  -1.333   5.261  0.00  0.00    -0.077 S 
ATOM     10  C   UNL     1       5.380  -0.332   3.805  0.00  0.00    +0.090 A 
ATOM     11  N   UNL     1       6.274   0.640   3.371  0.00  0.00    -0.312 N 
ATOM     12  C   UNL     1       6.840   1.687   4.014  0.00  0.00    +0.092 A 
ATOM     13  C   UNL     1       7.587   2.373   3.119  0.00  0.00    +0.020 A 
ATOM     14  C   UNL     1       7.487   1.703   1.880  0.00  0.00    +0.025 A 
ATOM     15  C   UNL     1       6.700   0.633   2.064  0.00  0.00    +0.049 A 
ATOM     16  C   UNL     1       6.330  -0.460   1.101  0.00  0.00    +0.155 C 
ATOM     17  C   UNL     1       3.235  -3.345   5.652  0.00  0.00    -0.036 C 
ATOM     18  N   UNL     1       1.879  -3.542   5.104  0.00  0.00    +0.381 N 
ATOM     19  C   UNL     1       1.957  -3.683   3.644  0.00  0.00    -0.074 C 
ATOM     20  C   UNL     1       2.265  -2.330   2.995  0.00  0.00    +0.018 C 
ATOM     21  C   UNL     1       1.289  -4.756   5.683  0.00  0.00    -0.096 C 
ATOM     22  H   UNL     1       2.542  -0.264  -0.189  0.00  0.00    +0.156 HD
ATOM     23  H   UNL     1       1.304  -2.745   5.335  0.00  0.00    -0.082 HD
ENDROOT
BRANCH   1  29
ATOM     24  C   UNL     1       1.472  -1.400  -2.334  0.00  0.00    -0.026 A 
ATOM     25  C   UNL     1       1.045  -1.732  -3.605  0.00  0.00    +0.005 A 
ATOM     26  C   UNL     1       1.893  -1.566  -4.685  0.00  0.00    +0.000 A 
ATOM     27  C   UNL     1       3.169  -1.069  -4.497  0.00  0.00    +0.002 A 
ATOM     28  C   UNL     1       3.602  -0.736  -3.228  0.00  0.00    +0.023 A 
ATOM     29  C   UNL     1       2.751  -0.895  -2.142  0.00  0.00    +0.038 A 
BRANCH  24  31
ATOM     30  C   UNL     1      -0.175  -0.263  -0.870  0.00  0.00    +0.009 C 
ATOM     31  C   UNL     1       0.547  -1.580  -1.157  0.00  0.00    +0.033 C 
ENDBRANCH  24  31
ENDBRANCH   1  29
BRANCH  16  32
ATOM     32  C   UNL     1       6.603  -1.797   1.742  0.00  0.00    -0.021 A 
ATOM     33  C   UNL     1       5.810  -2.886   1.430  0.00  0.00    +0.009 A 
ATOM     34  C   UNL     1       6.057  -4.112   2.016  0.00  0.00    +0.046 A 
ATOM     35  C   UNL     1       7.103  -4.251   2.917  0.00  0.00    +0.120 A 
ATOM     36  C   UNL     1       7.898  -3.157   3.227  0.00  0.00    +0.046 A 
ATOM     37  C   UNL     1       7.649  -1.934   2.635  0.00  0.00    +0.009 A 
BRANCH  35  38
ATOM     38  O   UNL     1       7.349  -5.456   3.494  0.00  0.00    -0.495 OA
ATOM     39  C   UNL     1       8.442  -5.525   4.412  0.00  0.00    +0.277 C 
ENDBRANCH  35  38
ENDBRANCH  16  32
TORSDOF 4
