REMARK  Name = ZINC01856560
REMARK  9 active torsions:
REMARK  status: ('A' for Active; 'I' for Inactive)
REMARK    1  A    between atoms: C_1  and  C_2
REMARK    2  A    between atoms: C_5  and  S_8
REMARK    3  A    between atoms: S_8  and  N_11
REMARK    4  A    between atoms: C_16  and  C_17
REMARK    5  A    between atoms: C_16  and  N_56
REMARK    6  A    between atoms: N_19  and  N_20
REMARK    7  A    between atoms: N_20  and  C_21
REMARK    8  A    between atoms: C_21  and  C_23
REMARK    9  A    between atoms: C_27  and  O_29
REMARK                            x       y       z     vdW  Elec       q    Type
REMARK                         _______ _______ _______ _____ _____    ______ ____
ROOT
ATOM      1  C   UNL     1       7.569   4.512  -5.018  0.00  0.00    +0.020 C 
ENDROOT
BRANCH   1   7
ATOM      2  N   UNL     1      10.999   6.924  -4.846  0.00  0.00    -0.180 NA
ATOM      3  C   UNL     1      11.089   5.691  -5.642  0.00  0.00    +0.091 C 
ATOM      4  C   UNL     1       9.669   5.229  -5.987  0.00  0.00    -0.061 C 
ATOM      5  C   UNL     1       8.737   6.419  -4.090  0.00  0.00    -0.061 C 
ATOM      6  C   UNL     1      10.119   6.929  -3.668  0.00  0.00    +0.091 C 
ATOM      7  N   UNL     1       8.896   5.096  -4.733  0.00  0.00    +0.387 N 
ATOM      8  H   UNL     1       9.403   4.474  -4.093  0.00  0.00    -0.081 HD
BRANCH   2   9
ATOM      9  S   UNL     1      11.865   8.272  -5.266  0.00  0.00    +0.061 S 
ATOM     10  O   UNL     1      12.019   9.041  -4.081  0.00  0.00    -0.153 OA
ATOM     11  O   UNL     1      12.975   7.820  -6.030  0.00  0.00    -0.153 OA
BRANCH   9  16
ATOM     12  C   UNL     1       8.413  11.521  -8.998  0.00  0.00    +0.044 C 
ATOM     13  C   UNL     1       9.275  10.710  -8.066  0.00  0.00    -0.050 A 
ATOM     14  C   UNL     1       9.211  10.924  -6.702  0.00  0.00    +0.005 A 
ATOM     15  C   UNL     1      10.002  10.180  -5.847  0.00  0.00    +0.029 A 
ATOM     16  C   UNL     1      10.857   9.221  -6.356  0.00  0.00    +0.105 A 
ATOM     17  C   UNL     1      10.925   9.009  -7.720  0.00  0.00    +0.029 A 
ATOM     18  C   UNL     1      10.131   9.751  -8.575  0.00  0.00    +0.005 A 
ENDBRANCH   9  16
ENDBRANCH   2   9
ENDBRANCH   1   7
BRANCH   1  19
ATOM     19  C   UNL     1       6.891   4.186  -3.712  0.00  0.00    +0.212 C 
ATOM     20  O   UNL     1       7.447   4.432  -2.663  0.00  0.00    -0.276 OA
ATOM     21  N   UNL     1       5.668   3.621  -3.710  0.00  0.00    -0.238 N 
ATOM     22  H   UNL     1       5.223   3.425  -4.549  0.00  0.00    +0.173 HD
BRANCH  21  23
ATOM     23  N   UNL     1       5.038   3.318  -2.496  0.00  0.00    -0.265 N 
ATOM     24  H   UNL     1       5.483   3.515  -1.657  0.00  0.00    +0.170 HD
BRANCH  23  25
ATOM     25  C   UNL     1       3.771   2.733  -2.494  0.00  0.00    +0.045 C 
ATOM     26  C   UNL     1       3.160   2.463  -3.647  0.00  0.00    +0.035 C 
BRANCH  25  27
ATOM     27  C   UNL     1       3.105   2.413  -1.210  0.00  0.00    +0.000 A 
ATOM     28  C   UNL     1       3.743   2.696  -0.002  0.00  0.00    +0.010 A 
ATOM     29  C   UNL     1       3.120   2.396   1.193  0.00  0.00    +0.004 A 
ATOM     30  C   UNL     1       1.862   1.822   1.196  0.00  0.00    +0.045 A 
ATOM     31  C   UNL     1       1.223   1.532  -0.001  0.00  0.00    +0.117 A 
ATOM     32  C   UNL     1       1.840   1.829  -1.206  0.00  0.00    +0.055 A 
BRANCH  31  33
ATOM     33  O   UNL     1      -0.011   0.963   0.007  0.00  0.00    -0.507 OA
ATOM     34  H   UNL     1       0.002  -0.004   0.002  0.00  0.00    +0.292 HD
ENDBRANCH  31  33
ENDBRANCH  25  27
ENDBRANCH  23  25
ENDBRANCH  21  23
ENDBRANCH   1  19
TORSDOF 8
