REMARK  Name = ZINC32814500
REMARK  4 active torsions:
REMARK  status: ('A' for Active; 'I' for Inactive)
REMARK    1  A    between atoms: C_1  and  C_2
REMARK    2  A    between atoms: C_2  and  C_3
REMARK    3  A    between atoms: C_2  and  C_4
REMARK    4  A    between atoms: C_2  and  N_5
REMARK                            x       y       z     vdW  Elec       q    Type
REMARK                         _______ _______ _______ _____ _____    ______ ____
ROOT
ATOM      1  N   UNL     1       0.642  -0.336  -1.170  0.00  0.00    -0.318 N 
ATOM      2  C   UNL     1       1.970  -0.030  -1.381  0.00  0.00    +0.172 C 
ATOM      3  N   UNL     1       2.568   0.865  -0.642  0.00  0.00    -0.160 NA
ATOM      4  N   UNL     1       3.899   1.222  -0.787  0.00  0.00    -0.238 N 
ATOM      5  C   UNL     1       4.640   1.054  -1.863  0.00  0.00    +0.043 C 
ATOM      6  C   UNL     1       5.981   1.485  -1.835  0.00  0.00    -0.002 A 
ATOM      7  C   UNL     1       6.759   1.443  -3.009  0.00  0.00    +0.011 A 
ATOM      8  C   UNL     1       8.053   1.859  -2.988  0.00  0.00    +0.030 A 
ATOM      9  C   UNL     1       8.623   2.333  -1.796  0.00  0.00    +0.102 A 
ATOM     10  N   UNL     1       9.846   2.799  -1.481  0.00  0.00    -0.140 NA
ATOM     11  C   UNL     1       9.864   3.120  -0.198  0.00  0.00    +0.430 C 
ATOM     12  O   UNL     1      10.829   3.573   0.399  0.00  0.00    -0.224 OA
ATOM     13  O   UNL     1       8.659   2.873   0.352  0.00  0.00    -0.408 OA
ATOM     14  C   UNL     1       7.851   2.379  -0.617  0.00  0.00    +0.157 A 
ATOM     15  C   UNL     1       6.541   1.964  -0.636  0.00  0.00    +0.058 A 
ATOM     16  C   UNL     1       4.110   0.418  -3.122  0.00  0.00    +0.130 C 
ATOM     17  S   UNL     1       2.886  -0.848  -2.651  0.00  0.00    -0.083 S 
ATOM     18  H   UNL     1       0.205  -1.005  -1.720  0.00  0.00    +0.148 HD
ATOM     19  H   UNL     1       4.327   1.636  -0.022  0.00  0.00    +0.174 HD
ENDROOT
BRANCH   1  21
ATOM     20  C   UNL     1      -0.116   1.853  -0.387  0.00  0.00    +0.031 C 
ATOM     21  C   UNL     1      -0.109   0.348  -0.114  0.00  0.00    +0.026 C 
ATOM     22  C   UNL     1       0.553   0.078   1.239  0.00  0.00    +0.031 C 
ATOM     23  C   UNL     1      -1.547  -0.173  -0.092  0.00  0.00    +0.031 C 
ENDBRANCH   1  21
TORSDOF 1
