REMARK  Name = ZINC36643305
REMARK  8 active torsions:
REMARK  status: ('A' for Active; 'I' for Inactive)
REMARK    1  A    between atoms: C_1  and  N_2
REMARK    2  A    between atoms: N_2  and  C_3
REMARK    3  A    between atoms: N_2  and  C_4
REMARK    4  A    between atoms: C_4  and  C_5
REMARK    5  A    between atoms: C_5  and  C_6
REMARK    6  A    between atoms: C_6  and  N_7
REMARK    7  A    between atoms: C_18  and  C_20
REMARK    8  A    between atoms: C_22  and  C_30
REMARK                            x       y       z     vdW  Elec       q    Type
REMARK                         _______ _______ _______ _____ _____    ______ ____
ROOT
ATOM      1  N   UNL     1      -4.097  -0.458  -2.624  0.00  0.00    -0.246 N 
ATOM      2  C   UNL     1      -4.016  -1.382  -3.652  0.00  0.00    +0.168 A 
ATOM      3  N   UNL     1      -3.428  -2.556  -3.660  0.00  0.00    -0.224 NA
ATOM      4  C   UNL     1      -3.429  -3.361  -4.744  0.00  0.00    +0.080 A 
ATOM      5  C   UNL     1      -2.837  -4.638  -4.883  0.00  0.00    +0.030 A 
ATOM      6  C   UNL     1      -2.931  -5.329  -6.063  0.00  0.00    +0.022 A 
ATOM      7  C   UNL     1      -3.605  -4.805  -7.159  0.00  0.00    +0.042 A 
ATOM      8  C   UNL     1      -4.195  -3.557  -7.057  0.00  0.00    +0.037 A 
ATOM      9  C   UNL     1      -4.106  -2.860  -5.879  0.00  0.00    +0.042 A 
ATOM     10  S   UNL     1      -4.693  -1.284  -5.303  0.00  0.00    -0.052 S 
ATOM     11 CL   UNL     1      -3.704  -5.705  -8.640  0.00  0.00    -0.084 Cl
ATOM     12  C   UNL     1      -4.758   0.701  -2.811  0.00  0.00    +0.253 C 
ATOM     13  O   UNL     1      -5.198   0.980  -3.909  0.00  0.00    -0.270 OA
ENDROOT
BRANCH  12  14
ATOM     14  C   UNL     1      -4.950   1.633  -1.680  0.00  0.00    +0.048 A 
ATOM     15  C   UNL     1      -5.543   1.219  -0.497  0.00  0.00    +0.042 A 
ATOM     16  C   UNL     1      -5.705   2.140   0.553  0.00  0.00    +0.079 A 
ATOM     17  N   UNL     1      -5.310   3.395   0.455  0.00  0.00    -0.246 NA
ATOM     18  C   UNL     1      -4.731   3.876  -0.646  0.00  0.00    +0.072 A 
ATOM     19  C   UNL     1      -4.515   3.029  -1.762  0.00  0.00    +0.013 A 
ATOM     20  C   UNL     1      -3.902   3.536  -2.912  0.00  0.00    +0.011 A 
ATOM     21  C   UNL     1      -3.512   4.843  -2.947  0.00  0.00    +0.001 A 
ATOM     22  C   UNL     1      -3.717   5.678  -1.852  0.00  0.00    +0.002 A 
ATOM     23  C   UNL     1      -4.321   5.220  -0.722  0.00  0.00    +0.028 A 
BRANCH  16  24
ATOM     24  C   UNL     1      -6.337   1.687   1.807  0.00  0.00    +0.038 A 
ATOM     25  C   UNL     1      -6.685   2.420   2.913  0.00  0.00    +0.017 A 
ATOM     26  C   UNL     1      -7.271   1.773   3.977  0.00  0.00    +0.008 A 
ATOM     27  C   UNL     1      -7.487   0.433   3.900  0.00  0.00    +0.046 A 
ATOM     28  S   UNL     1      -6.857   0.045   2.276  0.00  0.00    -0.095 S 
ENDBRANCH  16  24
ENDBRANCH  12  14
BRANCH   1  29
ATOM     29  C   UNL     1      -3.463  -0.741  -1.334  0.00  0.00    +0.114 C 
BRANCH  29  30
ATOM     30  C   UNL     1      -2.071  -0.108  -1.300  0.00  0.00    +0.001 C 
BRANCH  30  31
ATOM     31  C   UNL     1      -1.361  -0.507  -0.005  0.00  0.00    -0.078 C 
BRANCH  31  33
ATOM     32  C   UNL     1       0.001   1.468  -0.024  0.00  0.00    -0.097 C 
ATOM     33  N   UNL     1       0.018  -0.001  -0.026  0.00  0.00    +0.376 N 
ATOM     34  C   UNL     1       0.736  -0.484   1.161  0.00  0.00    -0.097 C 
ATOM     35  H   UNL     1       0.484  -0.330  -0.859  0.00  0.00    -0.083 HD
ENDBRANCH  31  33
ENDBRANCH  30  31
ENDBRANCH  29  30
ENDBRANCH   1  29
TORSDOF 6
