REMARK  Name = ZINC24834372
REMARK  9 active torsions:
REMARK  status: ('A' for Active; 'I' for Inactive)
REMARK    1  A    between atoms: C_1  and  C_2
REMARK    2  A    between atoms: C_10  and  C_11
REMARK    3  A    between atoms: C_11  and  O_13
REMARK    4  A    between atoms: O_13  and  C_14
REMARK    5  A    between atoms: C_14  and  C_16
REMARK    6  A    between atoms: C_14  and  C_17
REMARK    7  A    between atoms: N_19  and  C_20
REMARK    8  A    between atoms: C_24  and  S_26
REMARK    9  A    between atoms: S_26  and  N_29
REMARK                            x       y       z     vdW  Elec       q    Type
REMARK                         _______ _______ _______ _____ _____    ______ ____
ROOT
ATOM      1  C   UNL     1       6.177  -1.805   0.643  0.00  0.00    +0.258 C 
ATOM      2  O   UNL     1       5.402  -2.652   1.034  0.00  0.00    -0.271 OA
ATOM      3  N   UNL     1       7.501  -1.960   0.839  0.00  0.00    -0.282 N 
ATOM      4  H   UNL     1       8.209  -1.230   0.419  0.00  0.00    +0.155 HD
ENDROOT
BRANCH   3   5
ATOM      5  C   UNL     1       7.976  -3.049   1.578  0.00  0.00    +0.035 A 
ATOM      6  C   UNL     1       7.331  -4.277   1.501  0.00  0.00    +0.023 A 
ATOM      7  C   UNL     1       7.802  -5.350   2.232  0.00  0.00    +0.004 A 
ATOM      8  C   UNL     1       8.914  -5.203   3.039  0.00  0.00    +0.028 A 
ATOM      9  C   UNL     1       9.559  -3.982   3.118  0.00  0.00    +0.107 A 
ATOM     10  C   UNL     1       9.096  -2.906   2.386  0.00  0.00    +0.051 A 
BRANCH   9  11
ATOM     11  S   UNL     1      10.977  -3.800   4.149  0.00  0.00    +0.061 S 
ATOM     12  O   UNL     1      11.071  -2.419   4.469  0.00  0.00    -0.153 OA
ATOM     13  O   UNL     1      10.886  -4.809   5.145  0.00  0.00    -0.153 OA
BRANCH  11  14
ATOM     14  N   UNL     1      12.303  -4.164   3.226  0.00  0.00    -0.172 NA
ATOM     15  C   UNL     1      12.819  -5.540   3.151  0.00  0.00    +0.137 C 
ATOM     16  C   UNL     1      12.987  -5.909   1.668  0.00  0.00    +0.177 C 
ATOM     17  O   UNL     1      13.768  -4.902   1.020  0.00  0.00    -0.377 OA
ATOM     18  C   UNL     1      13.165  -3.606   1.016  0.00  0.00    +0.177 C 
ATOM     19  C   UNL     1      13.003  -3.120   2.461  0.00  0.00    +0.137 C 
ENDBRANCH  11  14
ENDBRANCH   9  11
ENDBRANCH   3   5
BRANCH   1  20
ATOM     20  C   UNL     1       5.658  -0.578  -0.063  0.00  0.00    +0.259 C 
ATOM     21  C   UNL     1       6.151  -0.576  -1.511  0.00  0.00    +0.062 C 
BRANCH  20  22
ATOM     22  O   UNL     1       4.206  -0.587  -0.046  0.00  0.00    -0.447 OA
BRANCH  22  23
ATOM     23  C   UNL     1       3.586   0.610  -0.040  0.00  0.00    +0.376 C 
ATOM     24  O   UNL     1       4.242   1.634  -0.049  0.00  0.00    -0.241 OA
BRANCH  23  34
ATOM     25  C   UNL     1       1.918   3.235  -0.025  0.00  0.00    +0.048 C 
ATOM     26  C   UNL     1       1.390   1.824  -0.016  0.00  0.00    +0.010 A 
ATOM     27  C   UNL     1      -0.013   1.410   0.000  0.00  0.00    +0.027 A 
ATOM     28  C   UNL     1      -1.230   2.097   0.018  0.00  0.00    +0.050 A 
ATOM     29  C   UNL     1      -2.411   1.388   0.029  0.00  0.00    +0.124 A 
ATOM     30  C   UNL     1      -2.393  -0.002   0.031  0.00  0.00    +0.042 A 
ATOM     31  C   UNL     1      -1.200  -0.691   0.018  0.00  0.00    +0.050 A 
ATOM     32  C   UNL     1       0.004   0.003   0.003  0.00  0.00    +0.136 A 
ATOM     33  O   UNL     1       1.293  -0.389  -0.012  0.00  0.00    -0.448 OA
ATOM     34  C   UNL     1       2.120   0.678  -0.023  0.00  0.00    +0.216 A 
ATOM     35  F   UNL     1      -3.591   2.046   0.042  0.00  0.00    -0.205 F 
ENDBRANCH  23  34
ENDBRANCH  22  23
ENDBRANCH  20  22
ENDBRANCH   1  20
TORSDOF 7
