REMARK  Name = ZINC03515948
REMARK  9 active torsions:
REMARK  status: ('A' for Active; 'I' for Inactive)
REMARK    1  A    between atoms: C_1  and  C_2
REMARK    2  A    between atoms: C_2  and  C_4
REMARK    3  A    between atoms: C_2  and  O_17
REMARK    4  A    between atoms: N_6  and  C_7
REMARK    5  A    between atoms: C_9  and  N_14
REMARK    6  A    between atoms: O_17  and  C_18
REMARK    7  A    between atoms: C_18  and  C_20
REMARK    8  A    between atoms: C_24  and  S_26
REMARK    9  A    between atoms: S_26  and  N_29
REMARK                            x       y       z     vdW  Elec       q    Type
REMARK                         _______ _______ _______ _____ _____    ______ ____
ROOT
ATOM      1  C   UNL     1      -3.654  -1.638   1.559  0.00  0.00    +0.062 C 
ATOM      2  C   UNL     1      -3.658  -0.848   0.249  0.00  0.00    +0.259 C 
ENDROOT
BRANCH   2   3
ATOM      3  C   UNL     1      -2.373  -0.070   0.127  0.00  0.00    +0.258 C 
ATOM      4  O   UNL     1      -2.395   1.143   0.134  0.00  0.00    -0.271 OA
ATOM      5  N   UNL     1      -1.200  -0.722   0.010  0.00  0.00    -0.281 N 
ATOM      6  H   UNL     1      -1.188  -1.688  -0.076  0.00  0.00    +0.155 HD
BRANCH   5   7
ATOM      7  C   UNL     1       0.003  -0.005   0.013  0.00  0.00    +0.054 A 
ATOM      8  C   UNL     1       0.070   1.238   0.627  0.00  0.00    +0.057 A 
ATOM      9  C   UNL     1       1.258   1.943   0.629  0.00  0.00    +0.128 A 
ATOM     10  C   UNL     1       2.380   1.413   0.020  0.00  0.00    +0.034 A 
ATOM     11  C   UNL     1       2.317   0.174  -0.593  0.00  0.00    +0.024 A 
ATOM     12  C   UNL     1       1.132  -0.536  -0.598  0.00  0.00    +0.062 A 
ATOM     13 CL   UNL     1       1.054  -2.091  -1.367  0.00  0.00    -0.082 Cl
BRANCH   9  14
ATOM     14  N   UNL     1       1.329   3.269   1.284  0.00  0.00    +0.056 N 
ATOM     15  O   UNL     1       0.341   3.737   1.820  0.00  0.00    -0.126 OA
ATOM     16  O   UNL     1       2.376   3.891   1.286  0.00  0.00    -0.126 OA
ENDBRANCH   9  14
ENDBRANCH   5   7
ENDBRANCH   2   3
BRANCH   2  17
ATOM     17  O   UNL     1      -4.783   0.071   0.242  0.00  0.00    -0.449 OA
BRANCH  17  18
ATOM     18  C   UNL     1      -5.943  -0.386  -0.267  0.00  0.00    +0.340 C 
ATOM     19  O   UNL     1      -6.014  -1.521  -0.694  0.00  0.00    -0.245 OA
BRANCH  18  20
ATOM     20  C   UNL     1      -7.129   0.493  -0.307  0.00  0.00    +0.061 A 
ATOM     21  C   UNL     1      -7.053   1.797   0.189  0.00  0.00    +0.016 A 
ATOM     22  C   UNL     1      -8.162   2.614   0.144  0.00  0.00    +0.023 A 
ATOM     23  C   UNL     1      -9.354   2.142  -0.381  0.00  0.00    +0.067 A 
ATOM     24  C   UNL     1      -9.437   0.848  -0.869  0.00  0.00    +0.124 A 
ATOM     25  C   UNL     1      -8.333   0.022  -0.835  0.00  0.00    +0.045 A 
ATOM     26 CL   UNL     1     -10.748   3.175  -0.428  0.00  0.00    -0.082 Cl
BRANCH  24  27
ATOM     27  S   UNL     1     -10.957   0.256  -1.534  0.00  0.00    +0.057 S 
ATOM     28  O   UNL     1     -11.413   1.244  -2.448  0.00  0.00    -0.153 OA
ATOM     29  O   UNL     1     -10.734  -1.093  -1.921  0.00  0.00    -0.153 OA
BRANCH  27  30
ATOM     30  N   UNL     1     -12.053   0.217  -0.294  0.00  0.00    -0.203 NA
ATOM     31  H   UNL     1     -11.788   0.495   0.597  0.00  0.00    +0.144 HD
ATOM     32  H   UNL     1     -12.961  -0.083  -0.458  0.00  0.00    +0.144 HD
ENDBRANCH  27  30
ENDBRANCH  24  27
ENDBRANCH  18  20
ENDBRANCH  17  18
ENDBRANCH   2  17
TORSDOF 8
