REMARK  Name = ZINC09542547
REMARK  11 active torsions:
REMARK  status: ('A' for Active; 'I' for Inactive)
REMARK    1  A    between atoms: C_1  and  C_2
REMARK    2  A    between atoms: C_2  and  O_3
REMARK    3  A    between atoms: O_3  and  C_4
REMARK    4  A    between atoms: C_8  and  C_11
REMARK    5  A    between atoms: C_9  and  O_10
REMARK    6  A    between atoms: C_14  and  C_26
REMARK    7  A    between atoms: C_16  and  C_18
REMARK    8  A    between atoms: C_22  and  O_24
REMARK    9  A    between atoms: O_24  and  C_25
REMARK   10  A    between atoms: C_30  and  O_32
REMARK   11  A    between atoms: O_32  and  C_33
REMARK                            x       y       z     vdW  Elec       q    Type
REMARK                         _______ _______ _______ _____ _____    ______ ____
ROOT
ATOM      1  C   UNL     1      -4.941   0.853   0.421  0.00  0.00    -0.028 C 
ATOM      2  C   UNL     1      -3.789   1.783   0.030  0.00  0.00    +0.044 C 
ATOM      3  C   UNL     1      -2.501   1.009   0.020  0.00  0.00    +0.040 C 
ATOM      4  N   UNL     1      -2.454  -0.270   0.008  0.00  0.00    -0.299 NA
ATOM      5  C   UNL     1      -3.629  -1.132   0.024  0.00  0.00    +0.081 C 
ATOM      6  N   UNL     1      -4.829  -0.383  -0.379  0.00  0.00    +0.401 N 
ATOM      7  H   UNL     1      -4.761  -0.139  -1.374  0.00  0.00    -0.081 HD
ATOM      8  H   UNL     1      -5.661  -0.965  -0.225  0.00  0.00    -0.081 HD
ENDROOT
BRANCH   1  13
ATOM      9  C   UNL     1      -7.984   3.082   0.740  0.00  0.00    +0.162 A 
ATOM     10  C   UNL     1      -8.681   2.756  -0.413  0.00  0.00    +0.049 A 
ATOM     11  C   UNL     1      -8.167   1.818  -1.289  0.00  0.00    +0.004 A 
ATOM     12  C   UNL     1      -6.956   1.208  -1.021  0.00  0.00    +0.006 A 
ATOM     13  C   UNL     1      -6.259   1.524   0.129  0.00  0.00    -0.016 A 
ATOM     14  C   UNL     1      -6.768   2.463   1.012  0.00  0.00    +0.160 A 
BRANCH  14  15
ATOM     15  O   UNL     1      -6.080   2.779   2.142  0.00  0.00    -0.503 OA
ATOM     16  H   UNL     1      -5.458   3.511   2.032  0.00  0.00    +0.292 HD
ENDBRANCH  14  15
BRANCH   9  17
ATOM     17  O   UNL     1      -8.488   4.004   1.603  0.00  0.00    -0.489 OA
BRANCH  17  19
ATOM     18  C   UNL     1     -10.143   5.603   2.340  0.00  0.00    +0.048 C 
ATOM     19  C   UNL     1      -9.741   4.598   1.259  0.00  0.00    +0.226 C 
ENDBRANCH  17  19
ENDBRANCH   9  17
ENDBRANCH   1  13
BRANCH   5  20
ATOM     20  C   UNL     1      -3.416  -2.274  -0.936  0.00  0.00    -0.037 A 
ATOM     21  C   UNL     1      -4.500  -2.864  -1.559  0.00  0.00    +0.004 A 
ATOM     22  C   UNL     1      -4.309  -3.911  -2.441  0.00  0.00    +0.004 A 
ATOM     23  C   UNL     1      -3.032  -4.371  -2.701  0.00  0.00    +0.045 A 
ATOM     24  C   UNL     1      -1.943  -3.781  -2.078  0.00  0.00    +0.120 A 
ATOM     25  C   UNL     1      -2.138  -2.727  -1.197  0.00  0.00    +0.049 A 
BRANCH  24  26
ATOM     26  O   UNL     1      -0.686  -4.232  -2.332  0.00  0.00    -0.495 OA
ATOM     27  C   UNL     1      -0.560  -5.317  -3.253  0.00  0.00    +0.277 C 
ENDBRANCH  24  26
ENDBRANCH   5  20
BRANCH   3  28
ATOM     28  C   UNL     1      -1.229   1.759   0.017  0.00  0.00    -0.001 A 
ATOM     29  C   UNL     1      -1.239   3.156   0.029  0.00  0.00    +0.010 A 
ATOM     30  C   UNL     1      -0.049   3.854   0.021  0.00  0.00    +0.004 A 
ATOM     31  C   UNL     1       1.155   3.175   0.007  0.00  0.00    +0.045 A 
ATOM     32  C   UNL     1       1.176   1.787   0.000  0.00  0.00    +0.121 A 
ATOM     33  C   UNL     1      -0.013   1.076   0.008  0.00  0.00    +0.055 A 
BRANCH  32  34
ATOM     34  O   UNL     1       2.363   1.125  -0.014  0.00  0.00    -0.495 OA
ATOM     35  C   UNL     1       3.549   1.921  -0.021  0.00  0.00    +0.277 C 
ENDBRANCH  32  34
ENDBRANCH   3  28
TORSDOF 8
