REMARK  Name = ZINC28570679
REMARK  6 active torsions:
REMARK  status: ('A' for Active; 'I' for Inactive)
REMARK    1  A    between atoms: C_1  and  N_2
REMARK    2  A    between atoms: C_6  and  N_8
REMARK    3  A    between atoms: N_8  and  C_9
REMARK    4  A    between atoms: C_9  and  N_10
REMARK    5  A    between atoms: C_12  and  C_17
REMARK    6  A    between atoms: N_22  and  C_23
REMARK                            x       y       z     vdW  Elec       q    Type
REMARK                         _______ _______ _______ _____ _____    ______ ____
ROOT
ATOM      1  N   UNL     1       2.522  -7.096  -0.666  0.00  0.00    -0.316 N 
ATOM      2  C   UNL     1       3.865  -6.915  -0.962  0.00  0.00    +0.132 A 
ATOM      3  C   UNL     1       4.309  -5.678  -1.458  0.00  0.00    +0.078 A 
ATOM      4  C   UNL     1       5.666  -5.519  -1.755  0.00  0.00    +0.018 A 
ATOM      5  C   UNL     1       6.517  -6.590  -1.535  0.00  0.00    +0.021 A 
ATOM      6  C   UNL     1       6.005  -7.776  -1.044  0.00  0.00    +0.113 A 
ATOM      7  N   UNL     1       4.720  -7.907  -0.776  0.00  0.00    -0.240 NA
ATOM      8  H   UNL     1       1.808  -6.273  -0.820  0.00  0.00    +0.149 HD
ENDROOT
BRANCH   3   9
ATOM      9  C   UNL     1       3.360  -4.567  -1.667  0.00  0.00    +0.253 A 
ATOM     10  N   UNL     1       2.070  -4.594  -1.433  0.00  0.00    -0.106 NA
ATOM     11  N   UNL     1       1.558  -3.451  -1.731  0.00  0.00    -0.092 NA
ATOM     12  C   UNL     1       2.500  -2.650  -2.167  0.00  0.00    +0.312 A 
ATOM     13  O   UNL     1       3.658  -3.337  -2.141  0.00  0.00    -0.405 OA
ATOM     14  N   UNL     1       2.334  -1.342  -2.581  0.00  0.00    -0.268 N 
ATOM     15  H   UNL     1       3.181  -0.792  -3.019  0.00  0.00    +0.157 HD
BRANCH  14  16
ATOM     16  C   UNL     1       1.090  -0.717  -2.444  0.00  0.00    +0.039 A 
ATOM     17  C   UNL     1       0.208  -1.132  -1.454  0.00  0.00    +0.027 A 
ATOM     18  C   UNL     1      -1.020  -0.516  -1.319  0.00  0.00    +0.051 A 
ATOM     19  C   UNL     1      -1.379   0.518  -2.171  0.00  0.00    +0.162 A 
ATOM     20  C   UNL     1      -0.498   0.938  -3.161  0.00  0.00    +0.164 A 
ATOM     21  C   UNL     1       0.735   0.319  -3.297  0.00  0.00    +0.072 A 
ATOM     22  O   UNL     1      -0.829   1.958  -4.001  0.00  0.00    -0.485 OA
ATOM     23  C   UNL     1      -2.215   2.304  -4.078  0.00  0.00    +0.270 C 
ATOM     24  C   UNL     1      -2.771   2.387  -2.650  0.00  0.00    +0.270 C 
ATOM     25  O   UNL     1      -2.598   1.108  -2.028  0.00  0.00    -0.485 OA
ENDBRANCH  14  16
ENDBRANCH   3   9
BRANCH   1  26
ATOM     26  C   UNL     1       2.054  -8.385  -0.149  0.00  0.00    +0.186 C 
BRANCH  26  27
ATOM     27  N   UNL     1       2.010  -8.336   1.319  0.00  0.00    -0.315 NA
ATOM     28  H   UNL     1       2.731  -7.583   1.669  0.00  0.00    +0.122 HD
BRANCH  27  34
ATOM     29  C   UNL     1       0.785 -10.394   2.044  0.00  0.00    -0.094 C 
ATOM     30  N   UNL     1      -0.031  -9.194   2.270  0.00  0.00    +0.388 N 
ATOM     31  C   UNL     1      -0.339  -9.026   3.706  0.00  0.00    -0.077 C 
ATOM     32  C   UNL     1      -0.374  -7.493   3.926  0.00  0.00    -0.019 C 
ATOM     33  C   UNL     1       0.768  -7.016   2.991  0.00  0.00    -0.002 C 
ATOM     34  C   UNL     1       0.665  -7.984   1.794  0.00  0.00    -0.000 C 
ATOM     35  H   UNL     1      -0.963  -9.332   1.701  0.00  0.00    -0.080 HD
ENDBRANCH  27  34
ENDBRANCH  26  27
ENDBRANCH   1  26
TORSDOF 5
