REMARK  Name = ZINC35486256
REMARK  10 active torsions:
REMARK  status: ('A' for Active; 'I' for Inactive)
REMARK    1  A    between atoms: C_1  and  C_2
REMARK    2  A    between atoms: C_2  and  N_3
REMARK    3  A    between atoms: N_3  and  C_4
REMARK    4  A    between atoms: N_3  and  C_6
REMARK    5  A    between atoms: C_4  and  C_5
REMARK    6  A    between atoms: C_6  and  C_7
REMARK    7  A    between atoms: C_7  and  N_8
REMARK    8  A    between atoms: C_9  and  C_25
REMARK    9  A    between atoms: C_28  and  S_31
REMARK   10  A    between atoms: S_31  and  C_32
REMARK                            x       y       z     vdW  Elec       q    Type
REMARK                         _______ _______ _______ _____ _____    ______ ____
ROOT
ATOM      1  N   UNL     1       1.715  -4.041   2.433  0.00  0.00    -0.285 N 
ATOM      2  C   UNL     1       0.730  -5.063   2.820  0.00  0.00    +0.144 C 
ATOM      3  C   UNL     1       1.380  -6.380   2.548  0.00  0.00    +0.072 A 
ATOM      4  C   UNL     1       0.900  -7.753   2.740  0.00  0.00    +0.199 A 
ATOM      5  O   UNL     1      -0.254  -8.023   3.022  0.00  0.00    -0.287 OA
ATOM      6  C   UNL     1       1.955  -8.782   2.558  0.00  0.00    +0.065 A 
ATOM      7  C   UNL     1       1.710 -10.112   2.899  0.00  0.00    +0.030 A 
ATOM      8  C   UNL     1       2.701 -11.053   2.728  0.00  0.00    +0.019 A 
ATOM      9  C   UNL     1       3.938 -10.675   2.219  0.00  0.00    +0.019 A 
ATOM     10  C   UNL     1       4.190  -9.366   1.878  0.00  0.00    +0.048 A 
ATOM     11  C   UNL     1       3.202  -8.396   2.039  0.00  0.00    +0.140 A 
ATOM     12  O   UNL     1       3.473  -7.118   1.687  0.00  0.00    -0.450 OA
ATOM     13  C   UNL     1       2.625  -6.133   2.044  0.00  0.00    +0.199 A 
ATOM     14  C   UNL     1       2.816  -4.674   1.976  0.00  0.00    +0.283 C 
ATOM     15  O   UNL     1       3.818  -4.121   1.571  0.00  0.00    -0.267 OA
ATOM     16 BR   UNL     1       2.380 -12.859   3.186  0.00  0.00    -0.050 Br
ENDROOT
BRANCH   2  17
ATOM     17  C   UNL     1       0.399  -4.938   4.285  0.00  0.00    -0.022 A 
ATOM     18  C   UNL     1       1.400  -4.654   5.196  0.00  0.00    +0.007 A 
ATOM     19  C   UNL     1       1.101  -4.538   6.539  0.00  0.00    +0.015 A 
ATOM     20  C   UNL     1      -0.208  -4.707   6.975  0.00  0.00    +0.008 A 
ATOM     21  C   UNL     1      -1.211  -4.992   6.057  0.00  0.00    +0.015 A 
ATOM     22  C   UNL     1      -0.905  -5.101   4.715  0.00  0.00    +0.007 A 
BRANCH  20  23
ATOM     23  S   UNL     1      -0.594  -4.561   8.688  0.00  0.00    -0.129 S 
ATOM     24  C   UNL     1      -2.382  -4.857   8.761  0.00  0.00    +0.090 C 
ENDBRANCH  20  23
ENDBRANCH   2  17
BRANCH   1  25
ATOM     25  C   UNL     1       1.531  -2.591   2.521  0.00  0.00    +0.090 C 
BRANCH  25  26
ATOM     26  C   UNL     1       0.921  -2.074   1.216  0.00  0.00    -0.060 C 
BRANCH  26  27
ATOM     27  N   UNL     1       0.623  -0.641   1.349  0.00  0.00    +0.380 N 
ATOM     28  H   UNL     1       0.036  -0.493   2.156  0.00  0.00    -0.082 HD
BRANCH  27  30
ATOM     29  C   UNL     1       1.561   1.581   1.774  0.00  0.00    -0.017 C 
ATOM     30  C   UNL     1       1.877   0.107   1.512  0.00  0.00    -0.082 C 
ENDBRANCH  27  30
BRANCH  27  31
ATOM     31  C   UNL     1      -0.074  -0.172   0.144  0.00  0.00    -0.082 C 
ATOM     32  C   UNL     1      -1.450  -0.837   0.059  0.00  0.00    -0.017 C 
ENDBRANCH  27  31
ENDBRANCH  26  27
ENDBRANCH  25  26
ENDBRANCH   1  25
TORSDOF 7
