REMARK  Name = ZINC41223849
REMARK  8 active torsions:
REMARK  status: ('A' for Active; 'I' for Inactive)
REMARK    1  A    between atoms: C_1  and  C_2
REMARK    2  A    between atoms: C_2  and  O_3
REMARK    3  A    between atoms: O_3  and  C_4
REMARK    4  A    between atoms: C_6  and  C_19
REMARK    5  A    between atoms: C_9  and  O_10
REMARK    6  A    between atoms: O_10  and  C_11
REMARK    7  A    between atoms: C_11  and  C_12
REMARK    8  A    between atoms: N_20  and  N_21
REMARK                            x       y       z     vdW  Elec       q    Type
REMARK                         _______ _______ _______ _____ _____    ______ ____
ROOT
ATOM      1  C   UNL     1       0.777  -1.811  -1.336  0.00  0.00    +0.163 A 
ATOM      2  C   UNL     1       0.244  -2.666  -0.389  0.00  0.00    +0.059 A 
ATOM      3  C   UNL     1       0.355  -4.048  -0.559  0.00  0.00    -0.002 A 
ATOM      4  C   UNL     1       1.003  -4.560  -1.686  0.00  0.00    +0.013 A 
ATOM      5  C   UNL     1       1.532  -3.701  -2.627  0.00  0.00    +0.050 A 
ATOM      6  C   UNL     1       1.417  -2.329  -2.460  0.00  0.00    +0.162 A 
ENDROOT
BRANCH   3   7
ATOM      7  C   UNL     1      -0.211  -4.964   0.448  0.00  0.00    +0.140 C 
ATOM      8  N   UNL     1      -0.107  -6.248   0.288  0.00  0.00    -0.179 NA
BRANCH   8   9
ATOM      9  N   UNL     1      -0.645  -7.118   1.245  0.00  0.00    -0.249 N 
ATOM     10  C   UNL     1      -0.535  -8.473   1.077  0.00  0.00    +0.187 C 
ATOM     11  N   UNL     1      -1.047  -9.301   1.987  0.00  0.00    -0.370 N 
ATOM     12  N   UNL     1       0.082  -8.963   0.003  0.00  0.00    -0.370 N 
ATOM     13  H   UNL     1      -1.094  -6.761   2.027  0.00  0.00    +0.192 HD
ATOM     14  H   UNL     1      -1.496  -8.944   2.769  0.00  0.00    +0.159 HD
ATOM     15  H   UNL     1       0.455  -8.360  -0.660  0.00  0.00    +0.159 HD
ATOM     16  H   UNL     1       0.160  -9.923  -0.117  0.00  0.00    +0.159 HD
ATOM     17  H   UNL     1      -0.969 -10.261   1.867  0.00  0.00    +0.159 HD
ENDBRANCH   8   9
ENDBRANCH   3   7
BRANCH   1  18
ATOM     18  O   UNL     1       0.671  -0.465  -1.174  0.00  0.00    -0.489 OA
BRANCH  18  20
ATOM     19  C   UNL     1      -0.019   1.526   0.010  0.00  0.00    +0.048 C 
ATOM     20  C   UNL     1       0.002  -0.004   0.002  0.00  0.00    +0.226 C 
ENDBRANCH  18  20
ENDBRANCH   1  18
BRANCH   6  21
ATOM     21  O   UNL     1       1.935  -1.486  -3.393  0.00  0.00    -0.484 OA
BRANCH  21  22
ATOM     22  C   UNL     1       2.578  -2.084  -4.521  0.00  0.00    +0.264 C 
BRANCH  22  23
ATOM     23  C   UNL     1       3.086  -1.004  -5.440  0.00  0.00    -0.010 A 
ATOM     24  C   UNL     1       2.275  -0.515  -6.447  0.00  0.00    +0.008 A 
ATOM     25  C   UNL     1       2.740   0.476  -7.290  0.00  0.00    +0.015 A 
ATOM     26  C   UNL     1       4.018   0.979  -7.127  0.00  0.00    +0.018 A 
ATOM     27  C   UNL     1       4.830   0.490  -6.119  0.00  0.00    +0.015 A 
ATOM     28  C   UNL     1       4.362  -0.498  -5.273  0.00  0.00    +0.008 A 
ATOM     29 BR   UNL     1       4.656   2.335  -8.281  0.00  0.00    -0.050 Br
ENDBRANCH  22  23
ENDBRANCH  21  22
ENDBRANCH   6  21
TORSDOF 7
