REMARK  Name = ZINC15499939
REMARK  13 active torsions:
REMARK  status: ('A' for Active; 'I' for Inactive)
REMARK    1  A    between atoms: C_1  and  C_2
REMARK    2  A    between atoms: C_5  and  O_27
REMARK    3  A    between atoms: C_6  and  C_8
REMARK    4  A    between atoms: C_8  and  C_10
REMARK    5  A    between atoms: C_8  and  N_52
REMARK    6  A    between atoms: C_11  and  C_13
REMARK    7  A    between atoms: C_11  and  C_14
REMARK    8  A    between atoms: C_11  and  N_52
REMARK    9  A    between atoms: C_14  and  C_16
REMARK   10  A    between atoms: C_17  and  N_26
REMARK   11  A    between atoms: N_18  and  C_25
REMARK   12  A    between atoms: N_21  and  C_24
REMARK   13  A    between atoms: O_27  and  C_28
REMARK                            x       y       z     vdW  Elec       q    Type
REMARK                         _______ _______ _______ _____ _____    ______ ____
ROOT
ATOM      1  C   UNL     1      -2.401  -0.263   0.212  0.00  0.00    -0.001 C 
ATOM      2  C   UNL     1      -2.323  -0.591   1.704  0.00  0.00    -0.006 C 
ENDROOT
BRANCH   1   3
ATOM      3  N   UNL     1      -3.652  -0.808  -0.348  0.00  0.00    +0.390 N 
ATOM      4  H   UNL     1      -4.409  -0.691   0.336  0.00  0.00    -0.084 HD
ATOM      5  H   UNL     1      -3.887  -0.300  -1.209  0.00  0.00    -0.084 HD
BRANCH   3   6
ATOM      6  C   UNL     1      -3.493  -2.241  -0.657  0.00  0.00    -0.040 C 
ATOM      7  C   UNL     1      -4.873  -2.900  -0.709  0.00  0.00    -0.009 C 
BRANCH   6  13
ATOM      8  C   UNL     1      -2.178  -0.343  -5.095  0.00  0.00    +0.044 C 
ATOM      9  C   UNL     1      -2.182  -1.489  -4.117  0.00  0.00    -0.050 A 
ATOM     10  C   UNL     1      -1.562  -2.680  -4.446  0.00  0.00    +0.007 A 
ATOM     11  C   UNL     1      -1.564  -3.731  -3.550  0.00  0.00    +0.046 A 
ATOM     12  C   UNL     1      -2.186  -3.590  -2.318  0.00  0.00    +0.122 A 
ATOM     13  C   UNL     1      -2.812  -2.396  -1.992  0.00  0.00    -0.020 A 
ATOM     14  C   UNL     1      -2.807  -1.347  -2.891  0.00  0.00    +0.009 A 
BRANCH  12  15
ATOM     15  O   UNL     1      -2.185  -4.622  -1.433  0.00  0.00    -0.495 OA
ATOM     16  C   UNL     1      -1.521  -5.822  -1.836  0.00  0.00    +0.277 C 
ENDBRANCH  12  15
ENDBRANCH   6  13
ENDBRANCH   3   6
ENDBRANCH   1   3
BRANCH   1  17
ATOM     17  C   UNL     1      -2.386   1.232   0.025  0.00  0.00    +0.158 C 
ATOM     18  O   UNL     1      -3.424   1.830  -0.173  0.00  0.00    -0.294 OA
BRANCH  17  19
ATOM     19  C   UNL     1      -1.165   1.938   0.081  0.00  0.00    +0.118 A 
ATOM     20  C   UNL     1      -1.137   3.343   0.039  0.00  0.00    +0.116 A 
ATOM     21  N   UNL     1       0.070   3.981   0.090  0.00  0.00    -0.284 N 
ATOM     22  C   UNL     1       1.219   3.294   0.183  0.00  0.00    +0.333 A 
ATOM     23  O   UNL     1       2.267   3.909   0.226  0.00  0.00    -0.246 OA
ATOM     24  N   UNL     1       1.254   1.953   0.232  0.00  0.00    -0.263 N 
ATOM     25  C   UNL     1       0.116   1.229   0.189  0.00  0.00    +0.269 A 
ATOM     26  O   UNL     1       0.151   0.013   0.232  0.00  0.00    -0.267 OA
ATOM     27  C   UNL     1       2.544   1.266   0.334  0.00  0.00    +0.157 C 
ATOM     28  C   UNL     1       0.110   5.445   0.041  0.00  0.00    +0.155 C 
BRANCH  20  29
ATOM     29  N   UNL     1      -2.292   4.055  -0.057  0.00  0.00    -0.344 N 
ATOM     30  H   UNL     1      -2.282   4.947  -0.438  0.00  0.00    +0.144 HD
ATOM     31  H   UNL     1      -3.126   3.671   0.257  0.00  0.00    +0.144 HD
ENDBRANCH  20  29
ENDBRANCH  17  19
ENDBRANCH   1  17
TORSDOF 7
