REMARK  Name = ZINC49605872
REMARK  10 active torsions:
REMARK  status: ('A' for Active; 'I' for Inactive)
REMARK    1  A    between atoms: C_1  and  C_2
REMARK    2  A    between atoms: C_2  and  C_4
REMARK    3  A    between atoms: C_2  and  N_14
REMARK    4  A    between atoms: C_7  and  S_10
REMARK    5  A    between atoms: S_10  and  N_13
REMARK    6  A    between atoms: N_14  and  C_15
REMARK    7  A    between atoms: C_15  and  C_16
REMARK    8  A    between atoms: N_18  and  C_19
REMARK    9  A    between atoms: N_18  and  C_25
REMARK   10  A    between atoms: C_19  and  C_20
REMARK                            x       y       z     vdW  Elec       q    Type
REMARK                         _______ _______ _______ _____ _____    ______ ____
ROOT
ATOM      1  N   UNL     1       0.768  -0.325   1.194  0.00  0.00    +0.389 N 
ATOM      2  H   UNL     1       0.857  -1.328   1.138  0.00  0.00    -0.084 HD
ATOM      3  H   UNL     1       1.686   0.093   1.227  0.00  0.00    -0.084 HD
ENDROOT
BRANCH   1   5
ATOM      4  C   UNL     1       0.022   1.700   0.035  0.00  0.00    -0.009 C 
ATOM      5  C   UNL     1       0.048   0.170   0.013  0.00  0.00    -0.043 C 
BRANCH   5   6
ATOM      6  C   UNL     1       0.746  -0.303  -1.236  0.00  0.00    -0.062 A 
ATOM      7  C   UNL     1       2.127  -0.318  -1.292  0.00  0.00    +0.004 A 
ATOM      8  C   UNL     1       2.768  -0.752  -2.437  0.00  0.00    +0.029 A 
ATOM      9  C   UNL     1       2.027  -1.170  -3.527  0.00  0.00    +0.105 A 
ATOM     10  C   UNL     1       0.646  -1.155  -3.471  0.00  0.00    +0.029 A 
ATOM     11  C   UNL     1       0.006  -0.726  -2.324  0.00  0.00    +0.004 A 
BRANCH   9  12
ATOM     12  S   UNL     1       2.844  -1.722  -4.988  0.00  0.00    +0.056 S 
ATOM     13  O   UNL     1       1.926  -1.544  -6.058  0.00  0.00    -0.153 OA
ATOM     14  O   UNL     1       4.133  -1.124  -4.983  0.00  0.00    -0.153 OA
BRANCH  12  15
ATOM     15  N   UNL     1       3.078  -3.354  -4.831  0.00  0.00    -0.204 NA
ATOM     16  H   UNL     1       2.776  -3.813  -4.032  0.00  0.00    +0.144 HD
ATOM     17  H   UNL     1       3.517  -3.851  -5.539  0.00  0.00    +0.144 HD
ENDBRANCH  12  15
ENDBRANCH   9  12
ENDBRANCH   5   6
ENDBRANCH   1   5
BRANCH   1  18
ATOM     18  C   UNL     1       0.023   0.034   2.408  0.00  0.00    +0.016 C 
BRANCH  18  19
ATOM     19  C   UNL     1       0.762  -0.473   3.619  0.00  0.00    +0.199 C 
ATOM     20  O   UNL     1       1.830  -1.033   3.488  0.00  0.00    -0.278 OA
ATOM     21  N   UNL     1       0.236  -0.305   4.849  0.00  0.00    -0.291 N 
BRANCH  21  22
ATOM     22  C   UNL     1       1.003  -0.697   6.034  0.00  0.00    +0.099 C 
ATOM     23  C   UNL     1       1.264  -2.212   5.995  0.00  0.00    +0.047 C 
ATOM     24  C   UNL     1       2.330  -2.548   7.077  0.00  0.00    +0.168 C 
ATOM     25  S   UNL     1       3.484  -1.126   6.865  0.00  0.00    -0.029 S 
ATOM     26  O   UNL     1       4.505  -1.492   5.947  0.00  0.00    -0.174 OA
ATOM     27  O   UNL     1       3.842  -0.627   8.146  0.00  0.00    -0.174 OA
ATOM     28  C   UNL     1       2.349   0.068   6.051  0.00  0.00    +0.188 C 
ENDBRANCH  21  22
BRANCH  21  29
ATOM     29  C   UNL     1      -1.103   0.269   5.000  0.00  0.00    +0.182 C 
BRANCH  29  30
ATOM     30  C   UNL     1      -2.128  -0.836   4.988  0.00  0.00    +0.122 A 
ATOM     31  C   UNL     1      -2.583  -1.499   6.067  0.00  0.00    +0.046 A 
ATOM     32  C   UNL     1      -3.526  -2.443   5.600  0.00  0.00    +0.041 A 
ATOM     33  C   UNL     1      -3.591  -2.301   4.264  0.00  0.00    +0.195 A 
ATOM     34  O   UNL     1      -2.746  -1.322   3.900  0.00  0.00    -0.466 OA
ENDBRANCH  29  30
ENDBRANCH  21  29
ENDBRANCH  18  19
ENDBRANCH   1  18
TORSDOF 9
