REMARK  Name = ZINC27537430
REMARK  8 active torsions:
REMARK  status: ('A' for Active; 'I' for Inactive)
REMARK    1  A    between atoms: C_1  and  C_2
REMARK    2  A    between atoms: C_2  and  C_4
REMARK    3  A    between atoms: C_2  and  N_11
REMARK    4  A    between atoms: N_11  and  C_12
REMARK    5  A    between atoms: C_12  and  C_14
REMARK    6  A    between atoms: C_12  and  C_15
REMARK    7  A    between atoms: N_17  and  C_18
REMARK    8  A    between atoms: C_19  and  C_23
REMARK                            x       y       z     vdW  Elec       q    Type
REMARK                         _______ _______ _______ _____ _____    ______ ____
ROOT
ATOM      1  C   UNL     1      -2.542   3.596   1.508  0.00  0.00    +0.014 C 
ATOM      2  C   UNL     1      -3.392   4.370   0.498  0.00  0.00    -0.004 C 
ENDROOT
BRANCH   1   3
ATOM      3  C   UNL     1      -2.351   4.432   2.748  0.00  0.00    +0.203 C 
ATOM      4  O   UNL     1      -1.234   4.744   3.102  0.00  0.00    -0.277 OA
ATOM      5  N   UNL     1      -3.421   4.832   3.462  0.00  0.00    -0.281 N 
ATOM      6  H   UNL     1      -4.434   4.548   3.140  0.00  0.00    +0.155 HD
BRANCH   5   7
ATOM      7  C   UNL     1      -3.245   5.600   4.603  0.00  0.00    +0.084 A 
ATOM      8  C   UNL     1      -4.215   6.108   5.460  0.00  0.00    +0.065 A 
ATOM      9  C   UNL     1      -3.746   6.880   6.585  0.00  0.00    +0.022 A 
ATOM     10  C   UNL     1      -2.417   7.050   6.703  0.00  0.00    +0.048 A 
ATOM     11  S   UNL     1      -1.765   6.165   5.301  0.00  0.00    -0.081 S 
BRANCH   8  12
ATOM     12  C   UNL     1      -5.644   5.868   5.233  0.00  0.00    +0.244 C 
ATOM     13  O   UNL     1      -6.006   5.209   4.276  0.00  0.00    -0.270 OA
ATOM     14  N   UNL     1      -6.556   6.376   6.085  0.00  0.00    -0.325 N 
ATOM     15  H   UNL     1      -7.628   6.196   5.915  0.00  0.00    +0.145 HD
ATOM     16  H   UNL     1      -6.228   6.971   6.950  0.00  0.00    +0.145 HD
ENDBRANCH   8  12
ENDBRANCH   5   7
ENDBRANCH   1   3
BRANCH   1  17
ATOM     17  N   UNL     1      -1.232   3.294   0.915  0.00  0.00    +0.391 N 
ATOM     18  H   UNL     1      -0.503   3.150   1.725  0.00  0.00    -0.084 HD
ATOM     19  H   UNL     1      -0.923   4.144   0.289  0.00  0.00    -0.084 HD
BRANCH  17  21
ATOM     20  C   UNL     1      -0.163   2.099  -0.936  0.00  0.00    -0.009 C 
ATOM     21  C   UNL     1      -1.296   2.079   0.092  0.00  0.00    -0.043 C 
BRANCH  21  22
ATOM     22  C   UNL     1      -1.151   0.866   0.975  0.00  0.00    -0.062 A 
ATOM     23  C   UNL     1      -0.243   0.875   2.018  0.00  0.00    +0.003 A 
ATOM     24  C   UNL     1      -0.106  -0.239   2.824  0.00  0.00    +0.020 A 
ATOM     25  C   UNL     1      -0.876  -1.363   2.587  0.00  0.00    +0.041 A 
ATOM     26  C   UNL     1      -1.784  -1.372   1.543  0.00  0.00    +0.020 A 
ATOM     27  C   UNL     1      -1.921  -0.258   0.738  0.00  0.00    +0.003 A 
ATOM     28 CL   UNL     1      -0.704  -2.763   3.600  0.00  0.00    -0.084 Cl
ENDBRANCH  21  22
ENDBRANCH  17  21
ENDBRANCH   1  17
TORSDOF 6
