REMARK  Name = ZINC38506993
REMARK  10 active torsions:
REMARK  status: ('A' for Active; 'I' for Inactive)
REMARK    1  A    between atoms: C_1  and  C_2
REMARK    2  A    between atoms: C_4  and  C_10
REMARK    3  A    between atoms: N_5  and  C_7
REMARK    4  A    between atoms: C_7  and  C_8
REMARK    5  A    between atoms: C_7  and  C_9
REMARK    6  A    between atoms: N_12  and  C_13
REMARK    7  A    between atoms: C_14  and  C_25
REMARK    8  A    between atoms: N_19  and  C_22
REMARK    9  A    between atoms: C_22  and  C_23
REMARK   10  A    between atoms: C_22  and  C_24
REMARK                            x       y       z     vdW  Elec       q    Type
REMARK                         _______ _______ _______ _____ _____    ______ ____
ROOT
ATOM      1  C   UNL     1       0.255  -5.322  -1.229  0.00  0.00    +0.085 A 
ATOM      2  C   UNL     1       0.364  -6.600  -0.699  0.00  0.00    +0.068 A 
ATOM      3  C   UNL     1       0.478  -7.697  -1.639  0.00  0.00    -0.027 A 
ATOM      4  C   UNL     1       0.464  -7.321  -2.938  0.00  0.00    -0.021 A 
ATOM      5  S   UNL     1       0.294  -5.563  -2.892  0.00  0.00    -0.079 S 
ATOM      6  C   UNL     1       0.570  -8.230  -4.121  0.00  0.00    -0.035 C 
ATOM      7  N   UNL     1       1.070  -9.537  -3.658  0.00  0.00    +0.384 N 
ATOM      8  C   UNL     1       0.269  -9.996  -2.516  0.00  0.00    -0.073 C 
ATOM      9  C   UNL     1       0.603  -9.169  -1.270  0.00  0.00    +0.018 C 
ATOM     10  H   UNL     1       2.035  -9.447  -3.377  0.00  0.00    -0.081 HD
ENDROOT
BRANCH   2  11
ATOM     11  C   UNL     1       0.365  -6.829   0.749  0.00  0.00    +0.244 C 
ATOM     12  O   UNL     1      -0.685  -7.021   1.335  0.00  0.00    -0.270 OA
ATOM     13  N   UNL     1       1.527  -6.828   1.431  0.00  0.00    -0.325 N 
ATOM     14  H   UNL     1       2.363  -6.675   0.964  0.00  0.00    +0.145 HD
ATOM     15  H   UNL     1       1.527  -6.980   2.389  0.00  0.00    +0.145 HD
ENDBRANCH   2  11
BRANCH   1  18
ATOM     16  C   UNL     1       0.033  -2.966  -1.227  0.00  0.00    +0.267 C 
ATOM     17  O   UNL     1      -0.050  -2.980  -2.441  0.00  0.00    -0.268 OA
ATOM     18  N   UNL     1       0.135  -4.124  -0.545  0.00  0.00    -0.274 N 
ATOM     19  H   UNL     1       0.125  -4.118   0.425  0.00  0.00    +0.156 HD
BRANCH  16  23
ATOM     20  C   UNL     1      -0.012   0.589   2.389  0.00  0.00    +0.067 C 
ATOM     21  C   UNL     1       0.003  -0.122   1.060  0.00  0.00    +0.061 A 
ATOM     22  C   UNL     1       0.009  -1.505   0.868  0.00  0.00    +0.057 A 
ATOM     23  C   UNL     1       0.023  -1.685  -0.504  0.00  0.00    +0.124 A 
ATOM     24  N   UNL     1       0.025  -0.433  -1.053  0.00  0.00    -0.256 N 
ATOM     25  N   UNL     1       0.009   0.447  -0.118  0.00  0.00    -0.176 NA
BRANCH  24  26
ATOM     26  C   UNL     1       0.039  -0.141  -2.488  0.00  0.00    +0.102 C 
ATOM     27  C   UNL     1      -1.140   0.771  -2.834  0.00  0.00    +0.032 C 
ATOM     28  C   UNL     1       1.350   0.559  -2.853  0.00  0.00    +0.032 C 
ENDBRANCH  24  26
ENDBRANCH  16  23
ENDBRANCH   1  18
BRANCH   7  29
ATOM     29  C   UNL     1       0.969 -10.515  -4.750  0.00  0.00    -0.074 C 
ATOM     30  C   UNL     1       1.699  -9.979  -5.983  0.00  0.00    -0.014 C 
ATOM     31  C   UNL     1       1.607 -11.835  -4.314  0.00  0.00    -0.014 C 
ENDBRANCH   7  29
TORSDOF 5
