REMARK  Name = ZINC44714473
REMARK  10 active torsions:
REMARK  status: ('A' for Active; 'I' for Inactive)
REMARK    1  A    between atoms: C_1  and  C_2
REMARK    2  A    between atoms: C_2  and  C_3
REMARK    3  A    between atoms: C_3  and  C_5
REMARK    4  A    between atoms: C_3  and  C_6
REMARK    5  A    between atoms: C_10  and  C_19
REMARK    6  A    between atoms: N_21  and  C_22
REMARK    7  A    between atoms: C_22  and  C_23
REMARK    8  A    between atoms: C_23  and  C_24
REMARK    9  A    between atoms: C_25  and  C_36
REMARK   10  A    between atoms: C_31  and  C_34
REMARK                            x       y       z     vdW  Elec       q    Type
REMARK                         _______ _______ _______ _____ _____    ______ ____
ROOT
ATOM      1  C   UNL     1       4.313  -2.572  -2.357  0.00  0.00    +0.218 C 
ATOM      2  O   UNL     1       4.032  -1.939  -1.362  0.00  0.00    -0.275 OA
ATOM      3  N   UNL     1       5.584  -2.970  -2.566  0.00  0.00    -0.315 N 
ATOM      4  H   UNL     1       5.808  -3.477  -3.363  0.00  0.00    +0.149 HD
ENDROOT
BRANCH   1   9
ATOM      5  C   UNL     1       0.340  -1.897  -1.447  0.00  0.00    +0.218 C 
ATOM      6  O   UNL     1      -0.366  -2.559  -0.715  0.00  0.00    -0.275 OA
ATOM      7  N   UNL     1       1.091  -2.504  -2.388  0.00  0.00    -0.300 N 
ATOM      8  C   UNL     1       2.091  -1.885  -3.290  0.00  0.00    +0.121 C 
ATOM      9  C   UNL     1       3.242  -2.914  -3.361  0.00  0.00    +0.100 C 
ATOM     10  C   UNL     1       2.587  -4.260  -3.010  0.00  0.00    -0.004 C 
ATOM     11  C   UNL     1       1.107  -3.941  -2.750  0.00  0.00    +0.115 C 
ATOM     12  C   UNL     1       3.222  -4.846  -1.754  0.00  0.00    -0.010 C 
ATOM     13  C   UNL     1       2.594  -6.211  -1.458  0.00  0.00    -0.082 C 
ATOM     14  N   UNL     1       2.806  -7.107  -2.602  0.00  0.00    +0.379 N 
ATOM     15  C   UNL     1       2.113  -6.582  -3.784  0.00  0.00    -0.082 C 
ATOM     16  C   UNL     1       2.721  -5.233  -4.178  0.00  0.00    -0.010 C 
ATOM     17  H   UNL     1       3.794  -7.175  -2.795  0.00  0.00    -0.086 HD
ATOM     18  H   UNL     1       2.445  -8.023  -2.381  0.00  0.00    -0.086 HD
BRANCH   5  19
ATOM     19  C   UNL     1       0.377  -0.398  -1.305  0.00  0.00    +0.072 C 
ATOM     20  C   UNL     1       0.223  -0.022   0.171  0.00  0.00    +0.017 C 
BRANCH  19  22
ATOM     21  C   UNL     1      -0.657   1.745  -2.067  0.00  0.00    +0.004 C 
ATOM     22  C   UNL     1      -0.768   0.220  -2.110  0.00  0.00    +0.009 C 
ENDBRANCH  19  22
ENDBRANCH   5  19
ENDBRANCH   1   9
BRANCH   3  23
ATOM     23  C   UNL     1       6.625  -2.639  -1.591  0.00  0.00    +0.109 C 
BRANCH  23  24
ATOM     24  C   UNL     1       7.966  -3.204  -2.064  0.00  0.00    +0.056 C 
BRANCH  24  25
ATOM     25  C   UNL     1       9.037  -2.862  -1.061  0.00  0.00    -0.018 A 
ATOM     26  C   UNL     1       9.803  -1.760  -1.054  0.00  0.00    +0.017 A 
ATOM     27  N   UNL     1      10.663  -1.796   0.010  0.00  0.00    -0.358 N 
ATOM     28  H   UNL     1      11.314  -1.109   0.223  0.00  0.00    +0.166 HD
ATOM     29  C   UNL     1      10.470  -2.950   0.731  0.00  0.00    +0.047 A 
ATOM     30  C   UNL     1       9.438  -3.668   0.096  0.00  0.00    +0.004 A 
ATOM     31  C   UNL     1       9.019  -4.891   0.614  0.00  0.00    +0.029 A 
ATOM     32  C   UNL     1       9.627  -5.391   1.762  0.00  0.00    +0.052 A 
ATOM     33  C   UNL     1      10.650  -4.665   2.387  0.00  0.00    +0.021 A 
ATOM     34  C   UNL     1      11.066  -3.470   1.878  0.00  0.00    +0.027 A 
ATOM     35  C   UNL     1       9.726  -0.647  -2.067  0.00  0.00    +0.063 C 
BRANCH  32  36
ATOM     36  C   UNL     1       9.206  -6.647   2.306  0.00  0.00    +0.099 C 
ATOM     37  N   UNL     1       8.871  -7.643   2.737  0.00  0.00    -0.191 NA
ENDBRANCH  32  36
ENDBRANCH  24  25
ENDBRANCH  23  24
ENDBRANCH   3  23
TORSDOF 7
