REMARK  Name = ZINC40573150
REMARK  9 active torsions:
REMARK  status: ('A' for Active; 'I' for Inactive)
REMARK    1  A    between atoms: C_1  and  C_2
REMARK    2  A    between atoms: C_5  and  C_8
REMARK    3  A    between atoms: C_5  and  N_11
REMARK    4  A    between atoms: N_14  and  C_15
REMARK    5  A    between atoms: C_15  and  C_17
REMARK    6  A    between atoms: C_15  and  C_18
REMARK    7  A    between atoms: C_18  and  C_19
REMARK    8  A    between atoms: C_19  and  C_20
REMARK    9  A    between atoms: C_19  and  C_21
REMARK                            x       y       z     vdW  Elec       q    Type
REMARK                         _______ _______ _______ _____ _____    ______ ____
ROOT
ATOM      1  N   UNL     1      -1.358  -2.098   2.449  0.00  0.00    -0.284 N 
ATOM      2  C   UNL     1      -0.882  -2.424   3.667  0.00  0.00    +0.301 C 
ATOM      3  O   UNL     1       0.117  -3.110   3.765  0.00  0.00    -0.253 OA
ATOM      4  N   UNL     1      -1.513  -1.989   4.776  0.00  0.00    -0.297 N 
ATOM      5  H   UNL     1      -2.155  -1.550   2.371  0.00  0.00    +0.151 HD
ATOM      6  H   UNL     1      -2.310  -1.442   4.698  0.00  0.00    +0.151 HD
ENDROOT
BRANCH   1  11
ATOM      7  C   UNL     1      -0.019   1.526   0.010  0.00  0.00    +0.007 C 
ATOM      8  C   UNL     1       0.002  -0.004   0.002  0.00  0.00    -0.014 C 
ATOM      9  C   UNL     1      -1.433  -0.534   0.013  0.00  0.00    +0.006 C 
ATOM     10  C   UNL     1      -1.413  -2.063   0.004  0.00  0.00    +0.038 C 
ATOM     11  C   UNL     1      -0.673  -2.570   1.244  0.00  0.00    +0.137 C 
ATOM     12  C   UNL     1       0.763  -2.041   1.233  0.00  0.00    +0.038 C 
ATOM     13  C   UNL     1       0.742  -0.511   1.242  0.00  0.00    +0.006 C 
BRANCH  11  14
ATOM     14  C   UNL     1      -0.652  -4.077   1.236  0.00  0.00    +0.379 C 
ATOM     15  O   UNL     1      -0.125  -4.675   0.313  0.00  0.00    -0.244 OA
ATOM     16  O   UNL     1      -1.163  -4.699   2.152  0.00  0.00    -0.244 OA
ENDBRANCH  11  14
ENDBRANCH   1  11
BRANCH   4  17
ATOM     17  C   UNL     1      -0.995  -2.343   6.100  0.00  0.00    +0.072 C 
ATOM     18  C   UNL     1       0.093  -1.347   6.505  0.00  0.00    +0.028 C 
BRANCH  17  19
ATOM     19  C   UNL     1      -2.133  -2.300   7.121  0.00  0.00    +0.025 C 
BRANCH  19  20
ATOM     20  C   UNL     1      -3.161  -3.382   6.786  0.00  0.00    -0.015 C 
ATOM     21  C   UNL     1      -2.521  -4.762   6.952  0.00  0.00    +0.007 C 
ATOM     22  C   UNL     1      -4.358  -3.259   7.730  0.00  0.00    +0.007 C 
ENDBRANCH  19  20
ENDBRANCH  17  19
ENDBRANCH   4  17
TORSDOF 5
