REMARK  Name = ZINC09166195
REMARK  8 active torsions:
REMARK  status: ('A' for Active; 'I' for Inactive)
REMARK    1  A    between atoms: C_1  and  C_2
REMARK    2  A    between atoms: C_2  and  C_3
REMARK    3  A    between atoms: C_3  and  C_5
REMARK    4  A    between atoms: C_3  and  C_6
REMARK    5  A    between atoms: C_6  and  C_8
REMARK    6  A    between atoms: C_6  and  N_21
REMARK    7  A    between atoms: N_10  and  C_11
REMARK    8  A    between atoms: C_22  and  C_24
REMARK                            x       y       z     vdW  Elec       q    Type
REMARK                         _______ _______ _______ _____ _____    ______ ____
ROOT
ATOM      1  C   UNL     1       5.419  -2.086  -0.229  0.00  0.00    +0.162 C 
ENDROOT
BRANCH   1   2
ATOM      2  C   UNL     1       4.108  -1.347  -0.141  0.00  0.00    +0.238 C 
ATOM      3  O   UNL     1       3.093  -1.946   0.144  0.00  0.00    -0.273 OA
ATOM      4  N   UNL     1       4.064  -0.022  -0.379  0.00  0.00    -0.284 N 
ATOM      5  H   UNL     1       4.860   0.444  -0.680  0.00  0.00    +0.155 HD
BRANCH   4   6
ATOM      6  C   UNL     1       2.869   0.684  -0.193  0.00  0.00    +0.037 A 
ATOM      7  C   UNL     1       2.003   0.326   0.832  0.00  0.00    +0.027 A 
ATOM      8  C   UNL     1       0.823   1.021   1.016  0.00  0.00    +0.051 A 
ATOM      9  C   UNL     1       0.500   2.078   0.178  0.00  0.00    +0.162 A 
ATOM     10  C   UNL     1       1.366   2.441  -0.847  0.00  0.00    +0.164 A 
ATOM     11  C   UNL     1       2.549   1.742  -1.032  0.00  0.00    +0.072 A 
ATOM     12  O   UNL     1       1.069   3.481  -1.673  0.00  0.00    -0.485 OA
ATOM     13  C   UNL     1      -0.294   3.918  -1.695  0.00  0.00    +0.270 C 
ATOM     14  C   UNL     1      -0.785   4.035  -0.246  0.00  0.00    +0.270 C 
ATOM     15  O   UNL     1      -0.672   2.746   0.369  0.00  0.00    -0.485 OA
ENDBRANCH   4   6
ENDBRANCH   1   2
BRANCH   1  16
ATOM     16  N   UNL     1       5.212  -3.493   0.122  0.00  0.00    -0.305 N 
ATOM     17  C   UNL     1       6.187  -4.183   0.745  0.00  0.00    +0.200 C 
ATOM     18  O   UNL     1       7.203  -3.619   1.091  0.00  0.00    -0.278 OA
ATOM     19  H   UNL     1       4.372  -3.928  -0.094  0.00  0.00    +0.149 HD
BRANCH  17  20
ATOM     20  C   UNL     1       6.016  -5.657   1.010  0.00  0.00    +0.021 C 
ATOM     21  C   UNL     1       5.141  -5.858   2.247  0.00  0.00    +0.028 C 
ATOM     22  C   UNL     1       5.162  -7.306   2.663  0.00  0.00    -0.047 A 
ATOM     23  C   UNL     1       4.176  -7.761   3.525  0.00  0.00    +0.004 A 
ATOM     24  C   UNL     1       4.162  -9.079   3.934  0.00  0.00    +0.000 A 
ATOM     25  C   UNL     1       5.136  -9.950   3.483  0.00  0.00    +0.000 A 
ATOM     26  C   UNL     1       6.117  -9.499   2.624  0.00  0.00    +0.002 A 
ATOM     27  C   UNL     1       6.131  -8.175   2.210  0.00  0.00    -0.061 A 
ATOM     28  C   UNL     1       7.217  -7.731   1.264  0.00  0.00    -0.045 C 
ATOM     29  N   UNL     1       7.335  -6.266   1.264  0.00  0.00    +0.389 N 
ATOM     30  H   UNL     1       7.685  -5.953   2.176  0.00  0.00    -0.084 HD
ATOM     31  H   UNL     1       7.990  -5.978   0.528  0.00  0.00    -0.084 HD
ENDBRANCH  17  20
ENDBRANCH   1  16
BRANCH   1  32
ATOM     32  C   UNL     1       5.964  -1.990  -1.655  0.00  0.00    +0.015 C 
ATOM     33  C   UNL     1       7.368  -2.595  -1.706  0.00  0.00    +0.010 C 
BRANCH  32  35
ATOM     34  C   UNL     1       3.699  -2.034  -2.709  0.00  0.00    +0.004 C 
ATOM     35  C   UNL     1       5.043  -2.758  -2.605  0.00  0.00    +0.002 C 
ENDBRANCH  32  35
ENDBRANCH   1  32
TORSDOF 6
