REMARK  Name = ZINC39639401
REMARK  6 active torsions:
REMARK  status: ('A' for Active; 'I' for Inactive)
REMARK    1  A    between atoms: C_1  and  C_2
REMARK    2  A    between atoms: C_5  and  C_8
REMARK    3  A    between atoms: C_8  and  C_10
REMARK    4  A    between atoms: C_8  and  N_11
REMARK    5  A    between atoms: C_12  and  C_14
REMARK    6  A    between atoms: C_25  and  C_27
REMARK                            x       y       z     vdW  Elec       q    Type
REMARK                         _______ _______ _______ _____ _____    ______ ____
ROOT
ATOM      1  C   UNL     1       2.460  -6.468   1.999  0.00  0.00    +0.100 C 
ATOM      2  C   UNL     1       3.759  -5.632   2.021  0.00  0.00    +0.121 C 
ATOM      3  N   UNL     1       4.829  -6.610   2.326  0.00  0.00    -0.300 N 
ATOM      4  C   UNL     1       4.453  -7.820   1.556  0.00  0.00    +0.115 C 
ATOM      5  C   UNL     1       2.920  -7.903   1.693  0.00  0.00    -0.004 C 
ATOM      6  C   UNL     1       2.543  -8.836   2.840  0.00  0.00    -0.010 C 
ATOM      7  C   UNL     1       2.960 -10.266   2.487  0.00  0.00    -0.082 C 
ATOM      8  N   UNL     1       2.287 -10.683   1.251  0.00  0.00    +0.379 N 
ATOM      9  C   UNL     1       2.726  -9.839   0.133  0.00  0.00    -0.082 C 
ATOM     10  C   UNL     1       2.300  -8.390   0.387  0.00  0.00    -0.010 C 
ATOM     11  C   UNL     1       5.903  -6.439   3.123  0.00  0.00    +0.219 C 
ATOM     12  O   UNL     1       6.697  -7.343   3.272  0.00  0.00    -0.275 OA
ATOM     13  H   UNL     1       2.516 -11.646   1.053  0.00  0.00    -0.086 HD
ATOM     14  H   UNL     1       1.289 -10.593   1.366  0.00  0.00    -0.086 HD
ENDROOT
BRANCH  11  15
ATOM     15  C   UNL     1       6.115  -5.124   3.828  0.00  0.00    +0.079 C 
ATOM     16  C   UNL     1       7.404  -5.186   4.657  0.00  0.00    +0.017 C 
ATOM     17  C   UNL     1       7.501  -3.911   5.498  0.00  0.00    +0.027 C 
ATOM     18  C   UNL     1       7.275  -2.705   4.635  0.00  0.00    -0.031 C 
ATOM     19  C   UNL     1       6.730  -2.744   3.462  0.00  0.00    -0.030 C 
ATOM     20  C   UNL     1       6.252  -4.003   2.796  0.00  0.00    +0.039 C 
ENDBRANCH  11  15
BRANCH   1  22
ATOM     21  N   UNL     1       0.201  -6.111   1.058  0.00  0.00    -0.308 N 
ATOM     22  C   UNL     1       1.534  -5.972   0.919  0.00  0.00    +0.219 C 
ATOM     23  O   UNL     1       1.989  -5.448  -0.076  0.00  0.00    -0.275 OA
ATOM     24  H   UNL     1      -0.163  -6.530   1.853  0.00  0.00    +0.149 HD
BRANCH  21  25
ATOM     25  C   UNL     1      -0.699  -5.628   0.007  0.00  0.00    +0.100 C 
ATOM     26  C   UNL     1      -0.847  -6.703  -1.071  0.00  0.00    +0.033 C 
BRANCH  25  31
ATOM     27  C   UNL     1      -5.879  -4.466   2.289  0.00  0.00    +0.044 C 
ATOM     28  C   UNL     1      -4.528  -4.769   1.694  0.00  0.00    -0.050 A 
ATOM     29  C   UNL     1      -3.991  -3.930   0.736  0.00  0.00    +0.004 A 
ATOM     30  C   UNL     1      -2.752  -4.207   0.190  0.00  0.00    +0.006 A 
ATOM     31  C   UNL     1      -2.050  -5.324   0.603  0.00  0.00    -0.027 A 
ATOM     32  C   UNL     1      -2.587  -6.163   1.562  0.00  0.00    +0.006 A 
ATOM     33  C   UNL     1      -3.824  -5.883   2.111  0.00  0.00    +0.004 A 
ENDBRANCH  25  31
ENDBRANCH  21  25
ENDBRANCH   1  22
TORSDOF 4
