REMARK  Name = ZINC12788226
REMARK  10 active torsions:
REMARK  status: ('A' for Active; 'I' for Inactive)
REMARK    1  A    between atoms: C_1  and  C_2
REMARK    2  A    between atoms: C_2  and  C_3
REMARK    3  A    between atoms: C_2  and  C_4
REMARK    4  A    between atoms: C_4  and  C_6
REMARK    5  A    between atoms: C_4  and  N_23
REMARK    6  A    between atoms: N_8  and  C_9
REMARK    7  A    between atoms: C_9  and  C_10
REMARK    8  A    between atoms: C_10  and  C_12
REMARK    9  A    between atoms: C_10  and  N_60
REMARK   10  A    between atoms: C_24  and  C_26
REMARK                            x       y       z     vdW  Elec       q    Type
REMARK                         _______ _______ _______ _____ _____    ______ ____
ROOT
ATOM      1  C   UNL     1      -2.236  -4.728  -0.168  0.00  0.00    +0.234 C 
ATOM      2  O   UNL     1      -1.178  -5.221   0.162  0.00  0.00    -0.274 OA
ATOM      3  N   UNL     1      -3.394  -5.325   0.177  0.00  0.00    -0.315 N 
ATOM      4  H   UNL     1      -4.237  -4.972  -0.147  0.00  0.00    +0.149 HD
ENDROOT
BRANCH   1   5
ATOM      5  C   UNL     1      -2.256  -3.449  -0.964  0.00  0.00    +0.162 C 
BRANCH   5   6
ATOM      6  N   UNL     1      -1.063  -2.659  -0.649  0.00  0.00    -0.300 N 
ATOM      7  C   UNL     1      -1.079  -1.321  -0.811  0.00  0.00    +0.246 C 
ATOM      8  O   UNL     1      -2.082  -0.769  -1.219  0.00  0.00    -0.270 OA
ATOM      9  H   UNL     1      -0.262  -3.099  -0.324  0.00  0.00    +0.150 HD
BRANCH   7  10
ATOM     10  C   UNL     1       0.125  -0.524  -0.494  0.00  0.00    +0.055 A 
ATOM     11  C   UNL     1       1.280  -1.155  -0.026  0.00  0.00    +0.014 A 
ATOM     12  C   UNL     1       2.400  -0.405   0.269  0.00  0.00    +0.001 A 
ATOM     13  C   UNL     1       2.382   0.968   0.100  0.00  0.00    +0.001 A 
ATOM     14  C   UNL     1       1.242   1.600  -0.362  0.00  0.00    +0.021 A 
ATOM     15  C   UNL     1       0.113   0.862  -0.661  0.00  0.00    +0.053 A 
ATOM     16 CL   UNL     1      -1.315   1.656  -1.249  0.00  0.00    -0.083 Cl
ENDBRANCH   7  10
ENDBRANCH   5   6
BRANCH   5  18
ATOM     17  C   UNL     1      -3.556  -4.533  -2.802  0.00  0.00    +0.009 C 
ATOM     18  C   UNL     1      -2.271  -3.777  -2.458  0.00  0.00    +0.012 C 
ATOM     19  C   UNL     1      -2.210  -2.480  -3.266  0.00  0.00    +0.009 C 
ENDBRANCH   5  18
ENDBRANCH   1   5
BRANCH   3  20
ATOM     20  C   UNL     1      -3.379  -6.508   1.042  0.00  0.00    +0.093 C 
BRANCH  20  21
ATOM     21  C   UNL     1      -4.816  -6.908   1.383  0.00  0.00    -0.019 C 
BRANCH  21  22
ATOM     22  C   UNL     1      -5.457  -5.823   2.209  0.00  0.00    -0.041 A 
ATOM     23  C   UNL     1      -6.303  -4.907   1.610  0.00  0.00    +0.003 A 
ATOM     24  C   UNL     1      -6.895  -3.914   2.368  0.00  0.00    +0.000 A 
ATOM     25  C   UNL     1      -6.634  -3.830   3.723  0.00  0.00    +0.001 A 
ATOM     26  C   UNL     1      -5.785  -4.741   4.322  0.00  0.00    +0.020 A 
ATOM     27  C   UNL     1      -5.196  -5.738   3.564  0.00  0.00    +0.043 A 
ATOM     28 CL   UNL     1      -4.128  -6.883   4.315  0.00  0.00    -0.083 Cl
ENDBRANCH  21  22
BRANCH  21  33
ATOM     29  C   UNL     1      -4.909  -8.074  -0.752  0.00  0.00    -0.078 C 
ATOM     30  C   UNL     1      -6.051  -8.532  -1.695  0.00  0.00    -0.020 C 
ATOM     31  C   UNL     1      -7.276  -8.584  -0.754  0.00  0.00    -0.020 C 
ATOM     32  C   UNL     1      -6.918  -7.659   0.424  0.00  0.00    -0.078 C 
ATOM     33  N   UNL     1      -5.594  -7.111   0.124  0.00  0.00    +0.385 N 
ATOM     34  H   UNL     1      -5.693  -6.211  -0.359  0.00  0.00    -0.081 HD
ENDBRANCH  21  33
ENDBRANCH  20  21
ENDBRANCH   3  20
TORSDOF 8
