REMARK  Name = ZINC49532517
REMARK  9 active torsions:
REMARK  status: ('A' for Active; 'I' for Inactive)
REMARK    1  A    between atoms: C_1  and  C_2
REMARK    2  A    between atoms: C_2  and  C_3
REMARK    3  A    between atoms: C_3  and  C_5
REMARK    4  A    between atoms: C_3  and  N_10
REMARK    5  A    between atoms: N_10  and  S_11
REMARK    6  A    between atoms: S_11  and  C_14
REMARK    7  A    between atoms: C_17  and  C_20
REMARK    8  A    between atoms: C_20  and  C_22
REMARK    9  A    between atoms: C_20  and  N_23
REMARK                            x       y       z     vdW  Elec       q    Type
REMARK                         _______ _______ _______ _____ _____    ______ ____
ROOT
ATOM      1  S   UNL     1       2.422   1.387  -2.003  0.00  0.00    +0.059 S 
ATOM      2  O   UNL     1       3.823   1.559  -1.841  0.00  0.00    -0.153 OA
ATOM      3  O   UNL     1       1.793   1.419  -3.277  0.00  0.00    -0.153 OA
ENDROOT
BRANCH   1   4
ATOM      4  C   UNL     1       1.645   2.630  -1.026  0.00  0.00    +0.105 A 
ATOM      5  C   UNL     1       0.339   2.998  -1.286  0.00  0.00    +0.029 A 
ATOM      6  C   UNL     1      -0.271   3.974  -0.520  0.00  0.00    +0.004 A 
ATOM      7  C   UNL     1       0.426   4.581   0.507  0.00  0.00    -0.062 A 
ATOM      8  C   UNL     1       1.733   4.213   0.769  0.00  0.00    +0.004 A 
ATOM      9  C   UNL     1       2.341   3.234   0.005  0.00  0.00    +0.029 A 
BRANCH   7  10
ATOM     10  C   UNL     1      -0.237   5.646   1.342  0.00  0.00    -0.047 C 
ATOM     11  C   UNL     1       0.209   7.027   0.858  0.00  0.00    -0.009 C 
BRANCH  10  12
ATOM     12  N   UNL     1       0.145   5.473   2.750  0.00  0.00    +0.382 N 
ATOM     13  H   UNL     1       1.147   5.553   2.838  0.00  0.00    -0.089 HD
ATOM     14  H   UNL     1      -0.299   6.186   3.309  0.00  0.00    -0.089 HD
ATOM     15  H   UNL     1      -0.149   4.563   3.070  0.00  0.00    -0.089 HD
ENDBRANCH  10  12
ENDBRANCH   7  10
ENDBRANCH   1   4
BRANCH   1  16
ATOM     16  N   UNL     1       2.043  -0.076  -1.325  0.00  0.00    -0.182 NA
ATOM     17  H   UNL     1       2.740  -0.622  -0.929  0.00  0.00    +0.149 HD
BRANCH  16  18
ATOM     18  C   UNL     1       0.655  -0.545  -1.323  0.00  0.00    +0.113 C 
BRANCH  18  19
ATOM     19  C   UNL     1       0.428  -1.448  -2.509  0.00  0.00    +0.008 A 
ATOM     20  C   UNL     1      -0.646  -1.524  -3.331  0.00  0.00    +0.013 A 
ATOM     21  C   UNL     1      -0.635  -2.438  -4.367  0.00  0.00    +0.008 A 
ATOM     22  C   UNL     1       0.451  -3.232  -4.531  0.00  0.00    +0.045 A 
ATOM     23  S   UNL     1       1.509  -2.690  -3.199  0.00  0.00    -0.100 S 
ENDBRANCH  18  19
BRANCH  18  25
ATOM     24  C   UNL     1       0.517  -0.378   1.166  0.00  0.00    +0.006 C 
ATOM     25  C   UNL     1       0.380  -1.319  -0.033  0.00  0.00    +0.022 C 
ENDBRANCH  18  25
ENDBRANCH  16  18
ENDBRANCH   1  16
TORSDOF 7
