REMARK  Name = ZINC20117107
REMARK  10 active torsions:
REMARK  status: ('A' for Active; 'I' for Inactive)
REMARK    1  A    between atoms: C_1  and  C_2
REMARK    2  A    between atoms: C_2  and  C_3
REMARK    3  A    between atoms: C_2  and  C_4
REMARK    4  A    between atoms: C_2  and  N_5
REMARK    5  A    between atoms: C_6  and  C_8
REMARK    6  A    between atoms: C_12  and  N_14
REMARK    7  A    between atoms: N_14  and  C_15
REMARK    8  A    between atoms: C_15  and  N_17
REMARK    9  A    between atoms: C_18  and  C_20
REMARK   10  A    between atoms: C_21  and  C_22
REMARK                            x       y       z     vdW  Elec       q    Type
REMARK                         _______ _______ _______ _____ _____    ______ ____
ROOT
ATOM      1  N   UNL     1      -2.345   0.934   0.018  0.00  0.00    -0.297 N 
ATOM      2  H   UNL     1      -2.229   0.046   0.656  0.00  0.00    +0.154 HD
ENDROOT
BRANCH   1   7
ATOM      3  C   UNL     1      -5.916   1.823   0.230  0.00  0.00    +0.038 A 
ATOM      4  C   UNL     1      -5.836   3.217   0.210  0.00  0.00    +0.013 A 
ATOM      5  C   UNL     1      -4.606   3.837   0.127  0.00  0.00    +0.003 A 
ATOM      6  C   UNL     1      -3.449   3.082   0.069  0.00  0.00    +0.023 A 
ATOM      7  C   UNL     1      -3.518   1.694   0.083  0.00  0.00    +0.033 A 
ATOM      8  C   UNL     1      -4.750   1.062   0.166  0.00  0.00    +0.036 A 
BRANCH   3  10
ATOM      9  N   UNL     1      -8.359   1.895   0.381  0.00  0.00    -0.307 N 
ATOM     10  C   UNL     1      -7.233   1.157   0.320  0.00  0.00    +0.245 C 
ATOM     11  O   UNL     1      -7.300  -0.056   0.338  0.00  0.00    -0.270 OA
ATOM     12  H   UNL     1      -8.298   2.994   0.365  0.00  0.00    +0.150 HD
BRANCH   9  14
ATOM     13  C   UNL     1      -9.716   0.376   1.735  0.00  0.00    +0.031 C 
ATOM     14  C   UNL     1      -9.664   1.235   0.470  0.00  0.00    +0.026 C 
ATOM     15  C   UNL     1     -10.768   2.293   0.527  0.00  0.00    +0.031 C 
ATOM     16  C   UNL     1      -9.871   0.348  -0.759  0.00  0.00    +0.031 C 
ENDBRANCH   9  14
ENDBRANCH   3  10
ENDBRANCH   1   7
BRANCH   1  17
ATOM     17  C   UNL     1      -1.357   1.291  -0.826  0.00  0.00    +0.141 C 
ATOM     18  S   UNL     1      -1.592   2.587  -1.920  0.00  0.00    -0.018 S 
BRANCH  17  19
ATOM     19  N   UNL     1      -0.184   0.627  -0.809  0.00  0.00    -0.264 N 
ATOM     20  C   UNL     1       0.802   0.980  -1.657  0.00  0.00    +0.242 C 
ATOM     21  O   UNL     1       0.635   1.902  -2.435  0.00  0.00    -0.270 OA
ATOM     22  H   UNL     1      -0.032  -0.203  -0.103  0.00  0.00    +0.157 HD
BRANCH  20  23
ATOM     23  C   UNL     1       2.030   0.281  -1.644  0.00  0.00    +0.069 C 
ATOM     24  C   UNL     1       3.023   0.636  -2.498  0.00  0.00    +0.020 C 
BRANCH  24  25
ATOM     25  C   UNL     1       4.253  -0.064  -2.484  0.00  0.00    +0.012 A 
ATOM     26  C   UNL     1       5.385   0.137  -3.266  0.00  0.00    +0.015 A 
ATOM     27  C   UNL     1       6.452  -0.696  -3.042  0.00  0.00    +0.008 A 
ATOM     28  C   UNL     1       6.355  -1.659  -2.088  0.00  0.00    +0.046 A 
ATOM     29  S   UNL     1       4.757  -1.431  -1.454  0.00  0.00    -0.097 S 
ENDBRANCH  24  25
ENDBRANCH  20  23
ENDBRANCH  17  19
ENDBRANCH   1  17
TORSDOF 7
