REMARK  Name = ZINC52761685
REMARK  7 active torsions:
REMARK  status: ('A' for Active; 'I' for Inactive)
REMARK    1  A    between atoms: C_3  and  C_18
REMARK    2  A    between atoms: C_4  and  N_8
REMARK    3  A    between atoms: C_12  and  C_14
REMARK    4  A    between atoms: C_14  and  C_15
REMARK    5  A    between atoms: C_15  and  C_16
REMARK    6  A    between atoms: C_16  and  O_17
REMARK    7  A    between atoms: C_18  and  N_19
REMARK                            x       y       z     vdW  Elec       q    Type
REMARK                         _______ _______ _______ _____ _____    ______ ____
ROOT
ATOM      1  C   UNL     1       0.397   1.836  -0.475  0.00  0.00    +0.015 A 
ATOM      2  C   UNL     1       0.304   0.510  -0.095  0.00  0.00    +0.004 A 
ATOM      3  C   UNL     1       1.425  -0.295  -0.111  0.00  0.00    -0.044 A 
ATOM      4  C   UNL     1       2.649   0.228  -0.509  0.00  0.00    +0.032 A 
ATOM      5  C   UNL     1       2.741   1.560  -0.890  0.00  0.00    +0.038 A 
ATOM      6  C   UNL     1       1.615   2.361  -0.872  0.00  0.00    +0.020 A 
ATOM      7 BR   UNL     1       1.737   4.175  -1.391  0.00  0.00    -0.050 Br
ENDROOT
BRANCH   4   8
ATOM      8  N   UNL     1       3.786  -0.584  -0.525  0.00  0.00    -0.327 N 
ATOM      9  C   UNL     1       4.548  -1.018   0.660  0.00  0.00    +0.105 C 
ATOM     10  C   UNL     1       5.969  -1.328   0.125  0.00  0.00    +0.021 C 
ATOM     11  C   UNL     1       5.652  -1.951  -1.260  0.00  0.00    +0.024 C 
ATOM     12  C   UNL     1       4.416  -1.153  -1.726  0.00  0.00    +0.074 C 
BRANCH  12  13
ATOM     13  C   UNL     1       3.431  -2.081  -2.440  0.00  0.00    +0.024 C 
BRANCH  13  14
ATOM     14  C   UNL     1       2.222  -1.273  -2.916  0.00  0.00    +0.030 C 
BRANCH  14  15
ATOM     15  C   UNL     1       1.317  -2.165  -3.767  0.00  0.00    +0.156 C 
BRANCH  15  16
ATOM     16  O   UNL     1       0.187  -1.411  -4.212  0.00  0.00    -0.395 OA
ATOM     17  H   UNL     1      -0.431  -1.914  -4.759  0.00  0.00    +0.209 HD
ENDBRANCH  15  16
ENDBRANCH  14  15
ENDBRANCH  13  14
ENDBRANCH  12  13
ENDBRANCH   4   8
BRANCH   3  18
ATOM     18  C   UNL     1       1.322  -1.740   0.304  0.00  0.00    -0.049 C 
BRANCH  18  19
ATOM     19  N   UNL     1       1.782  -1.885   1.692  0.00  0.00    +0.381 N 
ATOM     20  H   UNL     1       2.681  -1.438   1.797  0.00  0.00    -0.090 HD
ATOM     21  H   UNL     1       1.116  -1.452   2.314  0.00  0.00    -0.090 HD
ATOM     22  H   UNL     1       1.866  -2.865   1.918  0.00  0.00    -0.090 HD
ENDBRANCH  18  19
ENDBRANCH   3  18
TORSDOF 7
