REMARK  Name = ZINC51191615
REMARK  8 active torsions:
REMARK  status: ('A' for Active; 'I' for Inactive)
REMARK    1  A    between atoms: C_1  and  N_2
REMARK    2  A    between atoms: N_2  and  C_3
REMARK    3  A    between atoms: C_3  and  C_4
REMARK    4  A    between atoms: C_3  and  C_7
REMARK    5  A    between atoms: N_12  and  C_13
REMARK    6  A    between atoms: C_17  and  C_19
REMARK    7  A    between atoms: C_19  and  N_20
REMARK    8  A    between atoms: C_24  and  C_25
REMARK                            x       y       z     vdW  Elec       q    Type
REMARK                         _______ _______ _______ _____ _____    ______ ____
ROOT
ATOM      1  C   UNL     1      -0.113  -0.683  -3.522  0.00  0.00    +0.035 A 
ATOM      2  C   UNL     1      -0.120  -2.071  -3.564  0.00  0.00    +0.023 A 
ATOM      3  C   UNL     1      -0.113  -2.724  -4.781  0.00  0.00    +0.002 A 
ATOM      4  C   UNL     1      -0.099  -1.996  -5.957  0.00  0.00    +0.002 A 
ATOM      5  C   UNL     1      -0.091  -0.614  -5.919  0.00  0.00    -0.062 A 
ATOM      6  C   UNL     1      -0.104   0.045  -4.705  0.00  0.00    +0.025 A 
ENDROOT
BRANCH   1  11
ATOM      7  C   UNL     1      -0.037   1.452   0.039  0.00  0.00    +0.134 C 
ATOM      8  N   UNL     1       0.611   0.143  -0.080  0.00  0.00    -0.285 N 
ATOM      9  C   UNL     1       0.544  -0.539  -1.240  0.00  0.00    +0.306 C 
ATOM     10  O   UNL     1       1.082  -1.625  -1.338  0.00  0.00    -0.252 OA
ATOM     11  N   UNL     1      -0.120  -0.018  -2.291  0.00  0.00    -0.269 N 
ATOM     12  H   UNL     1      -0.602   0.818  -2.193  0.00  0.00    +0.156 HD
BRANCH   8  13
ATOM     13  C   UNL     1       1.333  -0.424   1.063  0.00  0.00    +0.083 C 
BRANCH  13  14
ATOM     14  C   UNL     1       2.391   0.572   1.543  0.00  0.00    +0.010 C 
ATOM     15  C   UNL     1       3.854   0.254   1.229  0.00  0.00    +0.006 C 
ATOM     16  C   UNL     1       3.332   0.118   2.660  0.00  0.00    +0.006 C 
ENDBRANCH  13  14
BRANCH  13  17
ATOM     17  C   UNL     1       0.347  -0.708   2.198  0.00  0.00    +0.010 C 
ATOM     18  C   UNL     1       0.367  -2.106   2.818  0.00  0.00    +0.006 C 
ATOM     19  C   UNL     1      -0.794  -1.686   1.915  0.00  0.00    +0.006 C 
ENDBRANCH  13  17
ENDBRANCH   8  13
ENDBRANCH   1  11
BRANCH   5  20
ATOM     20  C   UNL     1      -0.074   0.174  -7.203  0.00  0.00    -0.042 C 
BRANCH  20  21
ATOM     21  N   UNL     1      -1.454   0.439  -7.633  0.00  0.00    +0.390 N 
ATOM     22  C   UNL     1      -2.117  -0.834  -7.989  0.00  0.00    -0.077 C 
ATOM     23  C   UNL     1      -3.030  -0.483  -9.189  0.00  0.00    -0.020 C 
ATOM     24  C   UNL     1      -2.158   0.545  -9.957  0.00  0.00    -0.008 C 
ATOM     25  C   UNL     1      -1.444   1.310  -8.822  0.00  0.00    +0.019 C 
ATOM     26  H   UNL     1      -1.963   0.888  -6.887  0.00  0.00    -0.080 HD
BRANCH  25  27
ATOM     27  C   UNL     1      -2.181   2.591  -8.525  0.00  0.00    +0.197 C 
ATOM     28  O   UNL     1      -2.671   2.768  -7.430  0.00  0.00    -0.278 OA
ATOM     29  N   UNL     1      -2.296   3.538  -9.476  0.00  0.00    -0.331 N 
ATOM     30  H   UNL     1      -1.905   3.397 -10.352  0.00  0.00    +0.145 HD
ATOM     31  H   UNL     1      -2.771   4.363  -9.285  0.00  0.00    +0.145 HD
ENDBRANCH  25  27
ENDBRANCH  20  21
ENDBRANCH   5  20
TORSDOF 7
