REMARK  Name = ZINC12537233
REMARK  13 active torsions:
REMARK  status: ('A' for Active; 'I' for Inactive)
REMARK    1  A    between atoms: C_1  and  C_2
REMARK    2  A    between atoms: C_2  and  C_3
REMARK    3  A    between atoms: C_2  and  C_4
REMARK    4  A    between atoms: C_2  and  N_5
REMARK    5  A    between atoms: N_5  and  S_6
REMARK    6  A    between atoms: S_6  and  C_9
REMARK    7  A    between atoms: C_12  and  N_18
REMARK    8  A    between atoms: C_13  and  N_15
REMARK    9  A    between atoms: N_18  and  C_19
REMARK   10  A    between atoms: C_19  and  C_20
REMARK   11  A    between atoms: C_20  and  C_21
REMARK   12  A    between atoms: C_21  and  N_59
REMARK   13  A    between atoms: C_22  and  N_59
REMARK                            x       y       z     vdW  Elec       q    Type
REMARK                         _______ _______ _______ _____ _____    ______ ____
ROOT
ATOM      1  C   UNL     1      -0.438   2.695  -0.598  0.00  0.00    +0.108 A 
ATOM      2  C   UNL     1       0.444   3.750  -0.739  0.00  0.00    +0.030 A 
ATOM      3  C   UNL     1       0.360   4.579  -1.840  0.00  0.00    +0.027 A 
ATOM      4  C   UNL     1      -0.619   4.359  -2.801  0.00  0.00    +0.058 A 
ATOM      5  C   UNL     1      -1.507   3.301  -2.653  0.00  0.00    +0.149 A 
ATOM      6  C   UNL     1      -1.414   2.472  -1.552  0.00  0.00    +0.063 A 
ENDROOT
BRANCH   1   7
ATOM      7  S   UNL     1      -0.323   1.635   0.805  0.00  0.00    +0.059 S 
ATOM      8  O   UNL     1      -1.514   0.860   0.828  0.00  0.00    -0.153 OA
ATOM      9  O   UNL     1       0.077   2.450   1.898  0.00  0.00    -0.153 OA
BRANCH   7  10
ATOM     10  N   UNL     1       0.922   0.580   0.521  0.00  0.00    -0.185 NA
ATOM     11  H   UNL     1       1.724   0.619   1.065  0.00  0.00    +0.149 HD
BRANCH  10  13
ATOM     12  C   UNL     1       0.403   0.278  -1.850  0.00  0.00    +0.029 C 
ATOM     13  C   UNL     1       0.809  -0.416  -0.547  0.00  0.00    +0.032 C 
ATOM     14  C   UNL     1       2.157  -1.113  -0.740  0.00  0.00    +0.029 C 
ATOM     15  C   UNL     1      -0.251  -1.452  -0.169  0.00  0.00    +0.029 C 
ENDBRANCH  10  13
ENDBRANCH   7  10
ENDBRANCH   1   7
BRANCH   5  16
ATOM     16  N   UNL     1      -2.552   3.062  -3.674  0.00  0.00    +0.058 N 
ATOM     17  O   UNL     1      -3.395   2.202  -3.492  0.00  0.00    -0.126 OA
ATOM     18  O   UNL     1      -2.568   3.726  -4.695  0.00  0.00    -0.126 OA
ENDBRANCH   5  16
BRANCH   4  19
ATOM     19  N   UNL     1      -0.710   5.199  -3.913  0.00  0.00    -0.342 N 
ATOM     20  H   UNL     1      -1.455   5.110  -4.528  0.00  0.00    +0.146 HD
BRANCH  19  21
ATOM     21  C   UNL     1       0.319   6.213  -4.151  0.00  0.00    +0.100 C 
BRANCH  21  22
ATOM     22  C   UNL     1      -0.017   6.992  -5.425  0.00  0.00    -0.000 C 
BRANCH  22  23
ATOM     23  C   UNL     1       1.059   8.051  -5.674  0.00  0.00    -0.081 C 
BRANCH  23  24
ATOM     24  N   UNL     1       0.728   8.796  -6.903  0.00  0.00    +0.381 N 
ATOM     25  H   UNL     1      -0.187   9.248  -6.790  0.00  0.00    -0.086 HD
ATOM     26  H   UNL     1       0.692   8.144  -7.695  0.00  0.00    -0.086 HD
BRANCH  24  27
ATOM     27  C   UNL     1       1.750   9.827  -7.168  0.00  0.00    -0.072 C 
ATOM     28  C   UNL     1       1.411  11.095  -6.383  0.00  0.00    -0.016 C 
ATOM     29  C   UNL     1       2.466  12.167  -6.665  0.00  0.00    -0.002 C 
ATOM     30  C   UNL     1       2.484  12.483  -8.162  0.00  0.00    -0.000 C 
ATOM     31  C   UNL     1       2.823  11.214  -8.947  0.00  0.00    -0.002 C 
ATOM     32  C   UNL     1       1.768  10.143  -8.665  0.00  0.00    -0.016 C 
ENDBRANCH  24  27
ENDBRANCH  23  24
ENDBRANCH  22  23
ENDBRANCH  21  22
ENDBRANCH  19  21
ENDBRANCH   4  19
TORSDOF 10
