REMARK  Name = ZINC22325012
REMARK  13 active torsions:
REMARK  status: ('A' for Active; 'I' for Inactive)
REMARK    1  A    between atoms: C_1  and  C_2
REMARK    2  A    between atoms: C_2  and  C_3
REMARK    3  A    between atoms: N_9  and  C_10
REMARK    4  A    between atoms: C_10  and  C_11
REMARK    5  A    between atoms: C_11  and  C_12
REMARK    6  A    between atoms: C_12  and  N_13
REMARK    7  A    between atoms: C_14  and  C_16
REMARK    8  A    between atoms: C_16  and  N_17
REMARK    9  A    between atoms: N_17  and  C_18
REMARK   10  A    between atoms: N_17  and  S_26
REMARK   11  A    between atoms: C_23  and  C_24
REMARK   12  A    between atoms: S_26  and  C_29
REMARK   13  A    between atoms: C_32  and  C_35
REMARK                            x       y       z     vdW  Elec       q    Type
REMARK                         _______ _______ _______ _____ _____    ______ ____
ROOT
ATOM      1  N   UNL     1      -1.139   1.298  -1.924  0.00  0.00    -0.194 N 
ENDROOT
BRANCH   1   2
ATOM      2  C   UNL     1      -1.978   0.396  -2.584  0.00  0.00    +0.055 A 
ATOM      3  C   UNL     1      -1.442  -0.535  -3.465  0.00  0.00    +0.026 A 
ATOM      4  C   UNL     1      -2.272  -1.428  -4.113  0.00  0.00    +0.022 A 
ATOM      5  C   UNL     1      -3.639  -1.389  -3.893  0.00  0.00    +0.041 A 
ATOM      6  C   UNL     1      -4.175  -0.459  -3.021  0.00  0.00    +0.025 A 
ATOM      7  C   UNL     1      -3.349   0.433  -2.366  0.00  0.00    -0.026 A 
ATOM      8  C   UNL     1      -3.934   1.446  -1.416  0.00  0.00    +0.046 C 
ATOM      9 CL   UNL     1      -4.680  -2.509  -4.715  0.00  0.00    -0.084 Cl
ENDBRANCH   1   2
BRANCH   1  10
ATOM     10  S   UNL     1      -0.545   0.929  -0.423  0.00  0.00    +0.075 S 
ATOM     11  O   UNL     1      -0.700  -0.474  -0.259  0.00  0.00    -0.150 OA
ATOM     12  O   UNL     1       0.717   1.573  -0.316  0.00  0.00    -0.150 OA
BRANCH  10  13
ATOM     13  C   UNL     1      -1.603   1.694   0.759  0.00  0.00    +0.109 A 
ATOM     14  C   UNL     1      -1.415   3.021   1.098  0.00  0.00    +0.029 A 
ATOM     15  C   UNL     1      -2.248   3.623   2.023  0.00  0.00    +0.005 A 
ATOM     16  C   UNL     1      -3.263   2.896   2.615  0.00  0.00    -0.050 A 
ATOM     17  C   UNL     1      -3.448   1.567   2.280  0.00  0.00    +0.005 A 
ATOM     18  C   UNL     1      -2.618   0.967   1.353  0.00  0.00    +0.029 A 
ATOM     19  C   UNL     1      -4.168   3.550   3.627  0.00  0.00    +0.044 C 
ENDBRANCH  10  13
ENDBRANCH   1  10
BRANCH   1  20
ATOM     20  C   UNL     1      -0.786   2.570  -2.559  0.00  0.00    +0.227 C 
BRANCH  20  22
ATOM     21  N   UNL     1       0.898   3.404  -4.168  0.00  0.00    -0.314 N 
ATOM     22  C   UNL     1       0.395   2.365  -3.473  0.00  0.00    +0.232 C 
ATOM     23  O   UNL     1       0.892   1.264  -3.582  0.00  0.00    -0.274 OA
ATOM     24  H   UNL     1       0.447   4.402  -4.068  0.00  0.00    +0.149 HD
BRANCH  21  25
ATOM     25  C   UNL     1       2.046   3.204  -5.056  0.00  0.00    +0.102 C 
BRANCH  25  26
ATOM     26  C   UNL     1       2.415   4.533  -5.719  0.00  0.00    +0.000 C 
BRANCH  26  27
ATOM     27  C   UNL     1       3.613   4.324  -6.647  0.00  0.00    -0.077 C 
BRANCH  27  33
ATOM     28  C   UNL     1       5.301   5.530  -7.895  0.00  0.00    -0.069 C 
ATOM     29  C   UNL     1       5.696   6.913  -8.419  0.00  0.00    -0.015 C 
ATOM     30  C   UNL     1       4.663   7.376  -9.451  0.00  0.00    -0.003 C 
ATOM     31  C   UNL     1       3.277   7.393  -8.802  0.00  0.00    -0.019 C 
ATOM     32  C   UNL     1       2.952   5.997  -8.267  0.00  0.00    -0.078 C 
ATOM     33  N   UNL     1       3.968   5.600  -7.283  0.00  0.00    +0.382 N 
ATOM     34  H   UNL     1       3.998   6.373  -6.501  0.00  0.00    -0.081 HD
BRANCH  28  36
ATOM     35  C   UNL     1       6.269   6.012  -5.643  0.00  0.00    +0.002 C 
ATOM     36  C   UNL     1       6.319   5.072  -6.849  0.00  0.00    -0.019 C 
ENDBRANCH  28  36
ENDBRANCH  27  33
ENDBRANCH  26  27
ENDBRANCH  25  26
ENDBRANCH  21  25
ENDBRANCH  20  22
ENDBRANCH   1  20
TORSDOF 10
