REMARK  Name = ZINC10034779
REMARK  3 active torsions:
REMARK  status: ('A' for Active; 'I' for Inactive)
REMARK    1  A    between atoms: C_6  and  N_7
REMARK    2  A    between atoms: C_10  and  C_12
REMARK    3  A    between atoms: C_18  and  C_20
REMARK                            x       y       z     vdW  Elec       q    Type
REMARK                         _______ _______ _______ _____ _____    ______ ____
ROOT
ATOM      1  C   UNL     1       3.306   3.070   2.195  0.00  0.00    +0.267 C 
ATOM      2  O   UNL     1       2.308   3.459   2.770  0.00  0.00    -0.268 OA
ATOM      3  N   UNL     1       3.438   3.265   0.868  0.00  0.00    -0.289 N 
ATOM      4  C   UNL     1       4.590   2.848   0.043  0.00  0.00    +0.109 C 
ATOM      5  C   UNL     1       4.568   3.799  -1.179  0.00  0.00    +0.021 C 
ATOM      6  C   UNL     1       3.045   3.952  -1.429  0.00  0.00    +0.029 C 
ATOM      7  C   UNL     1       2.457   3.931  -0.002  0.00  0.00    +0.107 C 
ENDROOT
BRANCH   7   8
ATOM      8  C   UNL     1       1.160   3.165   0.007  0.00  0.00    -0.023 A 
ATOM      9  C   UNL     1       1.175   1.782   0.000  0.00  0.00    +0.009 A 
ATOM     10  C   UNL     1      -0.013   1.076   0.008  0.00  0.00    +0.050 A 
ATOM     11  C   UNL     1      -1.223   1.752   0.017  0.00  0.00    +0.162 A 
ATOM     12  C   UNL     1      -1.239   3.142   0.033  0.00  0.00    +0.162 A 
ATOM     13  C   UNL     1      -0.043   3.845   0.024  0.00  0.00    +0.055 A 
ATOM     14  O   UNL     1      -2.416   3.825   0.057  0.00  0.00    -0.485 OA
ATOM     15  C   UNL     1      -3.590   3.095  -0.328  0.00  0.00    +0.270 C 
ATOM     16  C   UNL     1      -3.570   1.746   0.404  0.00  0.00    +0.270 C 
ATOM     17  O   UNL     1      -2.385   1.043   0.014  0.00  0.00    -0.485 OA
ENDBRANCH   7   8
BRANCH   1  21
ATOM     18  N   UNL     1       6.201   1.374   3.393  0.00  0.00    -0.236 N 
ATOM     19  C   UNL     1       5.544   1.470   4.581  0.00  0.00    +0.049 A 
ATOM     20  C   UNL     1       4.380   2.111   4.337  0.00  0.00    +0.006 A 
ATOM     21  C   UNL     1       4.373   2.383   2.950  0.00  0.00    +0.151 A 
ATOM     22  N   UNL     1       5.502   1.911   2.458  0.00  0.00    -0.161 NA
ATOM     23  C   UNL     1       3.580   2.255   5.609  0.00  0.00    +0.040 C 
ATOM     24  C   UNL     1       4.213   1.251   6.598  0.00  0.00    +0.011 C 
ATOM     25  C   UNL     1       5.652   1.126   6.049  0.00  0.00    +0.056 C 
BRANCH  18  31
ATOM     26  C   UNL     1       8.422   0.881   4.207  0.00  0.00    +0.030 A 
ATOM     27  C   UNL     1       9.657   0.287   4.032  0.00  0.00    +0.040 A 
ATOM     28  C   UNL     1       9.934  -0.405   2.865  0.00  0.00    +0.124 A 
ATOM     29  C   UNL     1       8.973  -0.507   1.873  0.00  0.00    +0.040 A 
ATOM     30  C   UNL     1       7.736   0.082   2.046  0.00  0.00    +0.030 A 
ATOM     31  C   UNL     1       7.456   0.776   3.216  0.00  0.00    +0.066 A 
ATOM     32  F   UNL     1      11.144  -0.982   2.695  0.00  0.00    -0.205 F 
ENDBRANCH  18  31
ENDBRANCH   1  21
TORSDOF 3
