REMARK  Name = ZINC57847871
REMARK  8 active torsions:
REMARK  status: ('A' for Active; 'I' for Inactive)
REMARK    1  A    between atoms: C_1  and  C_2
REMARK    2  A    between atoms: C_2  and  C_3
REMARK    3  A    between atoms: C_3  and  N_4
REMARK    4  A    between atoms: C_5  and  C_7
REMARK    5  A    between atoms: C_7  and  N_8
REMARK    6  A    between atoms: N_16  and  C_20
REMARK    7  A    between atoms: C_20  and  C_21
REMARK    8  A    between atoms: C_21  and  O_22
REMARK                            x       y       z     vdW  Elec       q    Type
REMARK                         _______ _______ _______ _____ _____    ______ ____
ROOT
ATOM      1  N   UNL     1      -3.929  -4.704   0.014  0.00  0.00    +0.386 N 
ATOM      2  C   UNL     1      -4.580  -4.320   1.273  0.00  0.00    -0.076 C 
ATOM      3  C   UNL     1      -6.045  -4.768   1.249  0.00  0.00    +0.017 C 
ATOM      4  C   UNL     1      -6.106  -6.281   1.061  0.00  0.00    +0.109 C 
ATOM      5  C   UNL     1      -5.346  -6.691  -0.197  0.00  0.00    +0.017 C 
ATOM      6  C   UNL     1      -3.910  -6.166  -0.114  0.00  0.00    -0.076 C 
ATOM      7  C   UNL     1      -7.541  -6.747   0.988  0.00  0.00    +0.246 C 
ATOM      8  O   UNL     1      -8.374  -6.433   0.166  0.00  0.00    -0.273 OA
ATOM      9  N   UNL     1      -7.699  -7.589   2.031  0.00  0.00    -0.222 N 
ATOM     10  C   UNL     1      -6.570  -7.712   2.740  0.00  0.00    +0.309 C 
ATOM     11  O   UNL     1      -6.465  -8.415   3.726  0.00  0.00    -0.252 OA
ATOM     12  N   UNL     1      -5.564  -6.970   2.239  0.00  0.00    -0.285 N 
ATOM     13  H   UNL     1      -4.661  -6.904   2.586  0.00  0.00    +0.151 HD
ATOM     14  H   UNL     1      -4.439  -4.306  -0.760  0.00  0.00    -0.081 HD
ENDROOT
BRANCH   1  15
ATOM     15  C   UNL     1      -2.551  -4.195   0.004  0.00  0.00    +0.019 C 
BRANCH  15  17
ATOM     16  N   UNL     1      -1.413  -1.998   0.005  0.00  0.00    -0.317 N 
ATOM     17  C   UNL     1      -2.571  -2.688   0.012  0.00  0.00    +0.196 C 
ATOM     18  O   UNL     1      -3.630  -2.096   0.025  0.00  0.00    -0.278 OA
ATOM     19  H   UNL     1      -0.567  -2.472  -0.006  0.00  0.00    +0.149 HD
BRANCH  16  20
ATOM     20  C   UNL     1      -1.433  -0.534   0.013  0.00  0.00    +0.104 C 
BRANCH  20  22
ATOM     21  C   UNL     1      -0.019   1.526   0.010  0.00  0.00    +0.005 C 
ATOM     22  C   UNL     1       0.002  -0.004   0.002  0.00  0.00    +0.015 C 
ENDBRANCH  20  22
ENDBRANCH  16  20
ENDBRANCH  15  17
ENDBRANCH   1  15
BRANCH   9  23
ATOM     23  C   UNL     1      -8.951  -8.281   2.348  0.00  0.00    +0.146 C 
BRANCH  23  24
ATOM     24  C   UNL     1      -8.985  -9.630   1.626  0.00  0.00    +0.175 C 
BRANCH  24  25
ATOM     25  O   UNL     1      -7.948 -10.470   2.136  0.00  0.00    -0.393 OA
ATOM     26  H   UNL     1      -7.910 -11.343   1.723  0.00  0.00    +0.209 HD
ENDBRANCH  24  25
ENDBRANCH  23  24
ENDBRANCH   9  23
TORSDOF 7
