REMARK  Name = ZINC36741289
REMARK  8 active torsions:
REMARK  status: ('A' for Active; 'I' for Inactive)
REMARK    1  A    between atoms: C_1  and  O_2
REMARK    2  A    between atoms: O_2  and  C_3
REMARK    3  A    between atoms: C_8  and  C_9
REMARK    4  A    between atoms: C_9  and  O_26
REMARK    5  A    between atoms: N_13  and  C_15
REMARK    6  A    between atoms: C_15  and  C_16
REMARK    7  A    between atoms: C_16  and  C_18
REMARK    8  A    between atoms: C_16  and  O_25
REMARK                            x       y       z     vdW  Elec       q    Type
REMARK                         _______ _______ _______ _____ _____    ______ ____
ROOT
ATOM      1  C   UNL     1       0.235  -2.595  -0.046  0.00  0.00    +0.080 C 
ATOM      2  C   UNL     1      -1.241  -2.193   0.012  0.00  0.00    +0.036 C 
ATOM      3  C   UNL     1      -1.938  -3.006   1.108  0.00  0.00    -0.016 C 
ATOM      4  C   UNL     1      -1.221  -2.776   2.440  0.00  0.00    -0.078 C 
ATOM      5  N   UNL     1       0.179  -3.203   2.327  0.00  0.00    +0.384 N 
ATOM      6  C   UNL     1       0.872  -2.380   1.328  0.00  0.00    -0.039 C 
ATOM      7  H   UNL     1       0.212  -4.171   2.044  0.00  0.00    -0.082 HD
ENDROOT
BRANCH   1  13
ATOM      8  C   UNL     1       0.977  -0.367  -0.926  0.00  0.00    +0.126 A 
ATOM      9  C   UNL     1       1.638   0.411  -1.867  0.00  0.00    +0.046 A 
ATOM     10  C   UNL     1       2.259  -0.190  -2.944  0.00  0.00    +0.004 A 
ATOM     11  C   UNL     1       2.223  -1.565  -3.087  0.00  0.00    +0.001 A 
ATOM     12  C   UNL     1       1.565  -2.342  -2.151  0.00  0.00    +0.010 A 
ATOM     13  C   UNL     1       0.947  -1.747  -1.069  0.00  0.00    +0.024 A 
BRANCH   8  15
ATOM     14  C   UNL     1       0.437   1.646   0.217  0.00  0.00    +0.277 C 
ATOM     15  O   UNL     1       0.365   0.221   0.135  0.00  0.00    -0.495 OA
ENDBRANCH   8  15
ENDBRANCH   1  13
BRANCH   1  16
ATOM     16  O   UNL     1       0.342  -3.972  -0.411  0.00  0.00    -0.386 OA
ATOM     17  H   UNL     1      -0.043  -4.182  -1.274  0.00  0.00    +0.211 HD
ENDBRANCH   1  16
BRANCH   5  18
ATOM     18  C   UNL     1       0.842  -3.053   3.629  0.00  0.00    -0.042 C 
BRANCH  18  19
ATOM     19  C   UNL     1       2.254  -3.637   3.552  0.00  0.00    +0.128 C 
BRANCH  19  20
ATOM     20  C   UNL     1       2.936  -3.478   4.887  0.00  0.00    -0.021 A 
ATOM     21  C   UNL     1       2.747  -4.426   5.876  0.00  0.00    +0.007 A 
ATOM     22  C   UNL     1       3.372  -4.281   7.100  0.00  0.00    +0.020 A 
ATOM     23  C   UNL     1       4.187  -3.188   7.335  0.00  0.00    +0.041 A 
ATOM     24  C   UNL     1       4.376  -2.241   6.345  0.00  0.00    +0.020 A 
ATOM     25  C   UNL     1       3.755  -2.389   5.120  0.00  0.00    +0.007 A 
ATOM     26 CL   UNL     1       4.972  -3.006   8.873  0.00  0.00    -0.084 Cl
ENDBRANCH  19  20
BRANCH  19  27
ATOM     27  O   UNL     1       2.179  -5.024   3.217  0.00  0.00    -0.389 OA
ATOM     28  H   UNL     1       1.684  -5.556   3.855  0.00  0.00    +0.210 HD
ENDBRANCH  19  27
ENDBRANCH  18  19
ENDBRANCH   5  18
TORSDOF 7
