REMARK  Name = ZINC39638741
REMARK  8 active torsions:
REMARK  status: ('A' for Active; 'I' for Inactive)
REMARK    1  A    between atoms: C_1  and  C_2
REMARK    2  A    between atoms: C_2  and  O_3
REMARK    3  A    between atoms: O_3  and  C_4
REMARK    4  A    between atoms: C_9  and  C_10
REMARK    5  A    between atoms: C_10  and  N_11
REMARK    6  A    between atoms: C_12  and  C_14
REMARK    7  A    between atoms: C_25  and  C_27
REMARK    8  A    between atoms: C_30  and  C_32
REMARK                            x       y       z     vdW  Elec       q    Type
REMARK                         _______ _______ _______ _____ _____    ______ ____
ROOT
ATOM      1  C   UNL     1       0.215   0.353   6.284  0.00  0.00    +0.100 C 
ATOM      2  C   UNL     1      -0.760   1.286   5.532  0.00  0.00    +0.121 C 
ATOM      3  N   UNL     1      -1.115   2.331   6.521  0.00  0.00    -0.294 N 
ATOM      4  C   UNL     1       0.153   2.607   7.237  0.00  0.00    +0.115 C 
ATOM      5  C   UNL     1       0.813   1.224   7.401  0.00  0.00    -0.004 C 
ATOM      6  C   UNL     1       0.474   0.637   8.768  0.00  0.00    -0.010 C 
ATOM      7  C   UNL     1       1.127   1.488   9.860  0.00  0.00    -0.082 C 
ATOM      8  N   UNL     1       2.582   1.511   9.662  0.00  0.00    +0.379 N 
ATOM      9  C   UNL     1       2.903   2.161   8.386  0.00  0.00    -0.082 C 
ATOM     10  C   UNL     1       2.325   1.338   7.231  0.00  0.00    -0.010 C 
ATOM     11  C   UNL     1      -2.319   2.901   6.724  0.00  0.00    +0.282 C 
ATOM     12  O   UNL     1      -2.452   3.754   7.582  0.00  0.00    -0.267 OA
ATOM     13  H   UNL     1       3.015   2.021  10.417  0.00  0.00    -0.086 HD
ATOM     14  H   UNL     1       2.933   0.565   9.654  0.00  0.00    -0.086 HD
ENDROOT
BRANCH  11  15
ATOM     15  C   UNL     1      -3.469   2.495   5.911  0.00  0.00    +0.190 A 
ATOM     16  C   UNL     1      -4.748   2.998   6.010  0.00  0.00    +0.055 A 
ATOM     17  C   UNL     1      -5.518   2.332   5.051  0.00  0.00    +0.050 A 
ATOM     18  C   UNL     1      -4.691   1.456   4.410  0.00  0.00    +0.136 A 
ATOM     19  O   UNL     1      -3.458   1.567   4.931  0.00  0.00    -0.450 OA
BRANCH  18  20
ATOM     20  C   UNL     1      -5.085   0.541   3.318  0.00  0.00    +0.017 A 
ATOM     21  C   UNL     1      -6.402   0.529   2.855  0.00  0.00    +0.011 A 
ATOM     22  C   UNL     1      -6.763  -0.327   1.835  0.00  0.00    +0.001 A 
ATOM     23  C   UNL     1      -5.824  -1.172   1.272  0.00  0.00    +0.000 A 
ATOM     24  C   UNL     1      -4.517  -1.165   1.727  0.00  0.00    +0.001 A 
ATOM     25  C   UNL     1      -4.141  -0.310   2.742  0.00  0.00    +0.011 A 
ENDBRANCH  18  20
ENDBRANCH  11  15
BRANCH   1  27
ATOM     26  N   UNL     1       1.890  -1.322   5.569  0.00  0.00    -0.311 N 
ATOM     27  C   UNL     1       1.301  -0.128   5.356  0.00  0.00    +0.218 C 
ATOM     28  O   UNL     1       1.645   0.558   4.417  0.00  0.00    -0.275 OA
ATOM     29  H   UNL     1       1.615  -1.871   6.320  0.00  0.00    +0.149 HD
BRANCH  26  30
ATOM     30  C   UNL     1       2.945  -1.790   4.667  0.00  0.00    +0.143 C 
BRANCH  30  36
ATOM     31  C   UNL     1       2.708  -4.282   4.809  0.00  0.00    +0.125 A 
ATOM     32  C   UNL     1       3.163  -5.525   5.225  0.00  0.00    +0.046 A 
ATOM     33  C   UNL     1       4.332  -5.623   5.954  0.00  0.00    +0.004 A 
ATOM     34  C   UNL     1       5.050  -4.484   6.269  0.00  0.00    +0.001 A 
ATOM     35  C   UNL     1       4.599  -3.244   5.856  0.00  0.00    +0.009 A 
ATOM     36  C   UNL     1       3.433  -3.141   5.122  0.00  0.00    +0.011 A 
BRANCH  31  37
ATOM     37  O   UNL     1       1.558  -4.182   4.092  0.00  0.00    -0.492 OA
BRANCH  37  39
ATOM     38  C   UNL     1      -0.396  -5.089   2.997  0.00  0.00    +0.048 C 
ATOM     39  C   UNL     1       0.864  -5.399   3.807  0.00  0.00    +0.225 C 
ENDBRANCH  37  39
ENDBRANCH  31  37
ENDBRANCH  30  36
ENDBRANCH  26  30
ENDBRANCH   1  27
TORSDOF 7
