REMARK  Name = ZINC43021985
REMARK  11 active torsions:
REMARK  status: ('A' for Active; 'I' for Inactive)
REMARK    1  A    between atoms: C_1  and  C_2
REMARK    2  A    between atoms: C_2  and  C_3
REMARK    3  A    between atoms: C_3  and  C_5
REMARK    4  A    between atoms: C_3  and  N_23
REMARK    5  A    between atoms: C_5  and  C_7
REMARK    6  A    between atoms: C_5  and  N_14
REMARK    7  A    between atoms: N_14  and  C_15
REMARK    8  A    between atoms: N_14  and  C_20
REMARK    9  A    between atoms: C_15  and  C_16
REMARK   10  A    between atoms: C_20  and  C_21
REMARK   11  A    between atoms: C_20  and  C_22
REMARK                            x       y       z     vdW  Elec       q    Type
REMARK                         _______ _______ _______ _____ _____    ______ ____
ROOT
ATOM      1  C   UNL     1      -0.610  -1.749  -0.597  0.00  0.00    +0.073 C 
ENDROOT
BRANCH   1   2
ATOM      2  C   UNL     1       0.655  -2.341  -0.031  0.00  0.00    -0.031 A 
ATOM      3  C   UNL     1       1.698  -2.679  -0.874  0.00  0.00    +0.005 A 
ATOM      4  C   UNL     1       2.858  -3.222  -0.355  0.00  0.00    +0.001 A 
ATOM      5  C   UNL     1       2.977  -3.426   1.008  0.00  0.00    +0.015 A 
ATOM      6  C   UNL     1       1.935  -3.086   1.851  0.00  0.00    +0.018 A 
ATOM      7  C   UNL     1       0.776  -2.538   1.332  0.00  0.00    +0.020 A 
ATOM      8 BR   UNL     1       2.097  -3.365   3.714  0.00  0.00    -0.050 Br
ENDBRANCH   1   2
BRANCH   1   9
ATOM      9  C   UNL     1      -0.369  -0.283  -0.961  0.00  0.00    -0.053 C 
BRANCH   9  10
ATOM     10  N   UNL     1       0.139   0.437   0.215  0.00  0.00    +0.381 N 
ATOM     11  H   UNL     1       0.297   1.404  -0.025  0.00  0.00    -0.090 HD
ATOM     12  H   UNL     1      -0.539   0.382   0.961  0.00  0.00    -0.090 HD
ATOM     13  H   UNL     1       1.006   0.018   0.517  0.00  0.00    -0.090 HD
ENDBRANCH   9  10
BRANCH   9  15
ATOM     14  C   UNL     1       0.807   1.255  -2.541  0.00  0.00    +0.002 C 
ATOM     15  C   UNL     1       0.658  -0.200  -2.092  0.00  0.00    -0.018 C 
ENDBRANCH   9  15
ENDBRANCH   1   9
BRANCH   1  16
ATOM     16  N   UNL     1      -1.003  -2.494  -1.800  0.00  0.00    -0.287 NA
BRANCH  16  17
ATOM     17  C   UNL     1      -1.517  -3.825  -1.451  0.00  0.00    +0.051 C 
ATOM     18  C   UNL     1      -0.364  -4.709  -0.972  0.00  0.00    +0.024 C 
ATOM     19  C   UNL     1      -2.556  -3.693  -0.335  0.00  0.00    +0.024 C 
ENDBRANCH  16  17
BRANCH  16  20
ATOM     20  C   UNL     1      -1.986  -1.740  -2.589  0.00  0.00    +0.199 C 
BRANCH  20  21
ATOM     21  C   UNL     1      -2.008  -2.275  -4.023  0.00  0.00    +0.402 C 
ATOM     22  F   UNL     1      -2.451  -3.602  -4.019  0.00  0.00    -0.169 F 
ATOM     23  F   UNL     1      -2.875  -1.496  -4.797  0.00  0.00    -0.169 F 
ATOM     24  F   UNL     1      -0.719  -2.215  -4.563  0.00  0.00    -0.169 F 
ENDBRANCH  20  21
ENDBRANCH  16  20
ENDBRANCH   1  16
TORSDOF 8
