REMARK  Name = ZINC59112279
REMARK  12 active torsions:
REMARK  status: ('A' for Active; 'I' for Inactive)
REMARK    1  A    between atoms: C_1  and  C_2
REMARK    2  A    between atoms: C_2  and  C_23
REMARK    3  A    between atoms: C_4  and  N_11
REMARK    4  A    between atoms: C_7  and  C_9
REMARK    5  A    between atoms: C_7  and  C_10
REMARK    6  A    between atoms: N_11  and  C_12
REMARK    7  A    between atoms: C_12  and  N_14
REMARK    8  A    between atoms: N_14  and  C_15
REMARK    9  A    between atoms: C_23  and  N_24
REMARK   10  A    between atoms: N_24  and  C_25
REMARK   11  A    between atoms: C_25  and  N_27
REMARK   12  A    between atoms: N_27  and  C_28
REMARK                            x       y       z     vdW  Elec       q    Type
REMARK                         _______ _______ _______ _____ _____    ______ ____
ROOT
ATOM      1  C   UNL     1      -0.019   1.527   0.010  0.00  0.00    +0.013 C 
ATOM      2  C   UNL     1       0.002  -0.004   0.002  0.00  0.00    -0.014 C 
ATOM      3  C   UNL     1       0.593  -0.510  -1.309  0.00  0.00    +0.030 C 
ATOM      4  C   UNL     1       2.100  -0.271  -1.353  0.00  0.00    +0.073 C 
ATOM      5  C   UNL     1       2.756  -1.047  -0.213  0.00  0.00    +0.028 C 
ATOM      6  C   UNL     1       2.244  -0.560   1.138  0.00  0.00    -0.033 C 
ATOM      7  C   UNL     1       0.729  -0.548   1.218  0.00  0.00    +0.014 C 
ATOM      8  C   UNL     1       2.825   0.822   1.451  0.00  0.00    +0.011 C 
ATOM      9  C   UNL     1       2.770  -1.534   2.216  0.00  0.00    +0.011 C 
ENDROOT
BRANCH   4  10
ATOM     10  N   UNL     1       2.627  -0.761  -2.634  0.00  0.00    -0.324 N 
ATOM     11  H   UNL     1       2.155  -1.457  -3.118  0.00  0.00    +0.148 HD
BRANCH  10  12
ATOM     12  C   UNL     1       3.767  -0.245  -3.135  0.00  0.00    +0.131 C 
ATOM     13  S   UNL     1       4.600   0.982  -2.280  0.00  0.00    -0.019 S 
BRANCH  12  14
ATOM     14  N   UNL     1       4.250  -0.695  -4.310  0.00  0.00    -0.324 N 
ATOM     15  H   UNL     1       3.779  -1.390  -4.795  0.00  0.00    +0.148 HD
BRANCH  14  16
ATOM     16  C   UNL     1       5.489  -0.134  -4.855  0.00  0.00    +0.072 C 
ATOM     17  C   UNL     1       5.169   1.139  -5.642  0.00  0.00    +0.022 C 
ATOM     18  C   UNL     1       6.456   1.934  -5.870  0.00  0.00    +0.002 C 
ATOM     19  C   UNL     1       7.272   1.968  -4.576  0.00  0.00    +0.000 C 
ATOM     20  C   UNL     1       8.563   1.170  -4.767  0.00  0.00    +0.000 C 
ATOM     21  C   UNL     1       8.249  -0.327  -4.719  0.00  0.00    +0.000 C 
ATOM     22  C   UNL     1       7.601  -0.754  -6.037  0.00  0.00    +0.002 C 
ATOM     23  C   UNL     1       6.146  -1.156  -5.785  0.00  0.00    +0.022 C 
ENDBRANCH  14  16
ENDBRANCH  12  14
ENDBRANCH  10  12
ENDBRANCH   4  10
BRANCH   2  24
ATOM     24  C   UNL     1      -1.465  -0.484   0.070  0.00  0.00    +0.110 C 
BRANCH  24  25
ATOM     25  N   UNL     1      -2.200   0.027  -1.089  0.00  0.00    -0.326 N 
ATOM     26  H   UNL     1      -1.746   0.576  -1.748  0.00  0.00    +0.148 HD
BRANCH  25  27
ATOM     27  C   UNL     1      -3.507  -0.266  -1.242  0.00  0.00    +0.130 C 
ATOM     28  S   UNL     1      -4.307  -1.236  -0.080  0.00  0.00    -0.019 S 
BRANCH  27  29
ATOM     29  N   UNL     1      -4.183   0.204  -2.309  0.00  0.00    -0.324 N 
ATOM     30  H   UNL     1      -3.729   0.753  -2.967  0.00  0.00    +0.148 HD
BRANCH  29  31
ATOM     31  C   UNL     1      -5.603  -0.115  -2.474  0.00  0.00    +0.072 C 
ATOM     32  C   UNL     1      -5.744  -1.472  -3.167  0.00  0.00    +0.022 C 
ATOM     33  C   UNL     1      -7.173  -1.990  -2.989  0.00  0.00    +0.002 C 
ATOM     34  C   UNL     1      -7.618  -1.772  -1.542  0.00  0.00    +0.000 C 
ATOM     35  C   UNL     1      -8.740  -0.732  -1.504  0.00  0.00    +0.000 C 
ATOM     36  C   UNL     1      -8.146   0.665  -1.701  0.00  0.00    +0.000 C 
ATOM     37  C   UNL     1      -7.792   0.865  -3.176  0.00  0.00    +0.002 C 
ATOM     38  C   UNL     1      -6.272   0.965  -3.327  0.00  0.00    +0.022 C 
ENDBRANCH  29  31
ENDBRANCH  27  29
ENDBRANCH  25  27
ENDBRANCH  24  25
ENDBRANCH   2  24
TORSDOF 9
