REMARK  Name = ZINC07909846
REMARK  3 active torsions:
REMARK  status: ('A' for Active; 'I' for Inactive)
REMARK    1  A    between atoms: C_1  and  C_2
REMARK    2  A    between atoms: C_3  and  C_28
REMARK    3  A    between atoms: C_13  and  C_14
REMARK                            x       y       z     vdW  Elec       q    Type
REMARK                         _______ _______ _______ _____ _____    ______ ____
ROOT
ATOM      1  C   UNL     1      -7.722   0.870  -0.286  0.00  0.00    +0.045 C 
ATOM      2  C   UNL     1      -6.478   0.027  -0.166  0.00  0.00    -0.026 A 
ATOM      3  C   UNL     1      -6.570  -1.309  -0.065  0.00  0.00    -0.008 A 
ATOM      4  S   UNL     1      -4.870  -1.833   0.051  0.00  0.00    -0.073 S 
ATOM      5  C   UNL     1      -4.085  -0.244  -0.038  0.00  0.00    +0.116 A 
ATOM      6  C   UNL     1      -5.168   0.650  -0.157  0.00  0.00    +0.075 A 
ATOM      7  C   UNL     1      -4.821   2.035  -0.249  0.00  0.00    +0.263 A 
ATOM      8  O   UNL     1      -5.694   2.879  -0.355  0.00  0.00    -0.267 OA
ATOM      9  N   UNL     1      -3.520   2.403  -0.220  0.00  0.00    -0.292 N 
ATOM     10  C   UNL     1      -2.529   1.466  -0.103  0.00  0.00    +0.141 A 
ATOM     11  N   UNL     1      -2.832   0.175  -0.017  0.00  0.00    -0.222 NA
ATOM     12  C   UNL     1      -1.206   2.098  -0.093  0.00  0.00    -0.003 C 
ATOM     13  C   UNL     1      -0.018   1.466   0.010  0.00  0.00    +0.015 C 
ATOM     14  C   UNL     1      -1.421   3.588  -0.213  0.00  0.00    +0.060 C 
ATOM     15  C   UNL     1      -2.944   3.754  -0.300  0.00  0.00    +0.131 C 
ATOM     16  C   UNL     1      -7.813  -2.161  -0.053  0.00  0.00    +0.052 C 
ENDROOT
BRANCH  13  17
ATOM     17  C   UNL     1       0.026   0.027   0.308  0.00  0.00    -0.020 A 
ATOM     18  C   UNL     1       0.957  -0.795  -0.339  0.00  0.00    +0.057 A 
ATOM     19  C   UNL     1       0.991  -2.145  -0.052  0.00  0.00    +0.164 A 
ATOM     20  C   UNL     1       0.106  -2.686   0.874  0.00  0.00    +0.180 A 
ATOM     21  C   UNL     1      -0.819  -1.875   1.518  0.00  0.00    +0.087 A 
ATOM     22  C   UNL     1      -0.858  -0.523   1.242  0.00  0.00    +0.031 A 
ATOM     23 CL   UNL     1      -1.920  -2.558   2.672  0.00  0.00    -0.080 Cl
ATOM     24  O   UNL     1       0.151  -4.022   1.147  0.00  0.00    -0.487 OA
ATOM     25  C   UNL     1       1.317  -4.480   1.834  0.00  0.00    +0.232 C 
ATOM     26  C   UNL     1       2.447  -4.758   0.855  0.00  0.00    +0.082 C 
ATOM     27  C   UNL     1       2.925  -3.498   0.150  0.00  0.00    +0.232 C 
ATOM     28  O   UNL     1       1.892  -2.957  -0.677  0.00  0.00    -0.488 OA
ENDBRANCH  13  17
TORSDOF 1
