REMARK  Name = ZINC63384532
REMARK  11 active torsions:
REMARK  status: ('A' for Active; 'I' for Inactive)
REMARK    1  A    between atoms: CD1_1  and  CG_2
REMARK    2  A    between atoms: CG_2  and  CD2_3
REMARK    3  A    between atoms: CG_2  and  CB_4
REMARK    4  A    between atoms: CB_4  and  CA_5
REMARK    5  A    between atoms: CA_5  and  C_7
REMARK    6  A    between atoms: CA_5  and  N_25
REMARK    7  A    between atoms: N_9  and  CA_10
REMARK    8  A    between atoms: CA_10  and  CB_12
REMARK    9  A    between atoms: CA_10  and  C_22
REMARK   10  A    between atoms: CB_12  and  CG_13
REMARK   11  A    between atoms: C_30  and  O_38
REMARK                            x       y       z     vdW  Elec       q    Type
REMARK                         _______ _______ _______ _____ _____    ______ ____
ROOT
ATOM      1  CA  TRP A   1       2.051   0.044  -1.274  0.00  0.00    +0.161 C 
ENDROOT
BRANCH   1   2
ATOM      2  N   TRP A   1       2.249   1.441  -0.878  0.00  0.00    -0.288 N 
ATOM      3  C   UNK A   0       2.280   1.773   0.427  0.00  0.00    +0.308 C 
ATOM      4  O   UNK A   0       2.234   0.905   1.277  0.00  0.00    -0.252 OA
ATOM      5  N   UNK A   0       2.361   3.069   0.791  0.00  0.00    -0.245 N 
ATOM      6  C   UNK A   0       2.412   4.146  -0.211  0.00  0.00    +0.210 C 
ATOM      7  C   UNK A   0       3.402   5.188   0.240  0.00  0.00    +0.206 C 
ATOM      8  N   UNK A   0       3.665   5.379   1.493  0.00  0.00    -0.214 NA
ATOM      9  C   UNK A   0       3.068   4.636   2.477  0.00  0.00    +0.089 A 
ATOM     10  C   UNK A   0       2.395   3.450   2.141  0.00  0.00    +0.064 A 
ATOM     11  C   UNK A   0       1.790   2.687   3.120  0.00  0.00    +0.026 A 
ATOM     12  C   UNK A   0       1.840   3.100   4.441  0.00  0.00    +0.002 A 
ATOM     13  C   UNK A   0       2.493   4.271   4.782  0.00  0.00    +0.002 A 
ATOM     14  C   UNK A   0       3.115   5.042   3.808  0.00  0.00    +0.030 A 
ATOM     15  H   TRP A   1       2.359   2.126  -1.556  0.00  0.00    +0.151 HD
BRANCH   7  16
ATOM     16  O   UNK A   0       4.031   5.942  -0.686  0.00  0.00    -0.494 OA
ATOM     17  H   UNK A   0       4.649   6.586  -0.315  0.00  0.00    +0.293 HD
ENDBRANCH   7  16
ENDBRANCH   1   2
BRANCH   1  18
ATOM     18  C   TRP A   1       2.722  -0.203  -2.601  0.00  0.00    +0.234 C 
ATOM     19  O   TRP A   1       3.000   0.732  -3.322  0.00  0.00    -0.274 OA
ATOM     20  N   TRP A   1       3.013  -1.461  -2.986  0.00  0.00    -0.300 N 
ATOM     21  H   TRP A   1       2.727  -2.212  -2.442  0.00  0.00    +0.150 HD
BRANCH  20  22
ATOM     22  CA  TRP A   1       3.760  -1.694  -4.224  0.00  0.00    +0.190 C 
BRANCH  22  23
ATOM     23  C   TRP A   1       2.806  -1.712  -5.390  0.00  0.00    +0.376 C 
ATOM     24  O   TRP A   1       3.183  -1.349  -6.492  0.00  0.00    -0.244 OA
ATOM     25  OXT TRP A   1       1.657  -2.090  -5.233  0.00  0.00    -0.244 OA
ENDBRANCH  22  23
BRANCH  22  26
ATOM     26  CB  TRP A   1       4.484  -3.039  -4.137  0.00  0.00    +0.067 C 
BRANCH  26  27
ATOM     27  CG  TRP A   1       5.525  -2.980  -3.048  0.00  0.00    -0.039 C 
ATOM     28  CD2 TRP A   1       5.385  -3.387  -1.766  0.00  0.00    -0.001 A 
ATOM     29  CE3 TRP A   1       4.264  -3.984  -1.029  0.00  0.00    +0.010 A 
ATOM     30  CZ3 TRP A   1       4.428  -4.292   0.278  0.00  0.00    +0.001 A 
ATOM     31  CH2 TRP A   1       5.639  -4.055   0.944  0.00  0.00    +0.002 A 
ATOM     32  CZ2 TRP A   1       6.713  -3.510   0.335  0.00  0.00    +0.026 A 
ATOM     33  CE2 TRP A   1       6.652  -3.148  -1.040  0.00  0.00    +0.043 A 
ATOM     34  NE1 TRP A   1       7.541  -2.613  -1.841  0.00  0.00    -0.380 N 
ATOM     35  CD1 TRP A   1       6.939  -2.458  -3.170  0.00  0.00    +0.144 C 
ATOM     36  HE1 TRP A   1       8.447  -2.365  -1.597  0.00  0.00    +0.160 HD
ENDBRANCH  26  27
ENDBRANCH  22  26
ENDBRANCH  20  22
ENDBRANCH   1  18
BRANCH   1  37
ATOM     37  CB  TRP A   1       0.554  -0.243  -1.398  0.00  0.00    +0.034 C 
BRANCH  37  39
ATOM     38  CD1 TRP A   1       0.772  -2.548  -0.458  0.00  0.00    +0.007 C 
ATOM     39  CG  TRP A   1       0.342  -1.732  -1.679  0.00  0.00    -0.015 C 
ATOM     40  CD2 TRP A   1      -1.138  -1.991  -1.969  0.00  0.00    +0.007 C 
ENDBRANCH  37  39
ENDBRANCH   1  37
TORSDOF 9
