REMARK  Name = ZINC39670792
REMARK  10 active torsions:
REMARK  status: ('A' for Active; 'I' for Inactive)
REMARK    1  A    between atoms: C_1  and  C_2
REMARK    2  A    between atoms: C_2  and  C_3
REMARK    3  A    between atoms: C_3  and  C_4
REMARK    4  A    between atoms: C_4  and  C_5
REMARK    5  A    between atoms: C_5  and  C_7
REMARK    6  A    between atoms: C_5  and  C_8
REMARK    7  A    between atoms: C_12  and  C_21
REMARK    8  A    between atoms: N_23  and  C_24
REMARK    9  A    between atoms: C_24  and  C_25
REMARK   10  A    between atoms: C_28  and  C_34
REMARK                            x       y       z     vdW  Elec       q    Type
REMARK                         _______ _______ _______ _____ _____    ______ ____
ROOT
ATOM      1  C   UNL     1      -2.789  -3.990   0.443  0.00  0.00    +0.218 C 
ATOM      2  O   UNL     1      -1.786  -4.626   0.690  0.00  0.00    -0.275 OA
ATOM      3  N   UNL     1      -3.963  -4.627   0.265  0.00  0.00    -0.300 N 
ATOM      4  C   UNL     1      -5.259  -4.042  -0.152  0.00  0.00    +0.121 C 
ATOM      5  C   UNL     1      -5.870  -5.090  -1.110  0.00  0.00    +0.100 C 
ATOM      6  C   UNL     1      -5.205  -6.419  -0.713  0.00  0.00    -0.004 C 
ATOM      7  C   UNL     1      -4.249  -6.072   0.437  0.00  0.00    +0.115 C 
ATOM      8  C   UNL     1      -4.420  -6.989  -1.890  0.00  0.00    -0.010 C 
ATOM      9  C   UNL     1      -3.816  -8.338  -1.488  0.00  0.00    -0.082 C 
ATOM     10  N   UNL     1      -4.890  -9.260  -1.097  0.00  0.00    +0.379 N 
ATOM     11  C   UNL     1      -5.581  -8.748   0.092  0.00  0.00    -0.082 C 
ATOM     12  C   UNL     1      -6.259  -7.417  -0.242  0.00  0.00    -0.010 C 
ATOM     13  H   UNL     1      -5.549  -9.348  -1.856  0.00  0.00    -0.086 HD
ATOM     14  H   UNL     1      -4.495 -10.166  -0.892  0.00  0.00    -0.086 HD
ENDROOT
BRANCH   5  15
ATOM     15  C   UNL     1      -5.545  -4.745  -2.541  0.00  0.00    +0.219 C 
ATOM     16  O   UNL     1      -4.559  -4.088  -2.797  0.00  0.00    -0.275 OA
ATOM     17  N   UNL     1      -6.351  -5.167  -3.535  0.00  0.00    -0.309 N 
ATOM     18  H   UNL     1      -7.140  -5.693  -3.330  0.00  0.00    +0.149 HD
BRANCH  17  19
ATOM     19  C   UNL     1      -6.036  -4.832  -4.926  0.00  0.00    +0.159 C 
BRANCH  19  20
ATOM     20  C   UNL     1      -7.085  -5.419  -5.834  0.00  0.00    +0.051 A 
ATOM     21  C   UNL     1      -7.003  -6.609  -6.469  0.00  0.00    +0.115 A 
ATOM     22  N   UNL     1      -8.157  -6.765  -7.187  0.00  0.00    -0.305 N 
ATOM     23  C   UNL     1      -8.610  -7.761  -8.002  0.00  0.00    +0.022 A 
ATOM     24  C   UNL     1      -9.814  -7.664  -8.604  0.00  0.00    +0.021 A 
ATOM     25  C   UNL     1     -10.619  -6.532  -8.397  0.00  0.00    +0.005 A 
ATOM     26  C   UNL     1     -10.180  -5.531  -7.587  0.00  0.00    +0.045 A 
ATOM     27  C   UNL     1      -8.921  -5.648  -6.966  0.00  0.00    +0.116 A 
ATOM     28  N   UNL     1      -8.254  -4.852  -6.142  0.00  0.00    -0.342 N 
ATOM     29  C   UNL     1      -7.756  -8.982  -8.234  0.00  0.00    +0.064 C 
ATOM     30  H   UNL     1      -8.566  -3.993  -5.816  0.00  0.00    +0.167 HD
ENDBRANCH  19  20
ENDBRANCH  17  19
ENDBRANCH   5  15
BRANCH   1  31
ATOM     31  C   UNL     1      -2.721  -2.489   0.334  0.00  0.00    +0.072 C 
ATOM     32  C   UNL     1      -1.377  -2.081  -0.272  0.00  0.00    +0.017 C 
BRANCH  31  33
ATOM     33  C   UNL     1      -2.862  -1.870   1.726  0.00  0.00    +0.012 C 
BRANCH  33  34
ATOM     34  C   UNL     1      -2.919  -0.346   1.603  0.00  0.00    +0.000 C 
BRANCH  34  36
ATOM     35  C   UNL     1      -3.117   1.797   2.873  0.00  0.00    +0.004 C 
ATOM     36  C   UNL     1      -3.060   0.273   2.996  0.00  0.00    -0.003 C 
ENDBRANCH  34  36
ENDBRANCH  33  34
ENDBRANCH  31  33
ENDBRANCH   1  31
TORSDOF 7
