REMARK  Name = ZINC13536577
REMARK  5 active torsions:
REMARK  status: ('A' for Active; 'I' for Inactive)
REMARK    1  A    between atoms: C_1  and  C_2
REMARK    2  A    between atoms: C_7  and  N_8
REMARK    3  A    between atoms: C_9  and  C_11
REMARK    4  A    between atoms: N_20  and  C_21
REMARK    5  A    between atoms: C_23  and  N_26
REMARK                            x       y       z     vdW  Elec       q    Type
REMARK                         _______ _______ _______ _____ _____    ______ ____
ROOT
ATOM      1  C   UNL     1       6.028   2.200  -0.091  0.00  0.00    +0.038 A 
ATOM      2  C   UNL     1       6.041   3.565   0.227  0.00  0.00    +0.015 A 
ATOM      3  C   UNL     1       7.201   4.261   0.314  0.00  0.00    +0.029 A 
ATOM      4  C   UNL     1       8.450   3.630   0.087  0.00  0.00    +0.080 A 
ATOM      5  C   UNL     1       8.411   2.251  -0.232  0.00  0.00    +0.041 A 
ATOM      6  C   UNL     1       7.244   1.544  -0.316  0.00  0.00    +0.030 A 
ATOM      7  S   UNL     1      10.133   1.860  -0.433  0.00  0.00    -0.052 S 
ATOM      8  C   UNL     1      10.774   3.493  -0.094  0.00  0.00    +0.164 A 
ATOM      9  N   UNL     1       9.678   4.183   0.137  0.00  0.00    -0.225 NA
ATOM     10  N   UNL     1      12.086   3.922  -0.077  0.00  0.00    -0.280 N 
ATOM     11  H   UNL     1      12.797   3.318  -0.342  0.00  0.00    +0.155 HD
ENDROOT
BRANCH  10  12
ATOM     12  C   UNL     1      12.388   5.222   0.321  0.00  0.00    +0.104 A 
ATOM     13  C   UNL     1      13.715   5.611   0.446  0.00  0.00    +0.064 A 
ATOM     14  C   UNL     1      14.002   6.913   0.844  0.00  0.00    +0.029 A 
ATOM     15  C   UNL     1      12.935   7.778   1.102  0.00  0.00    +0.040 A 
ATOM     16  C   UNL     1      11.645   7.317   0.955  0.00  0.00    +0.086 A 
ATOM     17  N   UNL     1      11.331   6.052   0.562  0.00  0.00    -0.349 N 
ATOM     18  H   UNL     1      10.358   5.742   0.453  0.00  0.00    +0.167 HD
BRANCH  14  19
ATOM     19  N   UNL     1      15.318   7.343   0.981  0.00  0.00    -0.358 N 
ATOM     20  H   UNL     1      16.049   6.733   0.798  0.00  0.00    +0.142 HD
ATOM     21  H   UNL     1      15.504   8.254   1.259  0.00  0.00    +0.142 HD
ENDBRANCH  14  19
ENDBRANCH  10  12
BRANCH   1  23
ATOM     22  N   UNL     1       3.589   2.104   0.044  0.00  0.00    -0.280 N 
ATOM     23  C   UNL     1       4.753   1.464  -0.180  0.00  0.00    +0.248 C 
ATOM     24  O   UNL     1       4.753   0.280  -0.457  0.00  0.00    -0.270 OA
ATOM     25  H   UNL     1       3.585   3.059   0.213  0.00  0.00    +0.155 HD
BRANCH  22  32
ATOM     26  C   UNL     1       1.347   3.272  -1.262  0.00  0.00    +0.046 C 
ATOM     27  C   UNL     1       1.266   1.924  -0.593  0.00  0.00    -0.028 A 
ATOM     28  C   UNL     1       0.080   1.217  -0.603  0.00  0.00    +0.005 A 
ATOM     29  C   UNL     1       0.004  -0.020   0.009  0.00  0.00    +0.002 A 
ATOM     30  C   UNL     1       1.116  -0.555   0.634  0.00  0.00    +0.022 A 
ATOM     31  C   UNL     1       2.307   0.146   0.647  0.00  0.00    +0.062 A 
ATOM     32  C   UNL     1       2.385   1.391   0.033  0.00  0.00    +0.055 A 
ATOM     33 CL   UNL     1       3.703  -0.525   1.431  0.00  0.00    -0.082 Cl
ENDBRANCH  22  32
ENDBRANCH   1  23
TORSDOF 4
