REMARK  Name = ZINC20181504
REMARK  8 active torsions:
REMARK  status: ('A' for Active; 'I' for Inactive)
REMARK    1  A    between atoms: C_1  and  C_2
REMARK    2  A    between atoms: C_2  and  N_3
REMARK    3  A    between atoms: C_7  and  C_9
REMARK    4  A    between atoms: C_9  and  N_10
REMARK    5  A    between atoms: C_11  and  C_13
REMARK    6  A    between atoms: C_13  and  N_14
REMARK    7  A    between atoms: C_23  and  C_24
REMARK    8  A    between atoms: C_27  and  C_30
REMARK                            x       y       z     vdW  Elec       q    Type
REMARK                         _______ _______ _______ _____ _____    ______ ____
ROOT
ATOM      1  N   UNL     1      -5.785   6.126   1.009  0.00  0.00    -0.257 N 
ATOM      2  C   UNL     1      -5.201   7.305   1.456  0.00  0.00    +0.051 A 
ATOM      3  C   UNL     1      -3.834   7.490   1.250  0.00  0.00    +0.024 A 
ATOM      4  C   UNL     1      -3.213   8.646   1.676  0.00  0.00    +0.002 A 
ATOM      5  C   UNL     1      -3.937   9.638   2.313  0.00  0.00    +0.001 A 
ATOM      6  C   UNL     1      -5.292   9.470   2.526  0.00  0.00    +0.017 A 
ATOM      7  C   UNL     1      -5.921   8.312   2.101  0.00  0.00    +0.034 A 
ATOM      8  S   UNL     1      -7.655   8.097   2.375  0.00  0.00    -0.082 S 
ATOM      9  C   UNL     1      -8.079   6.973   1.070  0.00  0.00    +0.076 C 
ATOM     10  C   UNL     1      -9.248   7.071   0.392  0.00  0.00    +0.028 C 
ATOM     11  C   UNL     1      -7.082   5.923   0.762  0.00  0.00    +0.258 C 
ATOM     12  O   UNL     1      -7.447   4.865   0.284  0.00  0.00    -0.269 OA
ENDROOT
BRANCH  10  13
ATOM     13  C   UNL     1      -9.477   6.242  -0.801  0.00  0.00    -0.024 A 
ATOM     14  C   UNL     1      -8.441   6.025  -1.716  0.00  0.00    +0.008 A 
ATOM     15  C   UNL     1      -8.662   5.242  -2.829  0.00  0.00    +0.013 A 
ATOM     16  C   UNL     1      -9.908   4.681  -3.049  0.00  0.00    +0.055 A 
ATOM     17  C   UNL     1     -10.940   4.895  -2.151  0.00  0.00    +0.013 A 
ATOM     18  C   UNL     1     -10.733   5.671  -1.030  0.00  0.00    +0.008 A 
BRANCH  16  19
ATOM     19  C   UNL     1     -10.143   3.832  -4.271  0.00  0.00    +0.417 C 
ATOM     20  F   UNL     1     -10.580   4.641  -5.325  0.00  0.00    -0.166 F 
ATOM     21  F   UNL     1      -8.950   3.197  -4.634  0.00  0.00    -0.166 F 
ATOM     22  F   UNL     1     -11.117   2.867  -3.989  0.00  0.00    -0.166 F 
ENDBRANCH  16  19
ENDBRANCH  10  13
BRANCH   1  23
ATOM     23  C   UNL     1      -4.886   4.993   0.780  0.00  0.00    +0.209 C 
BRANCH  23  25
ATOM     24  N   UNL     1      -3.556   4.064  -1.087  0.00  0.00    -0.316 N 
ATOM     25  C   UNL     1      -4.400   5.018  -0.646  0.00  0.00    +0.231 C 
ATOM     26  O   UNL     1      -4.768   5.896  -1.397  0.00  0.00    -0.274 OA
ATOM     27  H   UNL     1      -3.222   3.267  -0.406  0.00  0.00    +0.149 HD
BRANCH  24  28
ATOM     28  C   UNL     1      -3.083   4.088  -2.474  0.00  0.00    +0.089 C 
BRANCH  28  33
ATOM     29  N   UNL     1      -0.824   3.292  -1.831  0.00  0.00    +0.382 N 
ATOM     30  C   UNL     1       0.297   2.564  -2.465  0.00  0.00    -0.078 C 
ATOM     31  C   UNL     1      -0.059   2.397  -3.954  0.00  0.00    -0.020 C 
ATOM     32  C   UNL     1      -1.455   3.042  -4.113  0.00  0.00    -0.016 C 
ATOM     33  C   UNL     1      -2.017   3.008  -2.668  0.00  0.00    -0.051 C 
ATOM     34  H   UNL     1      -0.618   4.371  -1.765  0.00  0.00    -0.081 HD
BRANCH  29  36
ATOM     35  C   UNL     1      -1.641   1.437  -0.457  0.00  0.00    -0.017 C 
ATOM     36  C   UNL     1      -1.030   2.840  -0.449  0.00  0.00    -0.082 C 
ENDBRANCH  29  36
ENDBRANCH  28  33
ENDBRANCH  24  28
ENDBRANCH  23  25
ENDBRANCH   1  23
TORSDOF 7
