REMARK  Name = ZINC16532317
REMARK  15 active torsions:
REMARK  status: ('A' for Active; 'I' for Inactive)
REMARK    1  A    between atoms: C_1  and  C_2
REMARK    2  A    between atoms: C_2  and  N_69
REMARK    3  A    between atoms: C_3  and  C_4
REMARK    4  A    between atoms: C_3  and  N_69
REMARK    5  A    between atoms: C_5  and  C_6
REMARK    6  A    between atoms: C_5  and  N_69
REMARK    7  A    between atoms: C_6  and  C_7
REMARK    8  A    between atoms: C_7  and  C_8
REMARK    9  A    between atoms: C_8  and  C_10
REMARK   10  A    between atoms: C_8  and  N_11
REMARK   11  A    between atoms: C_12  and  C_14
REMARK   12  A    between atoms: C_16  and  C_27
REMARK   13  A    between atoms: N_17  and  C_20
REMARK   14  A    between atoms: C_18  and  C_19
REMARK   15  A    between atoms: C_25  and  C_26
REMARK                            x       y       z     vdW  Elec       q    Type
REMARK                         _______ _______ _______ _____ _____    ______ ____
ROOT
ATOM      1  C   UNL     1       1.991   0.422  -0.395  0.00  0.00    +0.058 A 
ATOM      2  C   UNL     1       1.035   1.458  -0.557  0.00  0.00    +0.041 A 
ATOM      3  C   UNL     1      -0.179   0.867  -0.696  0.00  0.00    +0.055 A 
ATOM      4  N   UNL     1      -0.011  -0.496  -0.625  0.00  0.00    -0.312 N 
ATOM      5  C   UNL     1       1.304  -0.772  -0.442  0.00  0.00    +0.033 A 
ATOM      6  C   UNL     1       1.909  -2.146  -0.313  0.00  0.00    +0.064 C 
ENDROOT
BRANCH   4   7
ATOM      7  C   UNL     1      -1.034  -1.448  -0.726  0.00  0.00    +0.050 A 
ATOM      8  C   UNL     1      -1.385  -1.962  -1.967  0.00  0.00    +0.026 A 
ATOM      9  C   UNL     1      -2.395  -2.900  -2.063  0.00  0.00    +0.002 A 
ATOM     10  C   UNL     1      -3.056  -3.326  -0.926  0.00  0.00    +0.000 A 
ATOM     11  C   UNL     1      -2.708  -2.815   0.311  0.00  0.00    +0.005 A 
ATOM     12  C   UNL     1      -1.696  -1.881   0.415  0.00  0.00    -0.027 A 
ATOM     13  C   UNL     1      -1.314  -1.330   1.764  0.00  0.00    +0.046 C 
ENDBRANCH   4   7
BRANCH   3  14
ATOM     14  C   UNL     1      -1.465   1.570  -0.896  0.00  0.00    -0.001 A 
ATOM     15  C   UNL     1      -2.647   0.842  -1.031  0.00  0.00    +0.011 A 
ATOM     16  C   UNL     1      -3.844   1.503  -1.212  0.00  0.00    +0.020 A 
ATOM     17  C   UNL     1      -3.872   2.886  -1.271  0.00  0.00    +0.041 A 
ATOM     18  C   UNL     1      -2.701   3.614  -1.143  0.00  0.00    +0.020 A 
ATOM     19  C   UNL     1      -1.499   2.964  -0.956  0.00  0.00    +0.011 A 
ATOM     20 CL   UNL     1      -5.382   3.711  -1.506  0.00  0.00    -0.084 Cl
ENDBRANCH   3  14
BRANCH   1  22
ATOM     21  N   UNL     1       3.979   1.827  -0.184  0.00  0.00    -0.309 N 
ATOM     22  C   UNL     1       3.442   0.591  -0.210  0.00  0.00    +0.246 C 
ATOM     23  O   UNL     1       4.157  -0.386  -0.082  0.00  0.00    -0.270 OA
ATOM     24  H   UNL     1       3.410   2.605  -0.286  0.00  0.00    +0.149 HD
BRANCH  21  25
ATOM     25  C   UNL     1       5.423   1.994  -0.000  0.00  0.00    +0.070 C 
ATOM     26  C   UNL     1       5.753   1.978   1.494  0.00  0.00    +0.028 C 
BRANCH  25  27
ATOM     27  C   UNL     1       5.863   3.329  -0.605  0.00  0.00    +0.020 C 
BRANCH  27  28
ATOM     28  C   UNL     1       5.648   3.298  -2.120  0.00  0.00    -0.017 C 
BRANCH  28  29
ATOM     29  C   UNL     1       6.087   4.633  -2.725  0.00  0.00    -0.079 C 
BRANCH  29  30
ATOM     30  N   UNL     1       5.793   4.615  -4.173  0.00  0.00    +0.379 N 
ATOM     31  H   UNL     1       6.038   3.693  -4.552  0.00  0.00    -0.082 HD
BRANCH  30  33
ATOM     32  C   UNL     1       4.038   4.617  -5.877  0.00  0.00    -0.017 C 
ATOM     33  C   UNL     1       4.354   4.861  -4.400  0.00  0.00    -0.082 C 
ENDBRANCH  30  33
BRANCH  30  34
ATOM     34  C   UNL     1       6.596   5.646  -4.864  0.00  0.00    -0.082 C 
ATOM     35  C   UNL     1       8.027   5.128  -5.024  0.00  0.00    -0.017 C 
ENDBRANCH  30  34
ENDBRANCH  29  30
ENDBRANCH  28  29
ENDBRANCH  27  28
ENDBRANCH  25  27
ENDBRANCH  21  25
ENDBRANCH   1  22
TORSDOF 10
