REMARK  Name = ZINC17107033
REMARK  18 active torsions:
REMARK  status: ('A' for Active; 'I' for Inactive)
REMARK    1  A    between atoms: C_1  and  C_2
REMARK    2  A    between atoms: C_2  and  C_3
REMARK    3  A    between atoms: C_2  and  C_4
REMARK    4  A    between atoms: C_2  and  C_5
REMARK    5  A    between atoms: C_7  and  C_16
REMARK    6  A    between atoms: C_9  and  C_12
REMARK    7  A    between atoms: C_10  and  O_11
REMARK    8  A    between atoms: C_12  and  C_13
REMARK    9  A    between atoms: C_12  and  C_14
REMARK   10  A    between atoms: C_12  and  C_15
REMARK   11  A    between atoms: C_16  and  C_18
REMARK   12  A    between atoms: C_16  and  O_34
REMARK   13  A    between atoms: C_18  and  N_70
REMARK   14  A    between atoms: C_19  and  C_20
REMARK   15  A    between atoms: C_19  and  N_70
REMARK   16  A    between atoms: C_20  and  N_21
REMARK   17  A    between atoms: N_28  and  C_33
REMARK   18  A    between atoms: N_31  and  C_32
REMARK                            x       y       z     vdW  Elec       q    Type
REMARK                         _______ _______ _______ _____ _____    ______ ____
ROOT
ATOM      1  C   UNL     1      -2.061   7.499   2.826  0.00  0.00    +0.128 C 
ENDROOT
BRANCH   1   4
ATOM      2  C   UNL     1      -4.048   7.626   6.034  0.00  0.00    +0.000 A 
ATOM      3  C   UNL     1      -3.660   7.320   4.744  0.00  0.00    +0.013 A 
ATOM      4  C   UNL     1      -2.482   7.835   4.234  0.00  0.00    -0.020 A 
ATOM      5  C   UNL     1      -1.687   8.652   5.016  0.00  0.00    +0.013 A 
ATOM      6  C   UNL     1      -2.073   8.966   6.305  0.00  0.00    +0.000 A 
ATOM      7  C   UNL     1      -3.254   8.450   6.818  0.00  0.00    +0.124 A 
BRANCH   2   9
ATOM      8  C   UNL     1      -6.008   6.194   5.527  0.00  0.00    +0.015 C 
ATOM      9  C   UNL     1      -5.331   7.064   6.589  0.00  0.00    -0.009 C 
ATOM     10  C   UNL     1      -5.024   6.215   7.824  0.00  0.00    +0.015 C 
ATOM     11  C   UNL     1      -6.264   8.213   6.978  0.00  0.00    +0.015 C 
ENDBRANCH   2   9
BRANCH   6  12
ATOM     12  C   UNL     1      -1.208   9.861   7.154  0.00  0.00    -0.009 C 
ATOM     13  C   UNL     1       0.024  10.288   6.355  0.00  0.00    +0.015 C 
ATOM     14  C   UNL     1      -2.006  11.102   7.563  0.00  0.00    +0.015 C 
ATOM     15  C   UNL     1      -0.766   9.103   8.408  0.00  0.00    +0.015 C 
ENDBRANCH   6  12
BRANCH   7  16
ATOM     16  O   UNL     1      -3.633   8.752   8.088  0.00  0.00    -0.506 OA
ATOM     17  H   UNL     1      -3.304   8.133   8.754  0.00  0.00    +0.292 HD
ENDBRANCH   7  16
ENDBRANCH   1   4
BRANCH   1  18
ATOM     18  O   UNL     1      -1.404   8.627   2.244  0.00  0.00    -0.389 OA
ATOM     19  H   UNL     1      -0.610   8.908   2.720  0.00  0.00    +0.210 HD
ENDBRANCH   1  18
BRANCH   1  20
ATOM     20  C   UNL     1      -1.103   6.307   2.851  0.00  0.00    -0.046 C 
BRANCH  20  21
ATOM     21  N   UNL     1      -0.696   5.985   1.470  0.00  0.00    +0.382 N 
ATOM     22  H   UNL     1      -0.228   6.800   1.056  0.00  0.00    -0.086 HD
ATOM     23  H   UNL     1      -1.529   5.752   0.917  0.00  0.00    -0.086 HD
BRANCH  21  24
ATOM     24  C   UNL     1       0.230   4.837   1.464  0.00  0.00    -0.061 C 
BRANCH  24  25
ATOM     25  C   UNL     1       0.634   4.527   0.021  0.00  0.00    +0.104 C 
BRANCH  25  26
ATOM     26  N   UNL     1       1.554   3.387   0.005  0.00  0.00    -0.326 N 
ATOM     27  C   UNL     1       2.900   3.444  -0.007  0.00  0.00    +0.202 A 
ATOM     28  N   UNL     1       3.393   2.231  -0.018  0.00  0.00    -0.218 NA
ATOM     29  C   UNL     1       2.399   1.339  -0.014  0.00  0.00    +0.168 A 
ATOM     30  C   UNL     1       1.206   2.051   0.002  0.00  0.00    +0.151 A 
ATOM     31  C   UNL     1      -0.016   1.345   0.009  0.00  0.00    +0.282 A 
ATOM     32  O   UNL     1      -1.075   1.947   0.018  0.00  0.00    -0.265 OA
ATOM     33  N   UNL     1       0.002  -0.004   0.002  0.00  0.00    -0.262 N 
ATOM     34  C   UNL     1       1.164  -0.680  -0.013  0.00  0.00    +0.333 A 
ATOM     35  O   UNL     1       1.141  -1.896  -0.019  0.00  0.00    -0.246 OA
ATOM     36  N   UNL     1       2.351  -0.046  -0.021  0.00  0.00    -0.280 N 
ATOM     37  C   UNL     1       3.594  -0.821  -0.037  0.00  0.00    +0.155 C 
ATOM     38  C   UNL     1      -1.263  -0.743   0.010  0.00  0.00    +0.157 C 
ENDBRANCH  25  26
ENDBRANCH  24  25
ENDBRANCH  21  24
ENDBRANCH  20  21
ENDBRANCH   1  20
TORSDOF 10
