REMARK  Name = ZINC35525651
REMARK  11 active torsions:
REMARK  status: ('A' for Active; 'I' for Inactive)
REMARK    1  A    between atoms: C_1  and  C_2
REMARK    2  A    between atoms: C_2  and  C_3
REMARK    3  A    between atoms: C_2  and  C_4
REMARK    4  A    between atoms: C_8  and  C_36
REMARK    5  A    between atoms: C_9  and  N_10
REMARK    6  A    between atoms: C_26  and  C_28
REMARK    7  A    between atoms: C_28  and  N_29
REMARK    8  A    between atoms: N_29  and  C_30
REMARK    9  A    between atoms: N_29  and  C_31
REMARK   10  A    between atoms: C_36  and  C_37
REMARK   11  A    between atoms: C_36  and  C_38
REMARK                            x       y       z     vdW  Elec       q    Type
REMARK                         _______ _______ _______ _____ _____    ______ ____
ROOT
ATOM      1  N   UNL     1       1.977  -1.762   0.249  0.00  0.00    -0.269 N 
ATOM      2  C   UNL     1       3.044  -2.575   0.382  0.00  0.00    +0.307 C 
ATOM      3  O   UNL     1       3.589  -3.030  -0.605  0.00  0.00    -0.252 OA
ATOM      4  N   UNL     1       3.507  -2.882   1.610  0.00  0.00    -0.282 N 
ATOM      5  C   UNL     1       2.785  -2.446   2.813  0.00  0.00    +0.128 C 
ATOM      6  C   UNL     1       2.481  -3.678   3.675  0.00  0.00    +0.125 C 
ATOM      7  N   UNL     1       3.718  -4.456   3.835  0.00  0.00    -0.312 N 
ATOM      8  C   UNL     1       4.441  -4.892   2.632  0.00  0.00    +0.125 C 
ATOM      9  C   UNL     1       4.741  -3.665   1.769  0.00  0.00    +0.128 C 
ATOM     10  C   UNL     1       4.193  -4.771   5.095  0.00  0.00    +0.133 A 
ATOM     11  C   UNL     1       3.754  -5.952   5.756  0.00  0.00    +0.051 A 
ATOM     12  C   UNL     1       2.808  -6.967   5.288  0.00  0.00    -0.025 A 
ATOM     13  C   UNL     1       2.561  -8.001   6.117  0.00  0.00    -0.004 A 
ATOM     14  S   UNL     1       3.558  -7.694   7.551  0.00  0.00    -0.073 S 
ATOM     15  C   UNL     1       4.307  -6.171   7.034  0.00  0.00    +0.114 A 
ATOM     16  N   UNL     1       5.170  -5.327   7.566  0.00  0.00    -0.227 NA
ATOM     17  C   UNL     1       5.538  -4.247   6.904  0.00  0.00    +0.116 A 
ATOM     18  N   UNL     1       5.067  -3.982   5.699  0.00  0.00    -0.219 NA
ATOM     19  C   UNL     1       1.641  -9.159   5.875  0.00  0.00    +0.043 C 
ATOM     20  C   UNL     1       0.725  -8.811   4.693  0.00  0.00    +0.005 C 
ATOM     21  C   UNL     1       1.586  -8.259   3.552  0.00  0.00    +0.005 C 
ATOM     22  C   UNL     1       2.121  -6.877   3.928  0.00  0.00    +0.037 C 
ATOM     23  H   UNL     1       1.510  -1.441   1.036  0.00  0.00    +0.156 HD
ENDROOT
BRANCH   1  29
ATOM     24  C   UNL     1       1.163  -2.345  -1.949  0.00  0.00    -0.023 A 
ATOM     25  C   UNL     1       0.730  -1.966  -3.205  0.00  0.00    +0.006 A 
ATOM     26  C   UNL     1       0.680  -0.626  -3.544  0.00  0.00    +0.001 A 
ATOM     27  C   UNL     1       1.064   0.337  -2.629  0.00  0.00    +0.006 A 
ATOM     28  C   UNL     1       1.498  -0.036  -1.373  0.00  0.00    -0.023 A 
ATOM     29  C   UNL     1       1.544  -1.380  -1.026  0.00  0.00    +0.042 A 
BRANCH  24  31
ATOM     30  C   UNL     1      -0.203  -4.371  -1.525  0.00  0.00    +0.012 C 
ATOM     31  C   UNL     1       1.218  -3.805  -1.580  0.00  0.00    +0.015 C 
ATOM     32  C   UNL     1       2.029  -4.567  -2.630  0.00  0.00    +0.012 C 
ENDBRANCH  24  31
BRANCH  28  33
ATOM     33  C   UNL     1       1.917   1.014  -0.376  0.00  0.00    +0.015 C 
ATOM     34  C   UNL     1       3.005   1.896  -0.992  0.00  0.00    +0.012 C 
ATOM     35  C   UNL     1       0.709   1.877  -0.007  0.00  0.00    +0.012 C 
ENDBRANCH  28  33
ENDBRANCH   1  29
BRANCH  17  36
ATOM     36  C   UNL     1       6.525  -3.299   7.535  0.00  0.00    -0.002 C 
BRANCH  36  37
ATOM     37  N   UNL     1       7.891  -3.698   7.168  0.00  0.00    +0.381 N 
ATOM     38  C   UNL     1       8.845  -2.706   7.681  0.00  0.00    -0.096 C 
ATOM     39  C   UNL     1       8.190  -5.013   7.750  0.00  0.00    -0.096 C 
ATOM     40  H   UNL     1       7.968  -3.749   6.163  0.00  0.00    -0.082 HD
ENDBRANCH  36  37
ENDBRANCH  17  36
TORSDOF 5
