REMARK  Name = ZINC08790272
REMARK  6 active torsions:
REMARK  status: ('A' for Active; 'I' for Inactive)
REMARK    1  A    between atoms: C_1  and  C_2
REMARK    2  A    between atoms: C_16  and  C_18
REMARK    3  A    between atoms: C_18  and  C_19
REMARK    4  A    between atoms: N_24  and  C_27
REMARK    5  A    between atoms: C_27  and  C_28
REMARK    6  A    between atoms: C_28  and  C_29
REMARK                            x       y       z     vdW  Elec       q    Type
REMARK                         _______ _______ _______ _____ _____    ______ ____
ROOT
ATOM      1  C   UNL     1       2.461   3.931  -0.002  0.00  0.00    +0.047 C 
ATOM      2  C   UNL     1       1.162   3.167   0.007  0.00  0.00    -0.011 A 
ATOM      3  C   UNL     1       1.175   1.786   0.000  0.00  0.00    +0.046 A 
ATOM      4  C   UNL     1      -0.013   1.076   0.008  0.00  0.00    +0.020 A 
ATOM      5  C   UNL     1      -1.219   1.753   0.017  0.00  0.00    +0.006 A 
ATOM      6  C   UNL     1      -1.237   3.130   0.031  0.00  0.00    -0.027 A 
ATOM      7  C   UNL     1      -0.049   3.855   0.023  0.00  0.00    +0.040 A 
ATOM      8  N   UNL     1      -0.319   5.225   0.033  0.00  0.00    -0.286 N 
ATOM      9  C   UNL     1      -1.641   5.482   0.049  0.00  0.00    +0.211 C 
ATOM     10  O   UNL     1      -2.166   6.575   0.061  0.00  0.00    -0.277 OA
ATOM     11  C   UNL     1      -2.340   4.150   0.049  0.00  0.00    +0.050 C 
ATOM     12  C   UNL     1      -3.265   4.002  -1.165  0.00  0.00    +0.088 C 
ATOM     13  C   UNL     1      -4.681   4.346  -0.623  0.00  0.00    +0.073 C 
ATOM     14  C   UNL     1      -4.462   4.689   0.866  0.00  0.00    -0.049 C 
ATOM     15  C   UNL     1      -5.045   5.607  -1.374  0.00  0.00    +0.224 C 
ATOM     16  O   UNL     1      -6.085   6.218  -1.255  0.00  0.00    -0.275 OA
ATOM     17  N   UNL     1      -4.040   5.943  -2.192  0.00  0.00    -0.241 N 
ATOM     18  C   UNL     1      -2.992   5.113  -2.154  0.00  0.00    +0.225 C 
ATOM     19  O   UNL     1      -1.980   5.232  -2.811  0.00  0.00    -0.275 OA
ATOM     20 CL   UNL     1       2.689   0.936  -0.018  0.00  0.00    -0.083 Cl
ATOM     21  H   UNL     1       0.366   5.912   0.028  0.00  0.00    +0.155 HD
ATOM     22  N   UNL     1      -3.209   4.011   1.205  0.00  0.00    +0.394 N 
ATOM     23  H   UNL     1      -2.779   4.450   2.027  0.00  0.00    -0.083 HD
ATOM     24  H   UNL     1      -3.385   3.018   1.399  0.00  0.00    -0.083 HD
ENDROOT
BRANCH  14  25
ATOM     25  C   UNL     1      -5.627   4.169   1.709  0.00  0.00    +0.080 C 
BRANCH  25  26
ATOM     26  C   UNL     1      -5.455   4.620   3.137  0.00  0.00    +0.209 C 
ATOM     27  O   UNL     1      -4.495   5.292   3.449  0.00  0.00    -0.276 OA
ATOM     28  N   UNL     1      -6.368   4.277   4.067  0.00  0.00    -0.329 N 
ATOM     29  H   UNL     1      -7.136   3.740   3.817  0.00  0.00    +0.145 HD
ATOM     30  H   UNL     1      -6.258   4.568   4.986  0.00  0.00    +0.145 HD
ENDBRANCH  25  26
ENDBRANCH  14  25
BRANCH  17  31
ATOM     31  C   UNL     1      -4.085   7.124  -3.058  0.00  0.00    +0.121 C 
BRANCH  31  32
ATOM     32  C   UNL     1      -4.690   6.742  -4.410  0.00  0.00    +0.054 C 
BRANCH  32  33
ATOM     33  C   UNL     1      -4.736   7.957  -5.301  0.00  0.00    -0.046 A 
ATOM     34  C   UNL     1      -5.852   8.773  -5.299  0.00  0.00    +0.004 A 
ATOM     35  C   UNL     1      -5.892   9.890  -6.112  0.00  0.00    +0.000 A 
ATOM     36  C   UNL     1      -4.821  10.184  -6.935  0.00  0.00    +0.000 A 
ATOM     37  C   UNL     1      -3.708   9.365  -6.941  0.00  0.00    +0.000 A 
ATOM     38  C   UNL     1      -3.666   8.251  -6.124  0.00  0.00    +0.004 A 
ENDBRANCH  32  33
ENDBRANCH  31  32
ENDBRANCH  17  31
TORSDOF 5
