REMARK  Name = ZINC12329195
REMARK  8 active torsions:
REMARK  status: ('A' for Active; 'I' for Inactive)
REMARK    1  A    between atoms: C_1  and  C_2
REMARK    2  A    between atoms: C_3  and  C_14
REMARK    3  A    between atoms: C_6  and  O_12
REMARK    4  A    between atoms: O_12  and  C_13
REMARK    5  A    between atoms: C_14  and  C_16
REMARK    6  A    between atoms: C_14  and  O_33
REMARK    7  A    between atoms: C_16  and  N_61
REMARK    8  A    between atoms: C_23  and  O_32
REMARK                            x       y       z     vdW  Elec       q    Type
REMARK                         _______ _______ _______ _____ _____    ______ ____
ROOT
ATOM      1  C   UNL     1      -2.221   1.336   1.006  0.00  0.00    -0.075 C 
ATOM      2  C   UNL     1      -2.992   2.018   2.139  0.00  0.00    +0.029 C 
ATOM      3  C   UNL     1      -2.537   1.440   3.480  0.00  0.00    +0.110 C 
ATOM      4  C   UNL     1      -1.026   1.630   3.628  0.00  0.00    +0.029 C 
ATOM      5  C   UNL     1      -0.314   0.958   2.452  0.00  0.00    -0.075 C 
ATOM      6  C   UNL     1      -3.258   2.165   4.622  0.00  0.00    +0.084 C 
ATOM      7  C   UNL     1      -4.766   2.047   4.391  0.00  0.00    +0.152 C 
ATOM      8  C   UNL     1      -5.123   0.614   4.084  0.00  0.00    +0.023 A 
ATOM      9  C   UNL     1      -6.442   0.213   4.213  0.00  0.00    +0.010 A 
ATOM     10  C   UNL     1      -6.805  -1.090   3.936  0.00  0.00    +0.001 A 
ATOM     11  C   UNL     1      -5.849  -2.002   3.527  0.00  0.00    +0.004 A 
ATOM     12  C   UNL     1      -4.533  -1.608   3.398  0.00  0.00    +0.046 A 
ATOM     13  C   UNL     1      -4.163  -0.296   3.678  0.00  0.00    +0.127 A 
ATOM     14  O   UNL     1      -2.857   0.052   3.544  0.00  0.00    -0.485 OA
ATOM     15  N   UNL     1      -0.775   1.581   1.193  0.00  0.00    +0.382 N 
ATOM     16  H   UNL     1      -0.613   2.594   1.244  0.00  0.00    -0.082 HD
ENDROOT
BRANCH   7  17
ATOM     17  O   UNL     1      -5.461   2.468   5.567  0.00  0.00    -0.387 OA
ATOM     18  H   UNL     1      -6.424   2.423   5.492  0.00  0.00    +0.210 HD
ENDBRANCH   7  17
BRANCH  15  19
ATOM     19  C   UNL     1      -0.018   1.031   0.050  0.00  0.00    -0.042 C 
BRANCH  19  20
ATOM     20  C   UNL     1      -0.592   1.600  -1.249  0.00  0.00    +0.130 C 
BRANCH  20  23
ATOM     21  C   UNL     1      -1.522  -0.574  -3.259  0.00  0.00    +0.063 C 
ATOM     22  C   UNL     1      -0.194   0.138  -3.293  0.00  0.00    +0.019 A 
ATOM     23  C   UNL     1       0.200   1.077  -2.420  0.00  0.00    +0.007 A 
ATOM     24  C   UNL     1       1.542   1.503  -2.823  0.00  0.00    +0.009 A 
ATOM     25  C   UNL     1       2.454   2.435  -2.324  0.00  0.00    +0.056 A 
ATOM     26  C   UNL     1       3.671   2.603  -2.953  0.00  0.00    +0.121 A 
ATOM     27  C   UNL     1       3.989   1.849  -4.080  0.00  0.00    +0.047 A 
ATOM     28  C   UNL     1       3.101   0.921  -4.575  0.00  0.00    +0.030 A 
ATOM     29  C   UNL     1       1.867   0.740  -3.959  0.00  0.00    +0.047 A 
ATOM     30  N   UNL     1       0.789  -0.078  -4.221  0.00  0.00    -0.358 N 
ATOM     31  H   UNL     1       0.735  -0.711  -4.953  0.00  0.00    +0.166 HD
BRANCH  26  32
ATOM     32  O   UNL     1       4.564   3.509  -2.471  0.00  0.00    -0.495 OA
ATOM     33  C   UNL     1       5.804   3.633  -3.170  0.00  0.00    +0.277 C 
ENDBRANCH  26  32
ENDBRANCH  20  23
BRANCH  20  34
ATOM     34  O   UNL     1      -0.513   3.027  -1.219  0.00  0.00    -0.389 OA
ATOM     35  H   UNL     1       0.376   3.368  -1.052  0.00  0.00    +0.210 HD
ENDBRANCH  20  34
ENDBRANCH  19  20
ENDBRANCH  15  19
TORSDOF 6
