REMARK  Name = ZINC19741672
REMARK  13 active torsions:
REMARK  status: ('A' for Active; 'I' for Inactive)
REMARK    1  A    between atoms: C_1  and  C_2
REMARK    2  A    between atoms: C_2  and  C_3
REMARK    3  A    between atoms: C_2  and  N_4
REMARK    4  A    between atoms: C_5  and  C_7
REMARK    5  A    between atoms: C_7  and  N_8
REMARK    6  A    between atoms: N_11  and  C_14
REMARK    7  A    between atoms: C_14  and  C_15
REMARK    8  A    between atoms: C_20  and  O_21
REMARK    9  A    between atoms: O_21  and  C_22
REMARK   10  A    between atoms: C_22  and  C_23
REMARK   11  A    between atoms: C_23  and  C_25
REMARK   12  A    between atoms: C_23  and  O_32
REMARK   13  A    between atoms: C_25  and  N_26
REMARK                            x       y       z     vdW  Elec       q    Type
REMARK                         _______ _______ _______ _____ _____    ______ ____
ROOT
ATOM      1  C   UNL     1      -2.235  -2.690   9.719  0.00  0.00    -0.022 A 
ATOM      2  C   UNL     1      -2.434  -3.946  10.261  0.00  0.00    +0.005 A 
ATOM      3  C   UNL     1      -1.768  -4.315  11.415  0.00  0.00    +0.000 A 
ATOM      4  C   UNL     1      -0.901  -3.429  12.029  0.00  0.00    +0.004 A 
ATOM      5  C   UNL     1      -0.699  -2.174  11.491  0.00  0.00    +0.046 A 
ATOM      6  C   UNL     1      -1.362  -1.803  10.330  0.00  0.00    +0.122 A 
ENDROOT
BRANCH   1   7
ATOM      7  C   UNL     1      -2.962  -2.288   8.461  0.00  0.00    -0.039 C 
BRANCH   7  11
ATOM      8  N   UNL     1      -0.740  -1.407   4.996  0.00  0.00    -0.298 NA
ATOM      9  C   UNL     1      -1.876  -2.332   4.869  0.00  0.00    +0.066 C 
ATOM     10  C   UNL     1      -2.806  -2.160   6.072  0.00  0.00    -0.063 C 
ATOM     11  N   UNL     1      -2.064  -2.436   7.309  0.00  0.00    +0.384 N 
ATOM     12  C   UNL     1      -0.948  -1.490   7.434  0.00  0.00    -0.063 C 
ATOM     13  C   UNL     1      -0.002  -1.656   6.242  0.00  0.00    +0.066 C 
ATOM     14  H   UNL     1      -1.704  -3.378   7.281  0.00  0.00    -0.081 HD
BRANCH   8  15
ATOM     15  C   UNL     1       0.149  -1.502   3.830  0.00  0.00    +0.180 C 
BRANCH  15  17
ATOM     16  N   UNL     1       0.048  -0.999   1.410  0.00  0.00    -0.312 N 
ATOM     17  C   UNL     1      -0.575  -1.006   2.605  0.00  0.00    +0.227 C 
ATOM     18  O   UNL     1      -1.719  -0.612   2.694  0.00  0.00    -0.274 OA
ATOM     19  H   UNL     1       0.963  -1.314   1.339  0.00  0.00    +0.149 HD
BRANCH  16  21
ATOM     20  C   UNL     1      -0.524   1.005   0.131  0.00  0.00    +0.027 C 
ATOM     21  C   UNL     1      -0.655  -0.517   0.219  0.00  0.00    +0.067 C 
ATOM     22  C   UNL     1      -0.042  -1.155  -1.029  0.00  0.00    +0.027 C 
ENDBRANCH  16  21
ENDBRANCH  15  17
ENDBRANCH   8  15
ENDBRANCH   7  11
ENDBRANCH   1   7
BRANCH   6  23
ATOM     23  O   UNL     1      -1.160  -0.570   9.795  0.00  0.00    -0.489 OA
BRANCH  23  24
ATOM     24  C   UNL     1      -0.247   0.292  10.478  0.00  0.00    +0.258 C 
BRANCH  24  25
ATOM     25  C   UNL     1      -0.151   1.625   9.733  0.00  0.00    +0.135 C 
BRANCH  25  26
ATOM     26  O   UNL     1      -1.413   2.293   9.787  0.00  0.00    -0.390 OA
ATOM     27  H   UNL     1      -1.717   2.489  10.684  0.00  0.00    +0.210 HD
ENDBRANCH  25  26
BRANCH  25  28
ATOM     28  C   UNL     1       0.918   2.501  10.391  0.00  0.00    -0.044 C 
BRANCH  28  29
ATOM     29  N   UNL     1       0.996   3.789   9.690  0.00  0.00    +0.382 N 
ATOM     30  C   UNL     1       1.456   3.561   8.318  0.00  0.00    -0.068 C 
ATOM     31  C   UNL     1       1.193   4.809   7.467  0.00  0.00    +0.050 C 
ATOM     32  S   UNL     1       2.153   6.189   8.164  0.00  0.00    -0.164 S 
ATOM     33  C   UNL     1       1.724   6.119   9.932  0.00  0.00    +0.050 C 
ATOM     34  C   UNL     1       1.908   4.676  10.415  0.00  0.00    -0.068 C 
ATOM     35  H   UNL     1       0.078   4.207   9.664  0.00  0.00    -0.082 HD
ENDBRANCH  28  29
ENDBRANCH  25  28
ENDBRANCH  24  25
ENDBRANCH  23  24
ENDBRANCH   6  23
TORSDOF 11
