REMARK  Name = ZINC64131778
REMARK  12 active torsions:
REMARK  status: ('A' for Active; 'I' for Inactive)
REMARK    1  A    between atoms: C_1  and  C_2
REMARK    2  A    between atoms: C_2  and  N_3
REMARK    3  A    between atoms: C_4  and  C_6
REMARK    4  A    between atoms: N_8  and  C_30
REMARK    5  A    between atoms: C_10  and  C_13
REMARK    6  A    between atoms: N_15  and  C_16
REMARK    7  A    between atoms: C_16  and  C_18
REMARK    8  A    between atoms: C_16  and  C_19
REMARK    9  A    between atoms: C_25  and  C_29
REMARK   10  A    between atoms: C_30  and  C_31
REMARK   11  A    between atoms: C_31  and  C_32
REMARK   12  A    between atoms: C_31  and  C_33
REMARK                            x       y       z     vdW  Elec       q    Type
REMARK                         _______ _______ _______ _____ _____    ______ ____
ROOT
ATOM      1  C   UNL     1       3.110  -1.014  -5.941  0.00  0.00    +0.250 C 
ATOM      2  O   UNL     1       3.494  -1.487  -6.993  0.00  0.00    -0.270 OA
ATOM      3  N   UNL     1       3.207   0.313  -5.723  0.00  0.00    -0.305 N 
ATOM      4  H   UNL     1       2.835   0.701  -4.916  0.00  0.00    +0.149 HD
ENDROOT
BRANCH   1   9
ATOM      5  C   UNL     1       1.408  -2.275  -2.692  0.00  0.00    +0.100 A 
ATOM      6  C   UNL     1       1.474  -3.621  -2.978  0.00  0.00    +0.102 A 
ATOM      7  N   UNL     1       2.020  -4.069  -4.120  0.00  0.00    -0.351 N 
ATOM      8  C   UNL     1       2.537  -3.259  -5.058  0.00  0.00    +0.102 A 
ATOM      9  C   UNL     1       2.539  -1.890  -4.904  0.00  0.00    +0.100 A 
ATOM     10  C   UNL     1       1.950  -1.325  -3.678  0.00  0.00    +0.206 A 
ATOM     11  O   UNL     1       1.917  -0.121  -3.485  0.00  0.00    -0.286 OA
BRANCH   5  13
ATOM     12  N   UNL     1       0.649  -0.476  -1.222  0.00  0.00    -0.311 N 
ATOM     13  C   UNL     1       0.806  -1.798  -1.435  0.00  0.00    +0.249 C 
ATOM     14  O   UNL     1       0.451  -2.596  -0.590  0.00  0.00    -0.270 OA
ATOM     15  H   UNL     1       0.999   0.163  -1.863  0.00  0.00    +0.149 HD
BRANCH  12  17
ATOM     16  C   UNL     1      -0.090   1.524  -0.025  0.00  0.00    +0.024 C 
ATOM     17  C   UNL     1      -0.050  -0.005  -0.024  0.00  0.00    +0.101 C 
ENDBRANCH  12  17
ENDBRANCH   5  13
BRANCH   7  18
ATOM     18  C   UNL     1       2.055  -5.515  -4.354  0.00  0.00    +0.124 C 
BRANCH  18  19
ATOM     19  C   UNL     1       0.779  -5.945  -5.080  0.00  0.00    +0.003 C 
ATOM     20  C   UNL     1       0.747  -5.310  -6.472  0.00  0.00    +0.009 C 
ATOM     21  C   UNL     1       0.757  -7.469  -5.214  0.00  0.00    +0.009 C 
ENDBRANCH  18  19
ENDBRANCH   7  18
ENDBRANCH   1   9
BRANCH   3  22
ATOM     22  C   UNL     1       3.875   1.169  -6.707  0.00  0.00    +0.113 C 
ATOM     23  C   UNL     1       2.878   1.569  -7.796  0.00  0.00    +0.032 C 
BRANCH  22  24
ATOM     24  C   UNL     1       4.404   2.426  -6.013  0.00  0.00    +0.194 C 
ATOM     25  N   UNL     1       3.289   3.196  -5.446  0.00  0.00    -0.362 N 
ATOM     26  C   UNL     1       3.292   4.366  -6.017  0.00  0.00    +0.060 A 
ATOM     27  C   UNL     1       2.436   5.551  -5.871  0.00  0.00    +0.027 A 
ATOM     28  C   UNL     1       2.686   6.648  -6.614  0.00  0.00    +0.005 A 
ATOM     29  C   UNL     1       3.745   6.713  -7.538  0.00  0.00    -0.048 A 
ATOM     30  C   UNL     1       4.589   5.683  -7.749  0.00  0.00    +0.030 A 
ATOM     31  C   UNL     1       4.413   4.434  -6.995  0.00  0.00    +0.060 A 
ATOM     32  N   UNL     1       5.060   3.304  -6.990  0.00  0.00    -0.362 N 
ATOM     33  C   UNL     1       3.943   7.984  -8.322  0.00  0.00    +0.044 C 
ATOM     34  H   UNL     1       2.664   2.889  -4.771  0.00  0.00    +0.162 HD
ATOM     35  H   UNL     1       5.833   3.082  -7.532  0.00  0.00    +0.162 HD
ENDBRANCH  22  24
ENDBRANCH   3  22
TORSDOF 7
