REMARK  Name = ZINC39667465
REMARK  10 active torsions:
REMARK  status: ('A' for Active; 'I' for Inactive)
REMARK    1  A    between atoms: C_1  and  C_2
REMARK    2  A    between atoms: C_2  and  C_3
REMARK    3  A    between atoms: C_3  and  C_4
REMARK    4  A    between atoms: C_4  and  C_6
REMARK    5  A    between atoms: C_4  and  C_7
REMARK    6  A    between atoms: C_11  and  C_20
REMARK    7  A    between atoms: N_22  and  C_23
REMARK    8  A    between atoms: C_23  and  C_24
REMARK    9  A    between atoms: C_28  and  C_31
REMARK   10  A    between atoms: C_29  and  C_30
REMARK                            x       y       z     vdW  Elec       q    Type
REMARK                         _______ _______ _______ _____ _____    ______ ____
ROOT
ATOM      1  C   UNL     1       1.335  -2.575   2.213  0.00  0.00    +0.218 C 
ATOM      2  O   UNL     1       1.791  -1.712   2.934  0.00  0.00    -0.275 OA
ATOM      3  N   UNL     1       1.590  -3.873   2.471  0.00  0.00    -0.300 N 
ATOM      4  C   UNL     1       1.130  -5.058   1.708  0.00  0.00    +0.121 C 
ATOM      5  C   UNL     1       2.342  -6.016   1.709  0.00  0.00    +0.100 C 
ATOM      6  C   UNL     1       3.166  -5.606   2.941  0.00  0.00    -0.004 C 
ATOM      7  C   UNL     1       2.400  -4.438   3.577  0.00  0.00    +0.115 C 
ATOM      8  C   UNL     1       4.558  -5.147   2.516  0.00  0.00    -0.010 C 
ATOM      9  C   UNL     1       5.378  -4.798   3.762  0.00  0.00    -0.082 C 
ATOM     10  N   UNL     1       5.473  -5.977   4.632  0.00  0.00    +0.379 N 
ATOM     11  C   UNL     1       4.139  -6.356   5.110  0.00  0.00    -0.082 C 
ATOM     12  C   UNL     1       3.267  -6.770   3.922  0.00  0.00    -0.010 C 
ATOM     13  H   UNL     1       5.874  -6.744   4.113  0.00  0.00    -0.086 HD
ATOM     14  H   UNL     1       6.064  -5.763   5.421  0.00  0.00    -0.086 HD
ENDROOT
BRANCH   5  15
ATOM     15  C   UNL     1       3.151  -5.840   0.450  0.00  0.00    +0.218 C 
ATOM     16  O   UNL     1       3.189  -4.760  -0.100  0.00  0.00    -0.275 OA
ATOM     17  N   UNL     1       3.834  -6.882  -0.064  0.00  0.00    -0.311 N 
ATOM     18  H   UNL     1       3.804  -7.746   0.376  0.00  0.00    +0.149 HD
BRANCH  17  19
ATOM     19  C   UNL     1       4.621  -6.711  -1.288  0.00  0.00    +0.139 C 
BRANCH  19  20
ATOM     20  C   UNL     1       5.280  -8.017  -1.648  0.00  0.00    -0.027 A 
ATOM     21  C   UNL     1       6.608  -8.232  -1.328  0.00  0.00    +0.005 A 
ATOM     22  C   UNL     1       7.213  -9.430  -1.659  0.00  0.00    +0.001 A 
ATOM     23  C   UNL     1       6.491 -10.413  -2.308  0.00  0.00    +0.003 A 
ATOM     24  C   UNL     1       5.163 -10.199  -2.627  0.00  0.00    -0.047 A 
ATOM     25  C   UNL     1       4.556  -9.002  -2.293  0.00  0.00    -0.043 A 
ATOM     26  C   UNL     1       3.107  -8.770  -2.635  0.00  0.00    +0.044 C 
ATOM     27  C   UNL     1       4.375 -11.271  -3.335  0.00  0.00    +0.044 C 
ENDBRANCH  19  20
ENDBRANCH  17  19
ENDBRANCH   5  15
BRANCH   1  28
ATOM     28  C   UNL     1       0.481  -2.195   1.031  0.00  0.00    +0.072 C 
ATOM     29  C   UNL     1      -0.906  -2.822   1.180  0.00  0.00    +0.017 C 
BRANCH  28  30
ATOM     30  C   UNL     1       0.348  -0.672   0.966  0.00  0.00    +0.012 C 
BRANCH  30  32
ATOM     31  C   UNL     1      -0.545   1.243  -0.367  0.00  0.00    +0.004 C 
ATOM     32  C   UNL     1      -0.412  -0.280  -0.303  0.00  0.00    -0.003 C 
ENDBRANCH  30  32
ENDBRANCH  28  30
ENDBRANCH   1  28
TORSDOF 6
