REMARK  Name = ZINC39656769
REMARK  6 active torsions:
REMARK  status: ('A' for Active; 'I' for Inactive)
REMARK    1  A    between atoms: C_1  and  C_2
REMARK    2  A    between atoms: C_6  and  C_8
REMARK    3  A    between atoms: C_12  and  C_21
REMARK    4  A    between atoms: N_23  and  C_24
REMARK    5  A    between atoms: C_24  and  C_26
REMARK    6  A    between atoms: C_24  and  C_27
REMARK                            x       y       z     vdW  Elec       q    Type
REMARK                         _______ _______ _______ _____ _____    ______ ____
ROOT
ATOM      1  C   UNL     1       0.150  -2.899   2.742  0.00  0.00    +0.247 C 
ATOM      2  O   UNL     1       0.284  -2.395   3.840  0.00  0.00    -0.270 OA
ATOM      3  N   UNL     1       0.031  -4.237   2.625  0.00  0.00    -0.296 N 
ATOM      4  C   UNL     1      -0.008  -5.039   1.380  0.00  0.00    +0.121 C 
ATOM      5  C   UNL     1       0.819  -6.303   1.705  0.00  0.00    +0.100 C 
ATOM      6  C   UNL     1       0.758  -6.429   3.236  0.00  0.00    -0.004 C 
ATOM      7  C   UNL     1      -0.085  -5.237   3.712  0.00  0.00    +0.115 C 
ATOM      8  C   UNL     1       0.091  -7.742   3.633  0.00  0.00    -0.010 C 
ATOM      9  C   UNL     1       0.095  -7.871   5.159  0.00  0.00    -0.082 C 
ATOM     10  N   UNL     1       1.477  -7.833   5.652  0.00  0.00    +0.379 N 
ATOM     11  C   UNL     1       2.082  -6.530   5.347  0.00  0.00    -0.082 C 
ATOM     12  C   UNL     1       2.162  -6.345   3.829  0.00  0.00    -0.010 C 
ATOM     13  H   UNL     1       1.481  -7.978   6.650  0.00  0.00    -0.086 HD
ATOM     14  H   UNL     1       2.012  -8.563   5.206  0.00  0.00    -0.086 HD
ENDROOT
BRANCH   1  20
ATOM     15  C   UNL     1      -1.103  -2.230  -2.042  0.00  0.00    +0.044 C 
ATOM     16  C   UNL     1      -0.482  -1.719  -0.767  0.00  0.00    -0.050 A 
ATOM     17  C   UNL     1       0.062  -0.447  -0.725  0.00  0.00    +0.003 A 
ATOM     18  C   UNL     1       0.633   0.030   0.441  0.00  0.00    +0.001 A 
ATOM     19  C   UNL     1       0.665  -0.762   1.571  0.00  0.00    +0.013 A 
ATOM     20  C   UNL     1       0.119  -2.046   1.535  0.00  0.00    +0.037 A 
ATOM     21  C   UNL     1      -0.461  -2.518   0.357  0.00  0.00    +0.016 A 
ENDBRANCH   1  20
BRANCH   5  22
ATOM     22  C   UNL     1       2.244  -6.131   1.246  0.00  0.00    +0.219 C 
ATOM     23  O   UNL     1       2.744  -5.027   1.224  0.00  0.00    -0.275 OA
ATOM     24  N   UNL     1       2.962  -7.204   0.860  0.00  0.00    -0.308 N 
ATOM     25  H   UNL     1       2.562  -8.088   0.877  0.00  0.00    +0.149 HD
BRANCH  24  26
ATOM     26  C   UNL     1       4.347  -7.037   0.414  0.00  0.00    +0.100 C 
ATOM     27  C   UNL     1       4.364  -6.675  -1.073  0.00  0.00    +0.033 C 
BRANCH  26  28
ATOM     28  C   UNL     1       5.102  -8.324   0.626  0.00  0.00    -0.027 A 
ATOM     29  C   UNL     1       4.494  -9.535   0.353  0.00  0.00    +0.006 A 
ATOM     30  C   UNL     1       5.186 -10.715   0.547  0.00  0.00    +0.015 A 
ATOM     31  C   UNL     1       6.488 -10.685   1.014  0.00  0.00    +0.018 A 
ATOM     32  C   UNL     1       7.097  -9.473   1.286  0.00  0.00    +0.015 A 
ATOM     33  C   UNL     1       6.405  -8.292   1.087  0.00  0.00    +0.006 A 
ATOM     34 BR   UNL     1       7.436 -12.299   1.280  0.00  0.00    -0.050 Br
ENDBRANCH  26  28
ENDBRANCH  24  26
ENDBRANCH   5  22
TORSDOF 4
