REMARK  Name = ZINC33478658
REMARK  6 active torsions:
REMARK  status: ('A' for Active; 'I' for Inactive)
REMARK    1  A    between atoms: C_1  and  C_2
REMARK    2  A    between atoms: C_6  and  C_8
REMARK    3  A    between atoms: C_8  and  O_9
REMARK    4  A    between atoms: O_9  and  C_10
REMARK    5  A    between atoms: C_15  and  C_16
REMARK    6  A    between atoms: C_19  and  C_23
REMARK                            x       y       z     vdW  Elec       q    Type
REMARK                         _______ _______ _______ _____ _____    ______ ____
ROOT
ATOM      1  C   UNK     1      -2.916   2.996   1.558  0.00  0.00    +0.123 A 
ATOM      2  C   UNK     1      -3.660   3.415   0.464  0.00  0.00    +0.046 A 
ATOM      3  C   UNK     1      -4.854   4.082   0.657  0.00  0.00    +0.004 A 
ATOM      4  C   UNK     1      -5.308   4.332   1.939  0.00  0.00    +0.000 A 
ATOM      5  C   UNK     1      -4.569   3.916   3.030  0.00  0.00    +0.006 A 
ATOM      6  C   UNK     1      -3.377   3.243   2.842  0.00  0.00    -0.010 A 
ENDROOT
BRANCH   6   7
ATOM      7  C   UNK     1      -2.574   2.784   4.032  0.00  0.00    +0.023 C 
ATOM      8  N   UNK     1      -3.437   2.645   5.245  0.00  0.00    +0.399 N 
ATOM      9  C   UNK     1      -2.785   1.762   6.231  0.00  0.00    +0.055 C 
ATOM     10  C   UNK     1      -2.301   0.457   5.547  0.00  0.00    +0.063 C 
ATOM     11  S   UNK     1      -2.009   1.041   3.825  0.00  0.00    -0.173 S 
ATOM     12  H   UNK     1      -3.596   3.635   5.697  0.00  0.00    -0.083 HD
ATOM     13  H   UNK     1      -4.406   2.212   4.958  0.00  0.00    -0.083 HD
BRANCH   9  14
ATOM     14  C   UNK     1      -3.769   1.420   7.320  0.00  0.00    +0.343 C 
ATOM     15  O   UNK     1      -4.955   1.527   7.118  0.00  0.00    -0.248 OA
ATOM     16  O   UNK     1      -3.327   0.996   8.514  0.00  0.00    -0.248 OA
ENDBRANCH   9  14
ENDBRANCH   6   7
BRANCH   1  17
ATOM     17  O   UNK     1      -1.741   2.339   1.370  0.00  0.00    -0.487 OA
BRANCH  17  18
ATOM     18  C   UNK     1      -1.332   2.114   0.020  0.00  0.00    +0.264 C 
BRANCH  18  24
ATOM     19  C   UNK     1       1.229  -2.186  -0.021  0.00  0.00    +0.044 C 
ATOM     20  C   UNK     1       1.208  -0.679  -0.013  0.00  0.00    -0.050 A 
ATOM     21  C   UNK     1       2.396   0.029  -0.022  0.00  0.00    +0.003 A 
ATOM     22  C   UNK     1       2.377   1.411  -0.015  0.00  0.00    +0.001 A 
ATOM     23  C   UNK     1       1.171   2.086   0.002  0.00  0.00    +0.007 A 
ATOM     24  C   UNK     1      -0.017   1.378   0.010  0.00  0.00    -0.010 A 
ATOM     25  C   UNK     1       0.002  -0.004   0.002  0.00  0.00    +0.010 A 
ENDBRANCH  18  24
ENDBRANCH  17  18
ENDBRANCH   1  17
TORSDOF 5
