REMARK  Name = ZINC20153786
REMARK  12 active torsions:
REMARK  status: ('A' for Active; 'I' for Inactive)
REMARK    1  A    between atoms: C_1  and  C_2
REMARK    2  A    between atoms: C_2  and  C_3
REMARK    3  A    between atoms: N_9  and  C_10
REMARK    4  A    between atoms: C_10  and  C_11
REMARK    5  A    between atoms: C_11  and  C_12
REMARK    6  A    between atoms: C_12  and  N_13
REMARK    7  A    between atoms: N_13  and  C_14
REMARK    8  A    between atoms: C_14  and  N_16
REMARK    9  A    between atoms: N_16  and  C_17
REMARK   10  A    between atoms: C_23  and  C_34
REMARK   11  A    between atoms: C_25  and  N_27
REMARK   12  A    between atoms: N_30  and  C_33
REMARK                            x       y       z     vdW  Elec       q    Type
REMARK                         _______ _______ _______ _____ _____    ______ ____
ROOT
ATOM      1  C   UNL     1      -0.594   3.137   0.286  0.00  0.00    +0.033 A 
ATOM      2  C   UNL     1      -1.575   2.999  -0.703  0.00  0.00    +0.025 A 
ATOM      3  C   UNL     1      -2.715   3.739  -0.665  0.00  0.00    +0.030 A 
ATOM      4  C   UNL     1      -2.922   4.659   0.378  0.00  0.00    +0.073 A 
ATOM      5  C   UNL     1      -1.933   4.803   1.381  0.00  0.00    +0.005 A 
ATOM      6  C   UNL     1      -0.767   4.025   1.325  0.00  0.00    +0.033 A 
ATOM      7  C   UNL     1      -2.143   5.728   2.425  0.00  0.00    -0.038 A 
ATOM      8  C   UNL     1      -3.299   6.449   2.425  0.00  0.00    +0.047 A 
ATOM      9  C   UNL     1      -4.240   6.261   1.403  0.00  0.00    +0.122 A 
ATOM     10  N   UNL     1      -4.037   5.396   0.431  0.00  0.00    -0.232 NA
ATOM     11  C   UNL     1      -1.116   5.912   3.512  0.00  0.00    +0.044 C 
ENDROOT
BRANCH   9  12
ATOM     12  N   UNL     1      -5.413   7.003   1.417  0.00  0.00    -0.319 N 
ATOM     13  C   UNL     1      -6.138   6.817   2.681  0.00  0.00    +0.088 C 
ATOM     14  C   UNL     1      -7.381   7.710   2.689  0.00  0.00    -0.060 C 
ATOM     15  N   UNL     1      -8.233   7.370   1.541  0.00  0.00    +0.380 N 
ATOM     16  C   UNL     1      -7.507   7.555   0.277  0.00  0.00    -0.060 C 
ATOM     17  C   UNL     1      -6.265   6.662   0.269  0.00  0.00    +0.088 C 
ATOM     18  C   UNL     1      -9.475   8.155   1.556  0.00  0.00    -0.096 C 
ATOM     19  H   UNL     1      -8.506   6.307   1.624  0.00  0.00    -0.082 HD
ENDBRANCH   9  12
BRANCH   1  20
ATOM     20  N   UNL     1       0.570   2.362   0.222  0.00  0.00    -0.297 N 
ATOM     21  H   UNL     1       0.508   1.299  -0.057  0.00  0.00    +0.154 HD
BRANCH  20  22
ATOM     22  C   UNL     1       1.766   2.917   0.501  0.00  0.00    +0.135 C 
ATOM     23  S   UNL     1       1.880   4.599   0.796  0.00  0.00    -0.019 S 
BRANCH  22  24
ATOM     24  N   UNL     1       2.871   2.148   0.547  0.00  0.00    -0.326 N 
ATOM     25  H   UNL     1       2.798   1.067   0.358  0.00  0.00    +0.148 HD
BRANCH  24  26
ATOM     26  C   UNL     1       4.171   2.752   0.851  0.00  0.00    +0.101 C 
BRANCH  26  27
ATOM     27  C   UNL     1       5.252   1.668   0.841  0.00  0.00    +0.000 C 
BRANCH  27  28
ATOM     28  C   UNL     1       6.609   2.299   1.158  0.00  0.00    -0.077 C 
BRANCH  28  34
ATOM     29  C   UNL     1       8.979   1.842   1.348  0.00  0.00    -0.069 C 
ATOM     30  C   UNL     1      10.014   0.722   1.479  0.00  0.00    -0.015 C 
ATOM     31  C   UNL     1       9.995  -0.134   0.209  0.00  0.00    -0.003 C 
ATOM     32  C   UNL     1       8.584  -0.690  -0.001  0.00  0.00    -0.019 C 
ATOM     33  C   UNL     1       7.591   0.471  -0.089  0.00  0.00    -0.078 C 
ATOM     34  N   UNL     1       7.646   1.258   1.149  0.00  0.00    +0.382 N 
ATOM     35  H   UNL     1       7.450   0.576   1.990  0.00  0.00    -0.081 HD
BRANCH  29  37
ATOM     36  C   UNL     1      10.321   3.413   2.753  0.00  0.00    +0.002 C 
ATOM     37  C   UNL     1       8.980   2.688   2.623  0.00  0.00    -0.019 C 
ENDBRANCH  29  37
ENDBRANCH  28  34
ENDBRANCH  27  28
ENDBRANCH  26  27
ENDBRANCH  24  26
ENDBRANCH  22  24
ENDBRANCH  20  22
ENDBRANCH   1  20
TORSDOF 9
