REMARK  Name = ZINC66977929
REMARK  9 active torsions:
REMARK  status: ('A' for Active; 'I' for Inactive)
REMARK    1  A    between atoms: C_1  and  C_2
REMARK    2  A    between atoms: N_6  and  C_7
REMARK    3  A    between atoms: C_7  and  C_8
REMARK    4  A    between atoms: C_8  and  C_10
REMARK    5  A    between atoms: C_8  and  C_11
REMARK    6  A    between atoms: C_11  and  N_12
REMARK    7  A    between atoms: N_15  and  C_16
REMARK    8  A    between atoms: C_16  and  C_17
REMARK    9  A    between atoms: C_17  and  O_27
REMARK                            x       y       z     vdW  Elec       q    Type
REMARK                         _______ _______ _______ _____ _____    ______ ____
ROOT
ATOM      1  N   UNL     1      -3.101  -0.219   4.945  0.00  0.00    -0.299 N 
ATOM      2  C   UNL     1      -3.510   0.367   6.087  0.00  0.00    +0.300 C 
ATOM      3  O   UNL     1      -2.704   0.923   6.807  0.00  0.00    -0.253 OA
ATOM      4  N   UNL     1      -4.813   0.338   6.431  0.00  0.00    -0.296 N 
ATOM      5  H   UNL     1      -3.745  -0.663   4.370  0.00  0.00    +0.150 HD
ATOM      6  H   UNL     1      -5.456  -0.106   5.856  0.00  0.00    +0.150 HD
ENDROOT
BRANCH   1   7
ATOM      7  C   UNL     1      -1.685  -0.187   4.571  0.00  0.00    +0.110 C 
BRANCH   7   8
ATOM      8  C   UNL     1      -1.492  -0.919   3.241  0.00  0.00    +0.023 C 
ATOM      9  C   UNL     1      -2.221  -0.161   2.131  0.00  0.00    +0.011 C 
BRANCH   8  10
ATOM     10  C   UNL     1       0.000  -0.994   2.913  0.00  0.00    +0.127 C 
BRANCH  10  16
ATOM     11  C   UNL     1       0.013  -4.091   2.805  0.00  0.00    +0.084 C 
ATOM     12  C   UNL     1       0.204  -3.152   1.641  0.00  0.00    +0.084 A 
ATOM     13  N   UNL     1       0.399  -3.509   0.401  0.00  0.00    -0.350 N 
ATOM     14  C   UNL     1       0.526  -2.412  -0.360  0.00  0.00    +0.101 A 
ATOM     15  C   UNL     1       0.405  -1.334   0.439  0.00  0.00    +0.104 A 
ATOM     16  N   UNL     1       0.195  -1.804   1.707  0.00  0.00    -0.336 N 
ATOM     17  H   UNL     1       0.445  -4.423   0.080  0.00  0.00    +0.166 HD
ENDBRANCH  10  16
ENDBRANCH   8  10
ENDBRANCH   7   8
ENDBRANCH   1   7
BRANCH   4  18
ATOM     18  C   UNL     1      -5.258   0.975   7.673  0.00  0.00    +0.145 C 
BRANCH  18  19
ATOM     19  C   UNL     1      -6.749   0.704   7.880  0.00  0.00    +0.107 C 
ATOM     20  C   UNL     1      -7.531   1.253   6.688  0.00  0.00    +0.041 C 
ATOM     21  C   UNL     1      -9.027   1.169   7.012  0.00  0.00    +0.008 C 
ATOM     22  C   UNL     1      -9.343   2.193   8.101  0.00  0.00    +0.035 C 
ATOM     23  C   UNL     1      -8.393   2.042   9.260  0.00  0.00    -0.041 A 
ATOM     24  C   UNL     1      -7.201   1.361   9.158  0.00  0.00    -0.011 A 
ATOM     25  C   UNL     1      -6.367   1.264  10.264  0.00  0.00    +0.007 A 
ATOM     26  C   UNL     1      -6.726   1.841  11.466  0.00  0.00    +0.000 A 
ATOM     27  C   UNL     1      -7.926   2.520  11.569  0.00  0.00    +0.000 A 
ATOM     28  C   UNL     1      -8.754   2.619  10.470  0.00  0.00    +0.004 A 
BRANCH  19  29
ATOM     29  O   UNL     1      -6.963  -0.706   7.974  0.00  0.00    -0.382 OA
ATOM     30  H   UNL     1      -6.490  -1.127   8.705  0.00  0.00    +0.211 HD
ENDBRANCH  19  29
ENDBRANCH  18  19
ENDBRANCH   4  18
TORSDOF 7
