REMARK  Name = ZINC25061568
REMARK  6 active torsions:
REMARK  status: ('A' for Active; 'I' for Inactive)
REMARK    1  A    between atoms: C_4  and  N_15
REMARK    2  A    between atoms: C_6  and  S_7
REMARK    3  A    between atoms: S_7  and  N_10
REMARK    4  A    between atoms: C_16  and  C_18
REMARK    5  A    between atoms: C_18  and  N_19
REMARK    6  A    between atoms: C_27  and  C_29
REMARK                            x       y       z     vdW  Elec       q    Type
REMARK                         _______ _______ _______ _____ _____    ______ ____
ROOT
ATOM      1  N   UNL     1       0.564  -0.396  -1.438  0.00  0.00    -0.286 N 
ATOM      2  C   UNL     1      -0.009   0.153  -0.348  0.00  0.00    +0.201 C 
ATOM      3  O   UNL     1      -0.488  -0.558   0.509  0.00  0.00    -0.278 OA
ATOM      4  H   UNL     1       0.933   0.248  -2.249  0.00  0.00    +0.155 HD
ENDROOT
BRANCH   1   8
ATOM      5  C   UNL     1       0.935  -4.537  -1.731  0.00  0.00    +0.030 A 
ATOM      6  C   UNL     1       1.915  -3.717  -2.261  0.00  0.00    +0.024 A 
ATOM      7  C   UNL     1       1.793  -2.344  -2.171  0.00  0.00    +0.062 A 
ATOM      8  C   UNL     1       0.689  -1.787  -1.536  0.00  0.00    +0.054 A 
ATOM      9  C   UNL     1      -0.292  -2.613  -1.005  0.00  0.00    +0.053 A 
ATOM     10  C   UNL     1      -0.166  -3.985  -1.104  0.00  0.00    +0.107 A 
ATOM     11 CL   UNL     1       3.020  -1.316  -2.842  0.00  0.00    -0.082 Cl
BRANCH  10  12
ATOM     12  S   UNL     1      -1.412  -5.034  -0.431  0.00  0.00    +0.061 S 
ATOM     13  O   UNL     1      -0.792  -6.286  -0.172  0.00  0.00    -0.153 OA
ATOM     14  O   UNL     1      -2.069  -4.285   0.583  0.00  0.00    -0.153 OA
BRANCH  12  15
ATOM     15  N   UNL     1      -2.529  -5.296  -1.625  0.00  0.00    -0.177 NA
ATOM     16  C   UNL     1      -3.723  -4.476  -1.877  0.00  0.00    +0.109 C 
ATOM     17  C   UNL     1      -4.473  -5.112  -3.066  0.00  0.00    +0.018 C 
ATOM     18  C   UNL     1      -3.968  -6.579  -3.049  0.00  0.00    +0.018 C 
ATOM     19  C   UNL     1      -2.494  -6.395  -2.607  0.00  0.00    +0.109 C 
ENDBRANCH  12  15
ENDBRANCH  10  12
ENDBRANCH   1   8
BRANCH   2  20
ATOM     20  C   UNL     1      -0.055   1.652  -0.196  0.00  0.00    +0.020 C 
BRANCH  20  21
ATOM     21  N   UNL     1      -0.725   1.996   1.065  0.00  0.00    +0.390 N 
ATOM     22  C   UNL     1      -2.134   1.575   1.044  0.00  0.00    -0.072 C 
ATOM     23  C   UNL     1      -2.671   1.572   2.485  0.00  0.00    +0.024 C 
ATOM     24  C   UNL     1      -2.251   2.853   3.130  0.00  0.00    -0.010 A 
ATOM     25  C   UNL     1      -1.315   3.728   2.667  0.00  0.00    -0.051 A 
ATOM     26  C   UNL     1      -1.090   4.864   3.440  0.00  0.00    +0.010 A 
ATOM     27  C   UNL     1      -1.786   5.052   4.586  0.00  0.00    +0.045 A 
ATOM     28  S   UNL     1      -2.821   3.596   4.632  0.00  0.00    -0.101 S 
ATOM     29  C   UNL     1      -0.581   3.426   1.364  0.00  0.00    -0.033 C 
ATOM     30  H   UNL     1      -0.233   1.444   1.879  0.00  0.00    -0.080 HD
BRANCH  29  31
ATOM     31  C   UNL     1       0.901   3.773   1.513  0.00  0.00    -0.020 C 
ATOM     32  C   UNL     1       1.398   4.171   2.904  0.00  0.00    +0.002 C 
ATOM     33  C   UNL     1       1.260   5.231   1.808  0.00  0.00    +0.002 C 
ENDBRANCH  29  31
ENDBRANCH  20  21
ENDBRANCH   2  20
TORSDOF 6
