REMARK  Name = ZINC24718050
REMARK  8 active torsions:
REMARK  status: ('A' for Active; 'I' for Inactive)
REMARK    1  A    between atoms: C_1  and  C_2
REMARK    2  A    between atoms: C_4  and  C_31
REMARK    3  A    between atoms: C_6  and  N_13
REMARK    4  A    between atoms: C_14  and  C_16
REMARK    5  A    between atoms: C_16  and  N_17
REMARK    6  A    between atoms: N_17  and  C_18
REMARK    7  A    between atoms: C_18  and  C_19
REMARK    8  A    between atoms: C_18  and  C_25
REMARK                            x       y       z     vdW  Elec       q    Type
REMARK                         _______ _______ _______ _____ _____    ______ ____
ROOT
ATOM      1  N   UNL     1      -1.635   6.549  -4.436  0.00  0.00    -0.257 N 
ATOM      2  C   UNL     1      -1.821   6.399  -3.110  0.00  0.00    +0.202 C 
ATOM      3  O   UNL     1      -2.897   6.662  -2.615  0.00  0.00    -0.277 OA
ATOM      4  H   UNL     1      -0.659   6.311  -4.885  0.00  0.00    +0.158 HD
ENDROOT
BRANCH   1  10
ATOM      5  C   UNL     1      -5.546   8.486  -8.848  0.00  0.00    +0.068 C 
ATOM      6  C   UNL     1      -4.199   7.987  -8.395  0.00  0.00    +0.070 A 
ATOM      7  C   UNL     1      -3.963   7.688  -6.979  0.00  0.00    +0.053 A 
ATOM      8  C   UNL     1      -4.678   7.734  -5.836  0.00  0.00    +0.114 A 
ATOM      9  O   UNL     1      -3.905   7.323  -4.814  0.00  0.00    -0.445 OA
ATOM     10  C   UNL     1      -2.671   7.004  -5.233  0.00  0.00    +0.206 A 
ATOM     11  C   UNL     1      -2.616   7.201  -6.592  0.00  0.00    +0.110 A 
ATOM     12  C   UNL     1      -1.621   7.054  -7.650  0.00  0.00    +0.277 A 
ATOM     13  O   UNL     1      -0.498   6.657  -7.395  0.00  0.00    -0.266 OA
ATOM     14  N   UNL     1      -1.970   7.365  -8.915  0.00  0.00    -0.242 N 
ATOM     15  H   UNL     1      -1.238   7.262  -9.729  0.00  0.00    +0.192 HD
ATOM     16  N   UNL     1      -3.242   7.821  -9.255  0.00  0.00    -0.175 NA
ATOM     17  C   UNL     1      -6.116   8.172  -5.723  0.00  0.00    +0.087 C 
ENDBRANCH   1  10
BRANCH   2  18
ATOM     18  C   UNL     1      -0.693   5.904  -2.241  0.00  0.00    +0.017 C 
BRANCH  18  19
ATOM     19  N   UNL     1      -1.147   5.827  -0.846  0.00  0.00    +0.392 N 
ATOM     20  H   UNL     1      -1.459   6.825  -0.507  0.00  0.00    -0.084 HD
ATOM     21  H   UNL     1      -1.996   5.132  -0.774  0.00  0.00    -0.084 HD
BRANCH  19  22
ATOM     22  C   UNL     1      -0.070   5.347   0.031  0.00  0.00    -0.009 C 
BRANCH  22  23
ATOM     23  C   UNL     1      -0.050   3.840   0.023  0.00  0.00    -0.057 A 
ATOM     24  C   UNL     1       1.156   3.165   0.008  0.00  0.00    +0.002 A 
ATOM     25  C   UNL     1       1.175   1.783   0.000  0.00  0.00    +0.000 A 
ATOM     26  C   UNL     1      -0.013   1.076   0.008  0.00  0.00    +0.000 A 
ATOM     27  C   UNL     1      -1.219   1.751   0.017  0.00  0.00    +0.000 A 
ATOM     28  C   UNL     1      -1.238   3.133   0.030  0.00  0.00    +0.002 A 
ENDBRANCH  22  23
BRANCH  22  29
ATOM     29  C   UNL     1      -0.311   5.838   1.435  0.00  0.00    -0.057 A 
ATOM     30  C   UNL     1      -1.593   5.858   1.951  0.00  0.00    +0.002 A 
ATOM     31  C   UNL     1      -1.813   6.304   3.241  0.00  0.00    +0.000 A 
ATOM     32  C   UNL     1      -0.751   6.740   4.011  0.00  0.00    +0.000 A 
ATOM     33  C   UNL     1       0.530   6.726   3.494  0.00  0.00    +0.000 A 
ATOM     34  C   UNL     1       0.751   6.275   2.206  0.00  0.00    +0.002 A 
ENDBRANCH  22  29
ENDBRANCH  19  22
ENDBRANCH  18  19
ENDBRANCH   2  18
TORSDOF 6
