REMARK  Name = ZINC48412299
REMARK  3 active torsions:
REMARK  status: ('A' for Active; 'I' for Inactive)
REMARK    1  A    between atoms: C_1  and  C_2
REMARK    2  A    between atoms: C_12  and  C_13
REMARK    3  A    between atoms: N_15  and  C_16
REMARK                            x       y       z     vdW  Elec       q    Type
REMARK                         _______ _______ _______ _____ _____    ______ ____
ROOT
ATOM      1  C   UNL     1      -0.018   1.503   0.010  0.00  0.00    +0.046 C 
ATOM      2  C   UNL     1       0.002  -0.004   0.002  0.00  0.00    -0.017 A 
ATOM      3  C   UNL     1       0.006  -0.728  -1.197  0.00  0.00    +0.069 A 
ATOM      4  C   UNL     1      -0.009  -0.212  -2.588  0.00  0.00    +0.252 C 
ATOM      5  O   UNL     1      -0.025   0.987  -2.799  0.00  0.00    -0.270 OA
ATOM      6  N   UNL     1      -0.002  -1.083  -3.612  0.00  0.00    -0.267 N 
ATOM      7  H   UNL     1      -0.011  -0.744  -4.521  0.00  0.00    +0.156 HD
ATOM      8  C   UNL     1       0.017  -2.421  -3.406  0.00  0.00    +0.142 C 
ATOM      9  N   UNL     1       0.030  -2.938  -2.161  0.00  0.00    -0.294 N 
ATOM     10  C   UNL     1       0.025  -2.124  -1.065  0.00  0.00    +0.084 A 
ATOM     11  S   UNL     1       0.037  -2.406   0.582  0.00  0.00    -0.068 S 
ATOM     12  C   UNL     1       0.023  -0.722   1.163  0.00  0.00    +0.079 A 
ATOM     13  C   UNL     1       0.023  -3.323  -4.557  0.00  0.00    +0.210 C 
ATOM     14  N   UNL     1       0.041  -4.664  -4.516  0.00  0.00    -0.213 NA
ATOM     15  H   UNL     1       0.015  -4.060  -7.531  0.00  0.00    +0.190 HD
ATOM     16  C   UNL     1       0.040  -5.092  -5.762  0.00  0.00    +0.216 C 
ATOM     17  N   UNL     1       0.021  -4.034  -6.561  0.00  0.00    -0.265 N 
ATOM     18  N   UNL     1       0.005  -2.966  -5.841  0.00  0.00    -0.150 NA
ATOM     19  H   UNL     1       0.043  -3.901  -2.042  0.00  0.00    +0.154 HD
ENDROOT
BRANCH  12  20
ATOM     20  C   UNL     1       0.031  -0.230   2.543  0.00  0.00    +0.251 C 
ATOM     21  O   UNL     1       0.018   0.968   2.762  0.00  0.00    -0.270 OA
ATOM     22  N   UNL     1       0.053  -1.103   3.570  0.00  0.00    -0.314 N 
ATOM     23  C   UNL     1       0.060  -0.611   4.950  0.00  0.00    +0.128 C 
ATOM     24  H   UNL     1       0.064  -2.057   3.395  0.00  0.00    +0.149 HD
ENDBRANCH  12  20
TORSDOF 1
