REMARK  Name = ZINC38806018
REMARK  7 active torsions:
REMARK  status: ('A' for Active; 'I' for Inactive)
REMARK    1  A    between atoms: C_1  and  C_2
REMARK    2  A    between atoms: C_2  and  O_3
REMARK    3  A    between atoms: O_3  and  C_4
REMARK    4  A    between atoms: C_12  and  N_23
REMARK    5  A    between atoms: C_13  and  C_14
REMARK    6  A    between atoms: C_24  and  C_26
REMARK    7  A    between atoms: C_27  and  C_35
REMARK                            x       y       z     vdW  Elec       q    Type
REMARK                         _______ _______ _______ _____ _____    ______ ____
ROOT
ATOM      1  C   UNL     1       0.795  -1.814   1.312  0.00  0.00    +0.403 C 
ATOM      2  O   UNL     1       0.316  -2.556   0.477  0.00  0.00    -0.226 OA
ATOM      3  N   UNL     1       1.438  -2.328   2.380  0.00  0.00    -0.262 N 
ATOM      4  C   UNL     1       1.580  -3.780   2.561  0.00  0.00    +0.116 C 
ATOM      5  C   UNL     1       3.059  -4.162   2.493  0.00  0.00    +0.056 C 
ATOM      6  C   UNL     1       3.862  -3.227   3.391  0.00  0.00    -0.023 A 
ATOM      7  C   UNL     1       3.362  -2.029   3.773  0.00  0.00    +0.013 A 
ATOM      8  S   UNL     1       4.626  -1.307   4.782  0.00  0.00    -0.076 S 
ATOM      9  C   UNL     1       5.827  -2.623   4.692  0.00  0.00    +0.082 A 
ATOM     10  C   UNL     1       5.189  -3.551   3.885  0.00  0.00    +0.039 A 
ATOM     11  C   UNL     1       2.030  -1.454   3.412  0.00  0.00    +0.153 C 
ENDROOT
BRANCH  10  12
ATOM     12  C   UNL     1       5.836  -4.827   3.539  0.00  0.00    +0.112 A 
ATOM     13  N   UNL     1       5.379  -5.809   2.788  0.00  0.00    -0.239 NA
ATOM     14  C   UNL     1       6.089  -6.932   2.555  0.00  0.00    +0.079 A 
ATOM     15  C   UNL     1       5.718  -8.052   1.774  0.00  0.00    +0.029 A 
ATOM     16  C   UNL     1       6.564  -9.122   1.639  0.00  0.00    +0.002 A 
ATOM     17  C   UNL     1       7.807  -9.146   2.257  0.00  0.00    +0.001 A 
ATOM     18  C   UNL     1       8.202  -8.068   3.027  0.00  0.00    +0.017 A 
ATOM     19  C   UNL     1       7.362  -6.992   3.169  0.00  0.00    +0.040 A 
ATOM     20  S   UNL     1       7.444  -5.437   4.025  0.00  0.00    -0.067 S 
ENDBRANCH  10  12
BRANCH   9  21
ATOM     21  N   UNL     1       7.083  -2.698   5.281  0.00  0.00    -0.274 N 
ATOM     22  C   UNL     1       7.534  -1.680   6.041  0.00  0.00    +0.267 C 
ATOM     23  O   UNL     1       6.880  -0.656   6.136  0.00  0.00    -0.268 OA
ATOM     24  H   UNL     1       7.637  -3.483   5.145  0.00  0.00    +0.156 HD
BRANCH  22  25
ATOM     25  C   UNL     1       8.767  -1.801   6.729  0.00  0.00    +0.131 A 
ATOM     26  C   UNL     1       9.989  -1.276   6.340  0.00  0.00    +0.069 A 
ATOM     27  N   UNL     1      10.890  -1.608   7.250  0.00  0.00    -0.232 NA
ATOM     28  C   UNL     1      10.315  -2.325   8.214  0.00  0.00    +0.138 A 
ATOM     29  N   UNL     1       8.987  -2.461   7.924  0.00  0.00    -0.295 N 
ATOM     30  C   UNL     1       8.162  -3.151   8.756  0.00  0.00    +0.093 A 
ATOM     31  C   UNL     1       8.640  -3.713   9.890  0.00  0.00    +0.018 A 
ATOM     32  C   UNL     1       9.997  -3.590  10.218  0.00  0.00    +0.005 A 
ATOM     33  C   UNL     1      10.833  -2.907   9.386  0.00  0.00    +0.047 A 
ATOM     34  C   UNL     1      10.247  -0.466   5.096  0.00  0.00    +0.068 C 
ENDBRANCH  22  25
ENDBRANCH   9  21
BRANCH   1  35
ATOM     35  O   UNL     1       0.685  -0.480   1.171  0.00  0.00    -0.451 OA
BRANCH  35  37
ATOM     36  C   UNL     1      -0.032   1.524   0.026  0.00  0.00    +0.048 C 
ATOM     37  C   UNL     1      -0.009  -0.005   0.015  0.00  0.00    +0.230 C 
ENDBRANCH  35  37
ENDBRANCH   1  35
TORSDOF 5
