REMARK  Name = ZINC44740509
REMARK  6 active torsions:
REMARK  status: ('A' for Active; 'I' for Inactive)
REMARK    1  A    between atoms: C_1  and  C_2
REMARK    2  A    between atoms: C_9  and  C_11
REMARK    3  A    between atoms: C_11  and  N_12
REMARK    4  A    between atoms: N_15  and  C_18
REMARK    5  A    between atoms: C_18  and  C_20
REMARK    6  A    between atoms: C_18  and  C_21
REMARK                            x       y       z     vdW  Elec       q    Type
REMARK                         _______ _______ _______ _____ _____    ______ ____
ROOT
ATOM      1  N   UNL     1       3.582   0.159   4.396  0.00  0.00    +0.387 N 
ATOM      2  C   UNL     1       4.109   1.194   3.498  0.00  0.00    -0.063 C 
ATOM      3  C   UNL     1       4.109   2.544   4.219  0.00  0.00    +0.066 C 
ATOM      4  N   UNL     1       4.939   2.450   5.428  0.00  0.00    -0.295 NA
ATOM      5  C   UNL     1       4.437   1.401   6.326  0.00  0.00    +0.066 C 
ATOM      6  C   UNL     1       4.435   0.060   5.587  0.00  0.00    -0.063 C 
ATOM      7  H   UNL     1       2.643   0.402   4.674  0.00  0.00    -0.081 HD
ENDROOT
BRANCH   4   8
ATOM      8  C   UNL     1       5.010   3.745   6.119  0.00  0.00    +0.140 C 
ATOM      9  C   UNL     1       3.601   4.324   6.263  0.00  0.00    +0.034 C 
BRANCH   8  10
ATOM     10  C   UNL     1       5.864   4.695   5.320  0.00  0.00    +0.237 C 
ATOM     11  O   UNL     1       6.161   4.427   4.175  0.00  0.00    -0.274 OA
ATOM     12  N   UNL     1       6.297   5.843   5.877  0.00  0.00    -0.239 N 
ATOM     13  C   UNL     1       7.061   6.693   5.162  0.00  0.00    +0.303 C 
ATOM     14  O   UNL     1       7.359   6.424   4.015  0.00  0.00    -0.253 OA
ATOM     15  N   UNL     1       7.494   7.841   5.719  0.00  0.00    -0.313 N 
ATOM     16  H   UNL     1       6.059   6.058   6.793  0.00  0.00    +0.159 HD
ATOM     17  H   UNL     1       7.256   8.056   6.635  0.00  0.00    +0.146 HD
ATOM     18  H   UNL     1       8.044   8.453   5.205  0.00  0.00    +0.146 HD
ENDBRANCH   8  10
ENDBRANCH   4   8
BRANCH   1  19
ATOM     19  C   UNL     1       3.565  -1.133   3.697  0.00  0.00    +0.019 C 
BRANCH  19  27
ATOM     20  C   UNL     1       1.133  -0.615   0.337  0.00  0.00    +0.028 C 
ATOM     21  C   UNL     1       1.563  -2.066   0.562  0.00  0.00    +0.073 C 
ATOM     22  C   UNL     1       2.363  -2.558  -0.649  0.00  0.00    +0.022 C 
ATOM     23  C   UNL     1       2.908  -3.958  -0.360  0.00  0.00    +0.003 C 
ATOM     24  C   UNL     1       3.846  -3.903   0.848  0.00  0.00    +0.019 C 
ATOM     25  C   UNL     1       3.064  -3.427   2.075  0.00  0.00    +0.108 C 
ATOM     26  N   UNL     1       2.413  -2.148   1.758  0.00  0.00    -0.300 N 
ATOM     27  C   UNL     1       2.595  -1.070   2.546  0.00  0.00    +0.199 C 
ATOM     28  O   UNL     1       1.978  -0.049   2.329  0.00  0.00    -0.278 OA
ENDBRANCH  19  27
ENDBRANCH   1  19
TORSDOF 4
