REMARK  Name = ZINC20811596
REMARK  7 active torsions:
REMARK  status: ('A' for Active; 'I' for Inactive)
REMARK    1  A    between atoms: C_4  and  C_7
REMARK    2  A    between atoms: C_7  and  N_8
REMARK    3  A    between atoms: C_12  and  C_14
REMARK    4  A    between atoms: C_14  and  N_15
REMARK    5  A    between atoms: N_18  and  C_21
REMARK    6  A    between atoms: C_21  and  C_22
REMARK    7  A    between atoms: N_24  and  C_25
REMARK                            x       y       z     vdW  Elec       q    Type
REMARK                         _______ _______ _______ _____ _____    ______ ____
ROOT
ATOM      1  N   UNL     1       3.450  -1.950  -1.642  0.00  0.00    -0.298 NA
ATOM      2  C   UNL     1       2.975  -2.313  -0.300  0.00  0.00    +0.066 C 
ATOM      3  C   UNL     1       1.511  -1.893  -0.149  0.00  0.00    -0.063 C 
ATOM      4  N   UNL     1       1.394  -0.446  -0.371  0.00  0.00    +0.387 N 
ATOM      5  C   UNL     1       1.869  -0.082  -1.714  0.00  0.00    -0.063 C 
ATOM      6  C   UNL     1       3.333  -0.502  -1.865  0.00  0.00    +0.066 C 
ATOM      7  H   UNL     1       2.033   0.064   0.365  0.00  0.00    -0.081 HD
ENDROOT
BRANCH   1   8
ATOM      8  C   UNL     1       4.830  -2.405  -1.853  0.00  0.00    +0.180 C 
BRANCH   8  13
ATOM      9  N   UNL     1       7.981  -2.798  -5.463  0.00  0.00    -0.295 N 
ATOM     10  C   UNL     1       6.754  -2.443  -5.034  0.00  0.00    +0.306 C 
ATOM     11  O   UNL     1       5.943  -1.989  -5.817  0.00  0.00    -0.252 OA
ATOM     12  N   UNL     1       6.425  -2.592  -3.735  0.00  0.00    -0.239 N 
ATOM     13  C   UNL     1       5.198  -2.238  -3.305  0.00  0.00    +0.234 C 
ATOM     14  O   UNL     1       4.390  -1.785  -4.087  0.00  0.00    -0.274 OA
ATOM     15  H   UNL     1       8.714  -3.209  -4.754  0.00  0.00    +0.151 HD
ATOM     16  H   UNL     1       7.159  -3.004  -3.026  0.00  0.00    +0.159 HD
BRANCH   9  17
ATOM     17  C   UNL     1       8.338  -2.635  -6.875  0.00  0.00    +0.141 C 
BRANCH  17  21
ATOM     18  C   UNL     1      12.353  -3.959  -7.489  0.00  0.00    +0.000 A 
ATOM     19  C   UNL     1      11.304  -4.850  -7.618  0.00  0.00    +0.000 A 
ATOM     20  C   UNL     1      10.005  -4.422  -7.419  0.00  0.00    +0.005 A 
ATOM     21  C   UNL     1       9.755  -3.102  -7.091  0.00  0.00    -0.030 A 
ATOM     22  C   UNL     1      10.803  -2.210  -6.968  0.00  0.00    +0.005 A 
ATOM     23  C   UNL     1      12.103  -2.639  -7.162  0.00  0.00    +0.000 A 
ENDBRANCH  17  21
ENDBRANCH   9  17
ENDBRANCH   8  13
ENDBRANCH   1   8
BRANCH   4  24
ATOM     24  C   UNL     1       0.013   0.009  -0.160  0.00  0.00    +0.019 C 
BRANCH  24  25
ATOM     25  C   UNL     1      -0.024   1.516  -0.154  0.00  0.00    +0.201 C 
ATOM     26  O   UNL     1       0.999   2.148  -0.310  0.00  0.00    -0.278 OA
ATOM     27  N   UNL     1      -1.195   2.161   0.019  0.00  0.00    -0.287 N 
ATOM     28  H   UNL     1      -2.134   1.591   0.072  0.00  0.00    +0.155 HD
BRANCH  27  29
ATOM     29  C   UNL     1      -1.215   3.556   0.133  0.00  0.00    +0.033 A 
ATOM     30  C   UNL     1      -0.159   4.220   0.743  0.00  0.00    +0.026 A 
ATOM     31  C   UNL     1      -0.179   5.597   0.848  0.00  0.00    +0.040 A 
ATOM     32  C   UNL     1      -1.256   6.315   0.357  0.00  0.00    +0.124 A 
ATOM     33  C   UNL     1      -2.313   5.654  -0.246  0.00  0.00    +0.040 A 
ATOM     34  C   UNL     1      -2.295   4.278  -0.359  0.00  0.00    +0.026 A 
ATOM     35  F   UNL     1      -1.276   7.661   0.466  0.00  0.00    -0.205 F 
ENDBRANCH  27  29
ENDBRANCH  24  25
ENDBRANCH   4  24
TORSDOF 7
