REMARK  Name = ZINC35495347
REMARK  14 active torsions:
REMARK  status: ('A' for Active; 'I' for Inactive)
REMARK    1  A    between atoms: C_1  and  C_2
REMARK    2  A    between atoms: C_3  and  C_28
REMARK    3  A    between atoms: C_4  and  C_13
REMARK    4  A    between atoms: C_17  and  N_19
REMARK    5  A    between atoms: C_20  and  C_22
REMARK    6  A    between atoms: C_22  and  C_23
REMARK    7  A    between atoms: C_23  and  C_24
REMARK    8  A    between atoms: C_24  and  C_25
REMARK    9  A    between atoms: C_25  and  C_26
REMARK   10  A    between atoms: C_26  and  N_27
REMARK   11  A    between atoms: C_28  and  O_30
REMARK   12  A    between atoms: O_30  and  C_31
REMARK   13  A    between atoms: C_31  and  C_32
REMARK   14  A    between atoms: C_31  and  C_33
REMARK                            x       y       z     vdW  Elec       q    Type
REMARK                         _______ _______ _______ _____ _____    ______ ____
ROOT
ATOM      1  C   UNL     1      -1.286  -2.639  -1.520  0.00  0.00    -0.021 A 
ATOM      2  C   UNL     1      -0.190  -2.626  -2.364  0.00  0.00    +0.006 A 
ATOM      3  C   UNL     1      -0.324  -3.024  -3.682  0.00  0.00    +0.002 A 
ATOM      4  C   UNL     1      -1.553  -3.436  -4.159  0.00  0.00    +0.023 A 
ATOM      5  C   UNL     1      -2.655  -3.450  -3.314  0.00  0.00    +0.034 A 
ATOM      6  C   UNL     1      -2.516  -3.054  -1.990  0.00  0.00    +0.029 A 
ENDROOT
BRANCH   1  10
ATOM      7  C   UNL     1       0.021   1.488  -0.010  0.00  0.00    +0.066 C 
ATOM      8  C   UNL     1       0.031  -0.019  -0.013  0.00  0.00    +0.053 C 
ATOM      9  C   UNL     1      -1.150  -0.698  -0.008  0.00  0.00    +0.082 C 
ATOM     10  C   UNL     1      -1.135  -2.205  -0.085  0.00  0.00    +0.145 C 
ATOM     11  N   UNL     1       0.147  -2.696   0.451  0.00  0.00    -0.298 N 
ATOM     12  C   UNL     1       0.134  -3.924   1.237  0.00  0.00    +0.109 C 
ATOM     13  C   UNL     1       1.317  -4.834   0.940  0.00  0.00    +0.030 C 
ATOM     14  C   UNL     1       2.613  -4.141   1.384  0.00  0.00    +0.079 C 
ATOM     15  S   UNL     1       2.872  -2.715   0.285  0.00  0.00    -0.090 S 
ATOM     16  C   UNL     1       1.275  -1.967   0.221  0.00  0.00    +0.157 C 
ATOM     17  N   UNL     1       1.192  -0.665  -0.027  0.00  0.00    -0.230 NA
BRANCH   9  18
ATOM     18  C   UNL     1      -2.368  -0.003   0.068  0.00  0.00    +0.339 C 
ATOM     19  O   UNL     1      -2.373   1.213   0.130  0.00  0.00    -0.245 OA
BRANCH  18  20
ATOM     20  O   UNL     1      -3.535  -0.684   0.072  0.00  0.00    -0.459 OA
BRANCH  20  21
ATOM     21  C   UNL     1      -4.736   0.087   0.152  0.00  0.00    +0.171 C 
ATOM     22  C   UNL     1      -5.212   0.435  -1.260  0.00  0.00    +0.052 C 
ATOM     23  C   UNL     1      -5.816  -0.725   0.869  0.00  0.00    +0.052 C 
ENDBRANCH  20  21
ENDBRANCH  18  20
ENDBRANCH   9  18
ENDBRANCH   1  10
BRANCH   5  24
ATOM     24  N   UNL     1      -3.901  -3.866  -3.795  0.00  0.00    -0.285 N 
ATOM     25  C   UNL     1      -4.261  -3.588  -5.063  0.00  0.00    +0.217 C 
ATOM     26  O   UNL     1      -3.473  -3.052  -5.814  0.00  0.00    -0.275 OA
ATOM     27  H   UNL     1      -4.506  -4.354  -3.215  0.00  0.00    +0.155 HD
BRANCH  25  28
ATOM     28  C   UNL     1      -5.643  -3.944  -5.550  0.00  0.00    +0.096 C 
BRANCH  28  29
ATOM     29  C   UNL     1      -5.792  -3.525  -7.013  0.00  0.00    +0.009 C 
BRANCH  29  30
ATOM     30  C   UNL     1      -7.194  -3.885  -7.507  0.00  0.00    -0.001 C 
BRANCH  30  31
ATOM     31  C   UNL     1      -7.343  -3.466  -8.971  0.00  0.00    -0.020 C 
BRANCH  31  32
ATOM     32  C   UNL     1      -8.746  -3.827  -9.464  0.00  0.00    -0.086 C 
BRANCH  32  33
ATOM     33  N   UNL     1      -8.889  -3.425 -10.870  0.00  0.00    +0.378 N 
ATOM     34  H   UNL     1      -8.750  -2.428 -10.950  0.00  0.00    -0.090 HD
ATOM     35  H   UNL     1      -8.201  -3.906 -11.430  0.00  0.00    -0.090 HD
ATOM     36  H   UNL     1      -9.814  -3.663 -11.195  0.00  0.00    -0.090 HD
ENDBRANCH  32  33
ENDBRANCH  31  32
ENDBRANCH  30  31
ENDBRANCH  29  30
ENDBRANCH  28  29
ENDBRANCH  25  28
ENDBRANCH   5  24
TORSDOF 11
