REMARK  Name = ZINC06244533
REMARK  11 active torsions:
REMARK  status: ('A' for Active; 'I' for Inactive)
REMARK    1  A    between atoms: C_1  and  C_2
REMARK    2  A    between atoms: C_5  and  C_8
REMARK    3  A    between atoms: C_9  and  C_31
REMARK    4  A    between atoms: C_11  and  S_14
REMARK    5  A    between atoms: S_14  and  C_15
REMARK    6  A    between atoms: C_15  and  C_17
REMARK    7  A    between atoms: C_15  and  C_18
REMARK    8  A    between atoms: N_20  and  C_21
REMARK    9  A    between atoms: C_24  and  S_27
REMARK   10  A    between atoms: S_27  and  N_30
REMARK   11  A    between atoms: C_34  and  C_37
REMARK                            x       y       z     vdW  Elec       q    Type
REMARK                         _______ _______ _______ _____ _____    ______ ____
ROOT
ATOM      1  C   UNL     1      -1.333   6.174  -1.636  0.00  0.00    +0.075 A 
ATOM      2  C   UNL     1      -0.485   5.987  -0.562  0.00  0.00    +0.098 A 
ATOM      3  N   UNL     1      -0.323   4.659  -0.395  0.00  0.00    -0.221 NA
ATOM      4  C   UNL     1      -1.014   4.014  -1.304  0.00  0.00    +0.168 A 
ATOM      5  N   UNL     1      -1.661   4.913  -2.097  0.00  0.00    -0.332 N 
ATOM      6  H   UNL     1      -2.261   4.700  -2.869  0.00  0.00    +0.168 HD
ENDROOT
BRANCH   1  11
ATOM      7  C   UNL     1      -3.142  11.202  -3.765  0.00  0.00    +0.044 C 
ATOM      8  C   UNL     1      -2.667   9.885  -3.207  0.00  0.00    -0.050 A 
ATOM      9  C   UNL     1      -2.188   8.908  -4.062  0.00  0.00    +0.004 A 
ATOM     10  C   UNL     1      -1.752   7.700  -3.558  0.00  0.00    +0.010 A 
ATOM     11  C   UNL     1      -1.796   7.464  -2.182  0.00  0.00    +0.000 A 
ATOM     12  C   UNL     1      -2.287   8.453  -1.326  0.00  0.00    +0.010 A 
ATOM     13  C   UNL     1      -2.714   9.659  -1.843  0.00  0.00    +0.004 A 
ENDBRANCH   1  11
BRANCH   2  14
ATOM     14  C   UNL     1       0.132   7.053   0.261  0.00  0.00    +0.002 A 
ATOM     15  C   UNL     1       0.638   8.202  -0.346  0.00  0.00    +0.010 A 
ATOM     16  C   UNL     1       1.206   9.194   0.426  0.00  0.00    +0.004 A 
ATOM     17  C   UNL     1       1.284   9.046   1.800  0.00  0.00    -0.050 A 
ATOM     18  C   UNL     1       0.790   7.905   2.407  0.00  0.00    +0.004 A 
ATOM     19  C   UNL     1       0.214   6.909   1.646  0.00  0.00    +0.010 A 
ATOM     20  C   UNL     1       1.911  10.130   2.637  0.00  0.00    +0.044 C 
ENDBRANCH   2  14
BRANCH   4  21
ATOM     21  S   UNL     1      -1.098   2.262  -1.470  0.00  0.00    -0.075 S 
BRANCH  21  22
ATOM     22  C   UNL     1      -0.014   1.766  -0.107  0.00  0.00    +0.137 C 
ATOM     23  C   UNL     1       1.413   2.239  -0.392  0.00  0.00    +0.029 C 
BRANCH  22  24
ATOM     24  C   UNL     1      -0.028   0.264   0.025  0.00  0.00    +0.230 C 
ATOM     25  O   UNL     1      -0.300  -0.426  -0.935  0.00  0.00    -0.274 OA
ATOM     26  N   UNL     1       0.261  -0.311   1.209  0.00  0.00    -0.285 N 
ATOM     27  H   UNL     1       0.545   0.237   1.957  0.00  0.00    +0.155 HD
BRANCH  26  28
ATOM     28  C   UNL     1       0.152  -1.698   1.358  0.00  0.00    +0.034 A 
ATOM     29  C   UNL     1      -0.270  -2.236   2.567  0.00  0.00    +0.025 A 
ATOM     30  C   UNL     1      -0.383  -3.606   2.708  0.00  0.00    +0.030 A 
ATOM     31  C   UNL     1      -0.064  -4.440   1.653  0.00  0.00    +0.105 A 
ATOM     32  C   UNL     1       0.362  -3.907   0.450  0.00  0.00    +0.030 A 
ATOM     33  C   UNL     1       0.471  -2.539   0.300  0.00  0.00    +0.025 A 
BRANCH  31  34
ATOM     34  S   UNL     1      -0.202  -6.187   1.841  0.00  0.00    +0.056 S 
ATOM     35  O   UNL     1      -1.143  -6.410   2.882  0.00  0.00    -0.153 OA
ATOM     36  O   UNL     1      -0.369  -6.724   0.536  0.00  0.00    -0.153 OA
BRANCH  34  37
ATOM     37  N   UNL     1       1.258  -6.737   2.396  0.00  0.00    -0.204 NA
ATOM     38  H   UNL     1       1.984  -6.112   2.551  0.00  0.00    +0.144 HD
ATOM     39  H   UNL     1       1.388  -7.683   2.565  0.00  0.00    +0.144 HD
ENDBRANCH  34  37
ENDBRANCH  31  34
ENDBRANCH  26  28
ENDBRANCH  22  24
ENDBRANCH  21  22
ENDBRANCH   4  21
TORSDOF 8
