REMARK  Name = ZINC34757844
REMARK  5 active torsions:
REMARK  status: ('A' for Active; 'I' for Inactive)
REMARK    1  A    between atoms: C_6  and  C_8
REMARK    2  A    between atoms: C_8  and  N_9
REMARK    3  A    between atoms: C_22  and  S_24
REMARK    4  A    between atoms: S_24  and  C_25
REMARK    5  A    between atoms: C_25  and  C_26
REMARK                            x       y       z     vdW  Elec       q    Type
REMARK                         _______ _______ _______ _____ _____    ______ ____
ROOT
ATOM      1  N   UNL     1       2.892  -4.160   0.912  0.00  0.00    +0.387 N 
ATOM      2  C   UNL     1       3.795  -5.317   0.950  0.00  0.00    -0.059 C 
ATOM      3  C   UNL     1       3.009  -6.588   0.613  0.00  0.00    +0.088 C 
ATOM      4  N   UNL     1       1.862  -6.683   1.529  0.00  0.00    -0.318 N 
ATOM      5  C   UNL     1       0.993  -5.505   1.677  0.00  0.00    +0.088 C 
ATOM      6  C   UNL     1       1.875  -4.285   1.964  0.00  0.00    -0.059 C 
ATOM      7  C   UNL     1       1.607  -7.847   2.231  0.00  0.00    +0.134 A 
ATOM      8  C   UNL     1       0.840  -8.890   1.642  0.00  0.00    +0.051 A 
ATOM      9  C   UNL     1       0.228  -8.930   0.302  0.00  0.00    -0.025 A 
ATOM     10  C   UNL     1      -0.454 -10.040  -0.021  0.00  0.00    -0.004 A 
ATOM     11  S   UNL     1      -0.330 -11.092   1.408  0.00  0.00    -0.073 S 
ATOM     12  C   UNL     1       0.641 -10.029   2.442  0.00  0.00    +0.115 A 
ATOM     13  N   UNL     1       1.140 -10.113   3.661  0.00  0.00    -0.214 NA
ATOM     14  C   UNL     1       1.848  -9.110   4.162  0.00  0.00    +0.191 A 
ATOM     15  N   UNL     1       2.077  -8.007   3.457  0.00  0.00    -0.206 NA
ATOM     16  C   UNL     1      -1.037  -9.966  -1.406  0.00  0.00    +0.043 C 
ATOM     17  C   UNL     1      -0.991  -8.465  -1.767  0.00  0.00    +0.010 C 
ATOM     18  C   UNL     1       0.174  -7.968  -0.888  0.00  0.00    +0.037 C 
ATOM     19  H   UNL     1       2.440  -4.118   0.011  0.00  0.00    -0.081 HD
ENDROOT
BRANCH   1  20
ATOM     20  C   UNL     1       3.666  -2.929   1.126  0.00  0.00    +0.019 C 
BRANCH  20  26
ATOM     21  C   UNL     1       6.564   0.412   0.535  0.00  0.00    +0.020 C 
ATOM     22  C   UNL     1       6.638   0.178  -0.997  0.00  0.00    +0.020 C 
ATOM     23  C   UNL     1       6.431  -1.354  -1.088  0.00  0.00    +0.108 C 
ATOM     24  N   UNL     1       5.447  -1.665  -0.036  0.00  0.00    -0.303 N 
ATOM     25  C   UNL     1       5.506  -0.614   0.991  0.00  0.00    +0.108 C 
ATOM     26  C   UNL     1       4.628  -2.736  -0.018  0.00  0.00    +0.199 C 
ATOM     27  O   UNL     1       4.665  -3.542  -0.922  0.00  0.00    -0.278 OA
ENDBRANCH  20  26
ENDBRANCH   1  20
BRANCH  14  28
ATOM     28  S   UNL     1       2.503  -9.244   5.792  0.00  0.00    -0.077 S 
BRANCH  28  29
ATOM     29  C   UNL     1       1.956 -10.880   6.351  0.00  0.00    +0.173 C 
BRANCH  29  30
ATOM     30  C   UNL     1       2.456 -11.125   7.752  0.00  0.00    +0.226 C 
ATOM     31  O   UNL     1       3.116 -10.279   8.317  0.00  0.00    -0.275 OA
ATOM     32  N   UNL     1       2.169 -12.284   8.377  0.00  0.00    -0.301 N 
ATOM     33  C   UNL     1       1.388 -13.393   7.809  0.00  0.00    +0.108 C 
ATOM     34  C   UNL     1       1.298 -14.491   8.890  0.00  0.00    +0.020 C 
ATOM     35  C   UNL     1       1.551 -13.706  10.204  0.00  0.00    +0.020 C 
ATOM     36  C   UNL     1       2.592 -12.653   9.740  0.00  0.00    +0.108 C 
ENDBRANCH  29  30
ENDBRANCH  28  29
ENDBRANCH  14  28
TORSDOF 5
