REMARK  Name = ZINC09008686
REMARK  8 active torsions:
REMARK  status: ('A' for Active; 'I' for Inactive)
REMARK    1  A    between atoms: C_2  and  C_30
REMARK    2  A    between atoms: C_4  and  C_27
REMARK    3  A    between atoms: C_6  and  C_24
REMARK    4  A    between atoms: C_7  and  N_8
REMARK    5  A    between atoms: C_7  and  N_10
REMARK    6  A    between atoms: C_14  and  C_21
REMARK    7  A    between atoms: C_15  and  N_16
REMARK    8  A    between atoms: C_15  and  N_18
REMARK                            x       y       z     vdW  Elec       q    Type
REMARK                         _______ _______ _______ _____ _____    ______ ____
ROOT
ATOM      1  C   UNL     1       0.104   1.741   0.173  0.00  0.00    +0.046 C 
ATOM      2  C   UNL     1       1.556   2.000  -0.235  0.00  0.00    +0.128 C 
ATOM      3  C   UNL     1       1.875   1.215  -1.509  0.00  0.00    +0.046 C 
ATOM      4  C   UNL     1       1.678  -0.280  -1.249  0.00  0.00    +0.128 C 
ATOM      5  C   UNL     1       2.612  -0.730  -0.125  0.00  0.00    +0.046 C 
ATOM      6  C   UNL     1       2.293   0.055   1.149  0.00  0.00    +0.128 C 
ATOM      7  C   UNL     1       2.490   1.550   0.889  0.00  0.00    +0.281 C 
ATOM      8  C   UNL     1       0.841  -0.204   1.558  0.00  0.00    +0.046 C 
ATOM      9  C   UNL     1      -0.093   0.246   0.433  0.00  0.00    +0.128 C 
ATOM     10  C   UNL     1       0.226  -0.539  -0.841  0.00  0.00    +0.281 C 
ENDROOT
BRANCH   7  11
ATOM     11  N   UNL     1       2.185   2.302   2.109  0.00  0.00    +0.056 N 
ATOM     12  O   UNL     1       1.082   2.235   2.600  0.00  0.00    -0.129 OA
ATOM     13  O   UNL     1       3.035   2.989   2.624  0.00  0.00    -0.129 OA
ENDBRANCH   7  11
BRANCH  10  14
ATOM     14  N   UNL     1       0.037  -1.970  -0.592  0.00  0.00    +0.056 N 
ATOM     15  O   UNL     1       0.697  -2.530   0.252  0.00  0.00    -0.129 OA
ATOM     16  O   UNL     1      -0.780  -2.592  -1.231  0.00  0.00    -0.129 OA
ENDBRANCH  10  14
BRANCH   9  17
ATOM     17  C   UNL     1      -1.523  -0.009   0.835  0.00  0.00    +0.367 C 
ATOM     18  O   UNL     1      -2.338   0.896   0.795  0.00  0.00    -0.246 OA
ATOM     19  O   UNL     1      -1.864  -1.121   1.201  0.00  0.00    -0.246 OA
ENDBRANCH   9  17
BRANCH   6  20
ATOM     20  C   UNL     1       3.213  -0.389   2.257  0.00  0.00    +0.367 C 
ATOM     21  O   UNL     1       4.115  -1.175   2.022  0.00  0.00    -0.246 OA
ATOM     22  O   UNL     1       3.057   0.039   3.388  0.00  0.00    -0.246 OA
ENDBRANCH   6  20
BRANCH   4  23
ATOM     23  C   UNL     1       1.992  -1.054  -2.504  0.00  0.00    +0.367 C 
ATOM     24  O   UNL     1       3.104  -0.985  -2.999  0.00  0.00    -0.246 OA
ATOM     25  O   UNL     1       1.135  -1.748  -3.023  0.00  0.00    -0.246 OA
ENDBRANCH   4  23
BRANCH   2  26
ATOM     26  C   UNL     1       1.751   3.473  -0.491  0.00  0.00    +0.367 C 
ATOM     27  O   UNL     1       0.815   4.243  -0.358  0.00  0.00    -0.246 OA
ATOM     28  O   UNL     1       2.844   3.893  -0.830  0.00  0.00    -0.246 OA
ENDBRANCH   2  26
BRANCH   7  29
ATOM     29  N   UNL     1       3.880   1.798   0.498  0.00  0.00    -0.031 NA
ATOM     30  O   UNL     1       4.788   1.509   1.258  0.00  0.00    -0.146 OA
ENDBRANCH   7  29
BRANCH  10  31
ATOM     31  N   UNL     1      -0.669  -0.108  -1.917  0.00  0.00    -0.031 NA
ATOM     32  O   UNL     1      -1.874  -0.228  -1.792  0.00  0.00    -0.146 OA
ENDBRANCH  10  31
TORSDOF 8
