REMARK  Name = ZINC38676446
REMARK  11 active torsions:
REMARK  status: ('A' for Active; 'I' for Inactive)
REMARK    1  A    between atoms: C_1  and  O_2
REMARK    2  A    between atoms: O_2  and  C_3
REMARK    3  A    between atoms: C_3  and  C_5
REMARK    4  A    between atoms: C_8  and  O_11
REMARK    5  A    between atoms: O_11  and  C_12
REMARK    6  A    between atoms: C_16  and  C_18
REMARK    7  A    between atoms: C_21  and  O_25
REMARK    8  A    between atoms: C_23  and  O_24
REMARK    9  A    between atoms: O_25  and  C_26
REMARK   10  A    between atoms: C_26  and  C_27
REMARK   11  A    between atoms: N_29  and  N_30
REMARK                            x       y       z     vdW  Elec       q    Type
REMARK                         _______ _______ _______ _____ _____    ______ ____
ROOT
ATOM      1  C   UNL     1       1.410  -6.859   2.293  0.00  0.00    +0.153 C 
ATOM      2  C   UNL     1       1.955  -6.334   3.409  0.00  0.00    +0.176 C 
ATOM      3  N   UNL     1       2.415  -7.301   4.212  0.00  0.00    -0.182 NA
ATOM      4  N   UNL     1       2.256  -8.448   3.787  0.00  0.00    -0.294 N 
ATOM      5  C   UNL     1       1.576  -8.357   2.484  0.00  0.00    +0.199 C 
ATOM      6  H   UNL     1       2.526  -9.265   4.234  0.00  0.00    +0.184 HD
ENDROOT
BRANCH   5   7
ATOM      7  C   UNL     1       0.234  -9.041   2.530  0.00  0.00    +0.025 A 
ATOM      8  C   UNL     1      -0.370  -9.294   3.747  0.00  0.00    +0.013 A 
ATOM      9  C   UNL     1      -1.601  -9.921   3.792  0.00  0.00    +0.046 A 
ATOM     10  C   UNL     1      -2.233 -10.297   2.615  0.00  0.00    +0.125 A 
ATOM     11  C   UNL     1      -1.629 -10.044   1.394  0.00  0.00    +0.091 A 
ATOM     12  C   UNL     1      -0.397  -9.410   1.350  0.00  0.00    +0.126 A 
BRANCH  12  13
ATOM     13  O   UNL     1       0.195  -9.154   0.154  0.00  0.00    -0.506 OA
ATOM     14  H   UNL     1       0.768  -9.867  -0.161  0.00  0.00    +0.292 HD
ENDBRANCH  12  13
BRANCH  10  15
ATOM     15  O   UNL     1      -3.443 -10.914   2.661  0.00  0.00    -0.483 OA
BRANCH  15  16
ATOM     16  C   UNL     1      -4.006 -11.144   3.954  0.00  0.00    +0.325 C 
BRANCH  16  17
ATOM     17  C   UNL     1      -5.339 -11.832   3.807  0.00  0.00    +0.264 C 
ATOM     18  O   UNL     1      -5.765 -12.099   2.703  0.00  0.00    -0.271 OA
ATOM     19  N   UNL     1      -6.057 -12.150   4.902  0.00  0.00    -0.251 N 
ATOM     20  H   UNL     1      -5.717 -11.937   5.785  0.00  0.00    +0.169 HD
BRANCH  19  21
ATOM     21  N   UNL     1      -7.265 -12.774   4.768  0.00  0.00    -0.254 NA
ATOM     22  H   UNL     1      -7.174 -13.629   4.241  0.00  0.00    +0.140 HD
ATOM     23  H   UNL     1      -7.684 -12.948   5.670  0.00  0.00    +0.140 HD
ENDBRANCH  19  21
ENDBRANCH  16  17
ENDBRANCH  15  16
ENDBRANCH  10  15
ENDBRANCH   5   7
BRANCH   1  24
ATOM     24  O   UNL     1       0.845  -6.207   1.254  0.00  0.00    -0.456 OA
BRANCH  24  28
ATOM     25  C   UNL     1       2.746  -6.379  -2.406  0.00  0.00    +0.059 A 
ATOM     26  C   UNL     1       3.349  -6.940  -1.276  0.00  0.00    +0.018 A 
ATOM     27  C   UNL     1       2.711  -6.880  -0.057  0.00  0.00    +0.047 A 
ATOM     28  C   UNL     1       1.470  -6.263   0.051  0.00  0.00    +0.128 A 
ATOM     29  C   UNL     1       0.867  -5.705  -1.070  0.00  0.00    +0.047 A 
ATOM     30  C   UNL     1       1.500  -5.754  -2.291  0.00  0.00    +0.018 A 
BRANCH  25  31
ATOM     31  C   UNL     1       3.425  -6.440  -3.714  0.00  0.00    +0.339 C 
ATOM     32  O   UNL     1       2.902  -5.948  -4.693  0.00  0.00    -0.245 OA
BRANCH  31  34
ATOM     33  C   UNL     1       5.225  -7.065  -5.119  0.00  0.00    +0.280 C 
ATOM     34  O   UNL     1       4.625  -7.042  -3.822  0.00  0.00    -0.464 OA
ENDBRANCH  31  34
ENDBRANCH  25  31
ENDBRANCH  24  28
ENDBRANCH   1  24
TORSDOF 10
