REMARK  Name = ZINC48796053
REMARK  7 active torsions:
REMARK  status: ('A' for Active; 'I' for Inactive)
REMARK    1  A    between atoms: C_1  and  C_2
REMARK    2  A    between atoms: C_2  and  C_3
REMARK    3  A    between atoms: C_3  and  C_5
REMARK    4  A    between atoms: C_3  and  N_12
REMARK    5  A    between atoms: N_12  and  C_13
REMARK    6  A    between atoms: C_13  and  C_14
REMARK    7  A    between atoms: C_19  and  O_20
REMARK                            x       y       z     vdW  Elec       q    Type
REMARK                         _______ _______ _______ _____ _____    ______ ____
ROOT
ATOM      1  N   UNL     1       2.043  -0.196  -1.337  0.00  0.00    +0.386 N 
ATOM      2  H   UNL     1       2.189   0.773  -1.095  0.00  0.00    -0.085 HD
ATOM      3  H   UNL     1       2.520  -0.785  -0.671  0.00  0.00    -0.085 HD
ENDROOT
BRANCH   1   4
ATOM      4  C   UNL     1       0.605  -0.495  -1.315  0.00  0.00    -0.041 C 
BRANCH   4   5
ATOM      5  C   UNL     1       0.395  -1.969  -1.549  0.00  0.00    -0.061 A 
ATOM      6  C   UNL     1       1.240  -2.889  -0.958  0.00  0.00    +0.003 A 
ATOM      7  C   UNL     1       1.048  -4.241  -1.172  0.00  0.00    +0.020 A 
ATOM      8  C   UNL     1       0.009  -4.673  -1.978  0.00  0.00    +0.041 A 
ATOM      9  C   UNL     1      -0.836  -3.751  -2.568  0.00  0.00    +0.020 A 
ATOM     10  C   UNL     1      -0.646  -2.400  -2.349  0.00  0.00    +0.003 A 
ATOM     11 CL   UNL     1      -0.232  -6.371  -2.247  0.00  0.00    -0.084 Cl
ENDBRANCH   4   5
BRANCH   4  13
ATOM     12  C   UNL     1       0.120   1.410   0.228  0.00  0.00    +0.002 C 
ATOM     13  C   UNL     1       0.025  -0.107   0.046  0.00  0.00    -0.015 C 
ENDBRANCH   4  13
ENDBRANCH   1   4
BRANCH   1  14
ATOM     14  C   UNL     1       2.575  -0.449  -2.683  0.00  0.00    -0.042 C 
BRANCH  14  15
ATOM     15  C   UNL     1       4.019  -0.022  -2.741  0.00  0.00    -0.022 A 
ATOM     16  C   UNL     1       4.359   1.197  -3.296  0.00  0.00    +0.005 A 
ATOM     17  C   UNL     1       5.683   1.589  -3.349  0.00  0.00    +0.002 A 
ATOM     18  C   UNL     1       6.672   0.763  -2.848  0.00  0.00    +0.019 A 
ATOM     19  C   UNL     1       6.338  -0.457  -2.291  0.00  0.00    +0.059 A 
ATOM     20  C   UNL     1       5.008  -0.851  -2.232  0.00  0.00    +0.132 A 
ATOM     21 BR   UNL     1       7.691  -1.587  -1.606  0.00  0.00    -0.047 Br
BRANCH  20  22
ATOM     22  O   UNL     1       4.676  -2.048  -1.681  0.00  0.00    -0.505 OA
ATOM     23  H   UNL     1       4.663  -2.781  -2.312  0.00  0.00    +0.292 HD
ENDBRANCH  20  22
ENDBRANCH  14  15
ENDBRANCH   1  14
TORSDOF 6
