REMARK  Name = ZINC35065913
REMARK  12 active torsions:
REMARK  status: ('A' for Active; 'I' for Inactive)
REMARK    1  A    between atoms: C_1  and  C_2
REMARK    2  A    between atoms: C_6  and  N_8
REMARK    3  A    between atoms: C_18  and  C_19
REMARK    4  A    between atoms: C_19  and  C_21
REMARK    5  A    between atoms: C_19  and  N_22
REMARK    6  A    between atoms: N_22  and  C_23
REMARK    7  A    between atoms: C_23  and  C_24
REMARK    8  A    between atoms: C_24  and  N_25
REMARK    9  A    between atoms: N_25  and  C_26
REMARK   10  A    between atoms: N_25  and  C_27
REMARK   11  A    between atoms: N_30  and  C_31
REMARK   12  A    between atoms: C_35  and  C_37
REMARK                            x       y       z     vdW  Elec       q    Type
REMARK                         _______ _______ _______ _____ _____    ______ ____
ROOT
ATOM      1  C   UNL     1       0.042  -4.630   0.924  0.00  0.00    +0.141 C 
ATOM      2  C   UNL     1      -1.031  -3.984   0.045  0.00  0.00    +0.036 C 
ENDROOT
BRANCH   1  13
ATOM      3  N   UNL     1       1.167  -3.450   2.771  0.00  0.00    -0.263 N 
ATOM      4  C   UNL     1       1.196  -2.867   3.992  0.00  0.00    +0.266 A 
ATOM      5  O   UNL     1       2.216  -2.368   4.430  0.00  0.00    -0.267 OA
ATOM      6  C   UNL     1      -0.053  -2.859   4.767  0.00  0.00    +0.065 A 
ATOM      7  C   UNL     1      -0.130  -2.283   6.034  0.00  0.00    +0.015 A 
ATOM      8  C   UNL     1      -1.326  -2.303   6.717  0.00  0.00    +0.001 A 
ATOM      9  C   UNL     1      -2.452  -2.890   6.154  0.00  0.00    +0.002 A 
ATOM     10  C   UNL     1      -2.397  -3.464   4.904  0.00  0.00    +0.028 A 
ATOM     11  C   UNL     1      -1.196  -3.457   4.191  0.00  0.00    +0.078 A 
ATOM     12  N   UNL     1      -1.097  -4.010   2.957  0.00  0.00    -0.231 NA
ATOM     13  C   UNL     1       0.018  -3.999   2.292  0.00  0.00    +0.138 A 
BRANCH   3  19
ATOM     14  C   UNL     1       3.899  -1.538  -0.844  0.00  0.00    +0.044 C 
ATOM     15  C   UNL     1       3.679  -2.570   0.232  0.00  0.00    -0.048 A 
ATOM     16  C   UNL     1       4.627  -3.554   0.449  0.00  0.00    +0.003 A 
ATOM     17  C   UNL     1       4.429  -4.503   1.435  0.00  0.00    +0.002 A 
ATOM     18  C   UNL     1       3.283  -4.471   2.206  0.00  0.00    +0.026 A 
ATOM     19  C   UNL     1       2.330  -3.485   1.991  0.00  0.00    +0.051 A 
ATOM     20  C   UNL     1       2.534  -2.530   1.003  0.00  0.00    +0.029 A 
ENDBRANCH   3  19
ENDBRANCH   1  13
BRANCH   1  21
ATOM     21  N   UNL     1      -0.224  -6.066   1.044  0.00  0.00    -0.277 N 
ATOM     22  C   UNL     1       0.692  -6.958   0.619  0.00  0.00    +0.307 C 
ATOM     23  O   UNL     1       1.739  -6.572   0.135  0.00  0.00    -0.252 OA
ATOM     24  N   UNL     1       0.448  -8.279   0.729  0.00  0.00    -0.269 N 
ATOM     25  H   UNL     1      -0.357  -8.588   1.174  0.00  0.00    +0.156 HD
BRANCH  24  26
ATOM     26  C   UNL     1       1.355  -9.205   0.201  0.00  0.00    +0.036 A 
ATOM     27  C   UNL     1       0.891 -10.386  -0.366  0.00  0.00    +0.023 A 
ATOM     28  C   UNL     1       1.783 -11.305  -0.888  0.00  0.00    +0.003 A 
ATOM     29  C   UNL     1       3.139 -11.055  -0.850  0.00  0.00    +0.019 A 
ATOM     30  C   UNL     1       3.615  -9.871  -0.282  0.00  0.00    +0.054 A 
ATOM     31  C   UNL     1       2.715  -8.942   0.240  0.00  0.00    +0.042 A 
BRANCH  30  32
ATOM     32  C   UNL     1       5.023  -9.610  -0.240  0.00  0.00    +0.099 C 
ATOM     33  N   UNL     1       6.139  -9.402  -0.207  0.00  0.00    -0.191 NA
ENDBRANCH  30  32
ENDBRANCH  24  26
BRANCH  21  34
ATOM     34  C   UNL     1      -1.485  -6.531   1.626  0.00  0.00    +0.091 C 
BRANCH  34  35
ATOM     35  C   UNL     1      -2.529  -6.690   0.519  0.00  0.00    -0.060 C 
BRANCH  35  36
ATOM     36  N   UNL     1      -3.794  -7.157   1.103  0.00  0.00    +0.377 N 
ATOM     37  C   UNL     1      -4.830  -7.195   0.062  0.00  0.00    -0.097 C 
ATOM     38  C   UNL     1      -3.609  -8.504   1.660  0.00  0.00    -0.097 C 
ATOM     39  H   UNL     1      -4.079  -6.526   1.837  0.00  0.00    -0.083 HD
ENDBRANCH  35  36
ENDBRANCH  34  35
ENDBRANCH  21  34
ENDBRANCH   1  21
TORSDOF 8
