REMARK  Name = ZINC63141818
REMARK  5 active torsions:
REMARK  status: ('A' for Active; 'I' for Inactive)
REMARK    1  A    between atoms: C_8  and  C_32
REMARK    2  A    between atoms: N_19  and  C_23
REMARK    3  A    between atoms: C_23  and  C_24
REMARK    4  A    between atoms: C_24  and  C_25
REMARK    5  A    between atoms: C_35  and  N_38
REMARK                            x       y       z     vdW  Elec       q    Type
REMARK                         _______ _______ _______ _____ _____    ______ ____
ROOT
ATOM      1  C   UNL     1      -0.047   1.286  -0.134  0.00  0.00    +0.001 A 
ATOM      2  C   UNL     1       1.106   2.076  -0.183  0.00  0.00    +0.002 A 
ATOM      3  C   UNL     1       2.371   1.587  -0.192  0.00  0.00    +0.026 A 
ATOM      4  C   UNL     1       2.528   0.171  -0.145  0.00  0.00    +0.043 A 
ATOM      5  N   UNL     1       3.605  -0.557  -0.122  0.00  0.00    -0.375 N 
ATOM      6  C   UNL     1       3.211  -1.967  -0.144  0.00  0.00    +0.131 C 
ATOM      7  C   UNL     1       3.753  -2.726   1.071  0.00  0.00    +0.133 C 
ATOM      8  N   UNL     1       3.015  -4.004   1.172  0.00  0.00    -0.279 N 
ATOM      9  C   UNL     1       1.568  -3.983   1.361  0.00  0.00    +0.167 C 
ATOM     10  C   UNL     1       0.900  -3.234   0.194  0.00  0.00    +0.065 C 
ATOM     11  C   UNL     1       1.692  -1.967  -0.032  0.00  0.00    -0.034 C 
ATOM     12  C   UNL     1       1.312  -0.696  -0.083  0.00  0.00    -0.001 A 
ATOM     13  C   UNL     1      -0.021  -0.072  -0.083  0.00  0.00    +0.010 A 
ATOM     14  C   UNL     1       0.982  -5.352   1.466  0.00  0.00    +0.237 C 
ATOM     15  O   UNL     1      -0.214  -5.445   1.645  0.00  0.00    -0.274 OA
ATOM     16  N   UNL     1       1.688  -6.477   1.375  0.00  0.00    -0.291 N 
ATOM     17  C   UNL     1       3.125  -6.510   1.161  0.00  0.00    +0.203 C 
ATOM     18  C   UNL     1       3.715  -5.141   1.084  0.00  0.00    +0.234 C 
ATOM     19  O   UNL     1       4.912  -5.053   0.909  0.00  0.00    -0.274 OA
ATOM     20  H   UNL     1       4.515  -0.222  -0.095  0.00  0.00    +0.160 HD
ENDROOT
BRANCH   7  21
ATOM     21  C   UNL     1       5.224  -2.998   0.888  0.00  0.00    -0.025 A 
ATOM     22  C   UNL     1       6.062  -3.037   1.987  0.00  0.00    +0.008 A 
ATOM     23  C   UNL     1       7.411  -3.287   1.819  0.00  0.00    +0.033 A 
ATOM     24  C   UNL     1       7.923  -3.498   0.552  0.00  0.00    +0.126 A 
ATOM     25  C   UNL     1       7.085  -3.461  -0.546  0.00  0.00    +0.033 A 
ATOM     26  C   UNL     1       5.735  -3.216  -0.378  0.00  0.00    +0.008 A 
BRANCH  24  27
ATOM     27  N   UNL     1       9.367  -3.765   0.372  0.00  0.00    +0.056 N 
ATOM     28  O   UNL     1      10.100  -3.797   1.333  0.00  0.00    -0.126 OA
ATOM     29  O   UNL     1       9.815  -3.950  -0.735  0.00  0.00    -0.126 OA
ENDBRANCH  24  27
ENDBRANCH   7  21
BRANCH  16  30
ATOM     30  C   UNL     1       0.977  -7.753   1.497  0.00  0.00    +0.113 C 
BRANCH  30  31
ATOM     31  C   UNL     1       0.517  -8.215   0.113  0.00  0.00    +0.054 C 
BRANCH  31  32
ATOM     32  C   UNL     1      -0.214  -9.527   0.239  0.00  0.00    -0.046 A 
ATOM     33  C   UNL     1       0.483 -10.717   0.156  0.00  0.00    +0.005 A 
ATOM     34  C   UNL     1      -0.186 -11.921   0.272  0.00  0.00    +0.020 A 
ATOM     35  C   UNL     1      -1.556 -11.934   0.470  0.00  0.00    +0.041 A 
ATOM     36  C   UNL     1      -2.253 -10.742   0.554  0.00  0.00    +0.020 A 
ATOM     37  C   UNL     1      -1.581  -9.539   0.444  0.00  0.00    +0.005 A 
ATOM     38 CL   UNL     1      -2.398 -13.445   0.615  0.00  0.00    -0.084 Cl
ENDBRANCH  31  32
ENDBRANCH  30  31
ENDBRANCH  16  30
TORSDOF 5
