REMARK  Name = ZINC64093629
REMARK  4 active torsions:
REMARK  status: ('A' for Active; 'I' for Inactive)
REMARK    1  A    between atoms: C_15  and  C_17
REMARK    2  A    between atoms: N_23  and  C_25
REMARK    3  A    between atoms: C_25  and  C_26
REMARK    4  A    between atoms: C_26  and  N_27
REMARK                            x       y       z     vdW  Elec       q    Type
REMARK                         _______ _______ _______ _____ _____    ______ ____
ROOT
ATOM      1  C   UNL     1       0.710   0.978   2.149  0.00  0.00    +0.001 A 
ATOM      2  C   UNL     1       1.873   1.734   1.946  0.00  0.00    +0.002 A 
ATOM      3  C   UNL     1       3.021   1.195   1.486  0.00  0.00    +0.026 A 
ATOM      4  C   UNL     1       3.095  -0.192   1.182  0.00  0.00    +0.043 A 
ATOM      5  N   UNL     1       4.072  -0.931   0.711  0.00  0.00    -0.376 N 
ATOM      6  C   UNL     1       3.622  -2.320   0.661  0.00  0.00    +0.124 C 
ATOM      7  C   UNL     1       3.730  -2.906  -0.752  0.00  0.00    +0.136 C 
ATOM      8  N   UNL     1       2.902  -4.121  -0.801  0.00  0.00    -0.299 N 
ATOM      9  C   UNL     1       1.462  -4.055  -0.531  0.00  0.00    +0.112 C 
ATOM     10  C   UNL     1       1.234  -3.474   0.876  0.00  0.00    +0.052 C 
ATOM     11  C   UNL     1       2.148  -2.279   1.030  0.00  0.00    -0.036 C 
ATOM     12  C   UNL     1       1.876  -1.014   1.381  0.00  0.00    -0.001 A 
ATOM     13  C   UNL     1       0.670  -0.348   1.889  0.00  0.00    +0.010 A 
ATOM     14  C   UNL     1       3.472  -5.306  -1.099  0.00  0.00    +0.220 C 
ATOM     15  O   UNL     1       4.641  -5.353  -1.416  0.00  0.00    -0.275 OA
ATOM     16  H   UNL     1       4.947  -0.610   0.441  0.00  0.00    +0.160 HD
ENDROOT
BRANCH  14  17
ATOM     17  C   UNL     1       2.656  -6.571  -1.036  0.00  0.00    +0.093 C 
ATOM     18  C   UNL     1       1.911  -6.769  -2.361  0.00  0.00    +0.023 C 
ATOM     19  C   UNL     1       0.955  -7.954  -2.206  0.00  0.00    +0.097 C 
ATOM     20  C   UNL     1       1.683  -9.124  -1.609  0.00  0.00    +0.216 C 
ATOM     21  O   UNL     1       1.184 -10.225  -1.713  0.00  0.00    -0.276 OA
ATOM     22  N   UNL     1       2.848  -9.017  -0.970  0.00  0.00    -0.300 N 
ATOM     23  C   UNL     1       3.581  -7.767  -0.807  0.00  0.00    +0.120 C 
BRANCH  22  24
ATOM     24  C   UNL     1       3.428 -10.232  -0.391  0.00  0.00    +0.123 C 
BRANCH  24  25
ATOM     25  C   UNL     1       4.330 -10.909  -1.425  0.00  0.00    +0.103 C 
BRANCH  25  26
ATOM     26  N   UNL     1       4.911 -12.127  -0.845  0.00  0.00    -0.297 NA
ATOM     27  C   UNL     1       5.833 -11.800   0.253  0.00  0.00    +0.112 C 
ATOM     28  C   UNL     1       6.368 -13.096   0.866  0.00  0.00    +0.175 C 
ATOM     29  O   UNL     1       6.997 -13.877  -0.154  0.00  0.00    -0.377 OA
ATOM     30  C   UNL     1       6.128 -14.214  -1.238  0.00  0.00    +0.175 C 
ATOM     31  C   UNL     1       5.590 -12.929  -1.873  0.00  0.00    +0.112 C 
ENDBRANCH  25  26
ENDBRANCH  24  25
ENDBRANCH  22  24
ENDBRANCH  14  17
TORSDOF 4
