REMARK  Name = ZINC63573214
REMARK  4 active torsions:
REMARK  status: ('A' for Active; 'I' for Inactive)
REMARK    1  A    between atoms: C_1  and  O_2
REMARK    2  A    between atoms: O_2  and  C_3
REMARK    3  A    between atoms: C_10  and  C_28
REMARK    4  A    between atoms: N_20  and  C_21
REMARK                            x       y       z     vdW  Elec       q    Type
REMARK                         _______ _______ _______ _____ _____    ______ ____
ROOT
ATOM      1  C   UNL     1      -2.203  -0.341   1.199  0.00  0.00    +0.121 A 
ATOM      2  C   UNL     1      -3.371   0.285   0.729  0.00  0.00    +0.047 A 
ATOM      3  C   UNL     1      -4.387  -0.404   0.166  0.00  0.00    +0.029 A 
ATOM      4  C   UNL     1      -4.293  -1.860   0.027  0.00  0.00    +0.043 A 
ATOM      5  N   UNL     1      -5.112  -2.745  -0.490  0.00  0.00    -0.375 N 
ATOM      6  C   UNL     1      -4.541  -4.076  -0.294  0.00  0.00    +0.131 C 
ATOM      7  C   UNL     1      -4.363  -4.822  -1.622  0.00  0.00    +0.134 C 
ATOM      8  N   UNL     1      -3.437  -5.941  -1.389  0.00  0.00    -0.276 N 
ATOM      9  C   UNL     1      -2.073  -5.696  -0.908  0.00  0.00    +0.114 C 
ATOM     10  C   UNL     1      -2.134  -4.941   0.433  0.00  0.00    +0.052 C 
ATOM     11  C   UNL     1      -3.159  -3.839   0.290  0.00  0.00    -0.035 C 
ATOM     12  C   UNL     1      -3.057  -2.522   0.516  0.00  0.00    +0.003 A 
ATOM     13  C   UNL     1      -2.014  -1.679   1.110  0.00  0.00    +0.055 A 
ATOM     14  C   UNL     1      -3.846  -7.205  -1.619  0.00  0.00    +0.307 C 
ATOM     15  O   UNL     1      -4.933  -7.409  -2.125  0.00  0.00    -0.252 OA
ATOM     16  N   UNL     1      -3.051  -8.242  -1.288  0.00  0.00    -0.269 N 
ATOM     17  H   UNL     1      -2.220  -8.083  -0.813  0.00  0.00    +0.156 HD
ATOM     18  H   UNL     1      -5.955  -2.549  -0.928  0.00  0.00    +0.160 HD
ENDROOT
BRANCH  16  19
ATOM     19  C   UNL     1      -3.424  -9.547  -1.630  0.00  0.00    +0.035 A 
ATOM     20  C   UNL     1      -4.755  -9.843  -1.896  0.00  0.00    +0.024 A 
ATOM     21  C   UNL     1      -5.120 -11.131  -2.233  0.00  0.00    +0.017 A 
ATOM     22  C   UNL     1      -4.162 -12.127  -2.305  0.00  0.00    +0.018 A 
ATOM     23  C   UNL     1      -2.836 -11.835  -2.039  0.00  0.00    +0.017 A 
ATOM     24  C   UNL     1      -2.464 -10.547  -1.708  0.00  0.00    +0.024 A 
ATOM     25 BR   UNL     1      -4.666 -13.890  -2.765  0.00  0.00    -0.050 Br
ENDBRANCH  16  19
BRANCH   7  26
ATOM     26  C   UNL     1      -3.788  -3.890  -2.657  0.00  0.00    -0.025 A 
ATOM     27  C   UNL     1      -4.557  -3.497  -3.736  0.00  0.00    +0.008 A 
ATOM     28  C   UNL     1      -4.031  -2.642  -4.686  0.00  0.00    +0.038 A 
ATOM     29  C   UNL     1      -2.732  -2.179  -4.557  0.00  0.00    +0.123 A 
ATOM     30  C   UNL     1      -1.962  -2.574  -3.476  0.00  0.00    +0.038 A 
ATOM     31  C   UNL     1      -2.493  -3.425  -2.524  0.00  0.00    +0.008 A 
ATOM     32  F   UNL     1      -2.217  -1.344  -5.485  0.00  0.00    -0.205 F 
ENDBRANCH   7  26
BRANCH   1  34
ATOM     33  C   UNL     1      -1.470   1.831   1.831  0.00  0.00    +0.277 C 
ATOM     34  O   UNL     1      -1.228   0.424   1.757  0.00  0.00    -0.495 OA
ENDBRANCH   1  34
TORSDOF 3
