REMARK  Name = ZINC04121129
REMARK  3 active torsions:
REMARK  status: ('A' for Active; 'I' for Inactive)
REMARK    1  A    between atoms: C_1  and  C_2
REMARK    2  A    between atoms: C_9  and  C_12
REMARK    3  A    between atoms: C_23  and  C_25
REMARK                            x       y       z     vdW  Elec       q    Type
REMARK                         _______ _______ _______ _____ _____    ______ ____
ROOT
ATOM      1  C   UNL     1      -0.369   3.011   1.181  0.00  0.00    +0.258 C 
ATOM      2  O   UNL     1       0.046   4.067   1.624  0.00  0.00    -0.269 OA
ATOM      3  N   UNL     1       0.476   1.976   1.007  0.00  0.00    -0.264 N 
ATOM      4  C   UNL     1       1.803   2.196   0.612  0.00  0.00    +0.040 A 
ATOM      5  C   UNL     1       2.168   3.452   0.140  0.00  0.00    +0.026 A 
ATOM      6  C   UNL     1       3.470   3.692  -0.251  0.00  0.00    +0.040 A 
ATOM      7  C   UNL     1       4.412   2.679  -0.172  0.00  0.00    +0.124 A 
ATOM      8  C   UNL     1       4.049   1.429   0.296  0.00  0.00    +0.043 A 
ATOM      9  C   UNL     1       2.744   1.182   0.689  0.00  0.00    -0.023 A 
ATOM     10  C   UNL     1       2.383  -0.191   1.190  0.00  0.00    +0.039 C 
ATOM     11  C   UNL     1       1.103  -0.136   2.025  0.00  0.00    +0.027 C 
ATOM     12  C   UNL     1       0.019   0.596   1.223  0.00  0.00    +0.079 C 
ATOM     13  C   UNL     1      -1.293   0.601   2.010  0.00  0.00    +0.028 C 
ATOM     14  F   UNL     1       5.687   2.913  -0.554  0.00  0.00    -0.205 F 
ENDROOT
BRANCH   1  23
ATOM     15  C   UNL     1      -3.267  -0.450  -1.573  0.00  0.00    +0.064 C 
ATOM     16  C   UNL     1      -4.122   0.656  -1.010  0.00  0.00    +0.033 A 
ATOM     17  C   UNL     1      -5.436   0.667  -1.235  0.00  0.00    +0.070 A 
ATOM     18  S   UNL     1      -5.943   2.143  -0.370  0.00  0.00    -0.057 S 
ATOM     19  C   UNL     1      -4.388   2.625   0.217  0.00  0.00    +0.180 A 
ATOM     20  N   UNL     1      -3.550   1.657  -0.260  0.00  0.00    -0.259 N 
ATOM     21  C   UNL     1      -2.224   1.780   0.049  0.00  0.00    +0.271 A 
ATOM     22  O   UNL     1      -1.423   0.953  -0.350  0.00  0.00    -0.266 OA
ATOM     23  C   UNL     1      -1.787   2.867   0.836  0.00  0.00    +0.120 A 
ATOM     24  C   UNL     1      -2.723   3.809   1.279  0.00  0.00    +0.132 A 
ATOM     25  N   UNL     1      -3.993   3.646   0.948  0.00  0.00    -0.230 NA
ENDBRANCH   1  23
TORSDOF 1
