REMARK  Name = ZINC66385089
REMARK  9 active torsions:
REMARK  status: ('A' for Active; 'I' for Inactive)
REMARK    1  A    between atoms: C_1  and  C_2
REMARK    2  A    between atoms: C_5  and  C_7
REMARK    3  A    between atoms: C_7  and  C_9
REMARK    4  A    between atoms: C_7  and  N_10
REMARK    5  A    between atoms: N_13  and  C_14
REMARK    6  A    between atoms: C_14  and  C_16
REMARK    7  A    between atoms: C_14  and  C_17
REMARK    8  A    between atoms: C_20  and  N_23
REMARK    9  A    between atoms: N_26  and  C_29
REMARK                            x       y       z     vdW  Elec       q    Type
REMARK                         _______ _______ _______ _____ _____    ______ ____
ROOT
ATOM      1  C   UNL     1       3.999  -6.691   2.816  0.00  0.00    +0.102 C 
ATOM      2  C   UNL     1       3.196  -6.924   4.098  0.00  0.00    +0.033 C 
ENDROOT
BRANCH   1   6
ATOM      3  N   UNL     1       2.203  -4.129   0.885  0.00  0.00    -0.292 N 
ATOM      4  C   UNL     1       2.549  -5.316   1.422  0.00  0.00    +0.301 C 
ATOM      5  O   UNL     1       1.893  -6.309   1.176  0.00  0.00    -0.253 OA
ATOM      6  N   UNL     1       3.623  -5.401   2.232  0.00  0.00    -0.293 N 
ATOM      7  H   UNL     1       2.727  -3.337   1.081  0.00  0.00    +0.151 HD
ATOM      8  H   UNL     1       4.146  -4.609   2.429  0.00  0.00    +0.151 HD
BRANCH   3   9
ATOM      9  C   UNL     1       1.036  -4.037   0.004  0.00  0.00    +0.108 C 
ATOM     10  C   UNL     1       1.446  -4.398  -1.425  0.00  0.00    +0.033 C 
BRANCH   9  15
ATOM     11  C   UNL     1      -0.039   1.524   0.105  0.00  0.00    +0.051 C 
ATOM     12  C   UNL     1      -0.015   0.018   0.080  0.00  0.00    -0.013 A 
ATOM     13  C   UNL     1      -1.054  -0.853   0.069  0.00  0.00    +0.011 A 
ATOM     14  C   UNL     1      -0.792  -2.209   0.044  0.00  0.00    +0.013 A 
ATOM     15  C   UNL     1       0.497  -2.630   0.031  0.00  0.00    +0.010 A 
ATOM     16  S   UNL     1       1.390  -1.083   0.047  0.00  0.00    -0.097 S 
ENDBRANCH   9  15
ENDBRANCH   3   9
ENDBRANCH   1   6
BRANCH   1  17
ATOM     17  C   UNL     1       5.471  -6.686   3.139  0.00  0.00    -0.027 A 
ATOM     18  C   UNL     1       6.055  -5.554   3.677  0.00  0.00    +0.007 A 
ATOM     19  C   UNL     1       7.404  -5.546   3.974  0.00  0.00    +0.023 A 
ATOM     20  C   UNL     1       8.174  -6.677   3.732  0.00  0.00    +0.030 A 
ATOM     21  C   UNL     1       7.583  -7.812   3.192  0.00  0.00    +0.023 A 
ATOM     22  C   UNL     1       6.233  -7.816   2.902  0.00  0.00    +0.007 A 
BRANCH  20  23
ATOM     23  N   UNL     1       9.538  -6.672   4.031  0.00  0.00    -0.333 N 
ATOM     24  C   UNL     1      10.347  -7.894   3.894  0.00  0.00    +0.086 C 
ATOM     25  C   UNL     1      11.595  -7.560   3.069  0.00  0.00    -0.060 C 
ATOM     26  N   UNL     1      12.301  -6.431   3.688  0.00  0.00    +0.380 N 
ATOM     27  C   UNL     1      11.462  -5.228   3.639  0.00  0.00    -0.060 C 
ATOM     28  C   UNL     1      10.208  -5.444   4.486  0.00  0.00    +0.086 C 
ATOM     29  C   UNL     1      13.554  -6.182   2.962  0.00  0.00    -0.096 C 
ATOM     30  H   UNL     1      12.511  -6.654   4.650  0.00  0.00    -0.082 HD
ENDBRANCH  20  23
ENDBRANCH   1  17
TORSDOF 5
