REMARK  Name = ZINC23566633
REMARK  12 active torsions:
REMARK  status: ('A' for Active; 'I' for Inactive)
REMARK    1  A    between atoms: C_1  and  C_2
REMARK    2  A    between atoms: C_2  and  C_3
REMARK    3  A    between atoms: C_3  and  C_4
REMARK    4  A    between atoms: C_3  and  C_5
REMARK    5  A    between atoms: C_3  and  C_6
REMARK    6  A    between atoms: N_14  and  C_18
REMARK    7  A    between atoms: C_18  and  C_19
REMARK    8  A    between atoms: N_21  and  N_22
REMARK    9  A    between atoms: C_23  and  C_25
REMARK   10  A    between atoms: C_25  and  C_27
REMARK   11  A    between atoms: C_25  and  O_28
REMARK   12  A    between atoms: O_28  and  C_29
REMARK                            x       y       z     vdW  Elec       q    Type
REMARK                         _______ _______ _______ _____ _____    ______ ____
ROOT
ATOM      1  C   UNL     1       4.573  -7.966  -0.942  0.00  0.00    +0.215 C 
ENDROOT
BRANCH   1  10
ATOM      2  C   UNL     1       2.161  -1.810  -0.464  0.00  0.00    -0.005 C 
ATOM      3  C   UNL     1       2.750  -2.531   0.750  0.00  0.00    +0.006 C 
ATOM      4  C   UNL     1       2.533  -4.039   0.602  0.00  0.00    +0.035 C 
ATOM      5  C   UNL     1       3.205  -4.529  -0.676  0.00  0.00    +0.113 C 
ATOM      6  C   UNL     1       2.646  -3.801  -1.894  0.00  0.00    +0.035 C 
ATOM      7  C   UNL     1       2.862  -2.294  -1.735  0.00  0.00    +0.006 C 
ATOM      8  C   UNL     1       3.025  -6.022  -0.827  0.00  0.00    +0.247 C 
ATOM      9  O   UNL     1       1.981  -6.629  -0.931  0.00  0.00    -0.273 OA
ATOM     10  N   UNL     1       4.272  -6.538  -0.820  0.00  0.00    -0.215 N 
ATOM     11  C   UNL     1       5.200  -5.582  -0.686  0.00  0.00    +0.310 C 
ATOM     12  O   UNL     1       6.395  -5.801  -0.654  0.00  0.00    -0.252 OA
ATOM     13  N   UNL     1       4.660  -4.352  -0.594  0.00  0.00    -0.285 N 
ATOM     14  H   UNL     1       5.086  -3.344  -0.478  0.00  0.00    +0.151 HD
BRANCH   2  15
ATOM     15  C   UNL     1       2.366  -0.302  -0.311  0.00  0.00    -0.032 C 
ATOM     16  C   UNL     1       1.777   0.419  -1.525  0.00  0.00    +0.011 C 
ATOM     17  C   UNL     1       3.863   0.002  -0.215  0.00  0.00    +0.011 C 
BRANCH  15  19
ATOM     18  C   UNL     1       1.871   1.690   1.113  0.00  0.00    +0.004 C 
ATOM     19  C   UNL     1       1.665   0.182   0.960  0.00  0.00    +0.003 C 
ENDBRANCH  15  19
ENDBRANCH   2  15
ENDBRANCH   1  10
BRANCH   1  20
ATOM     20  C   UNL     1       4.740  -8.321  -2.397  0.00  0.00    +0.247 C 
ATOM     21  O   UNL     1       4.619  -7.465  -3.248  0.00  0.00    -0.273 OA
ATOM     22  N   UNL     1       5.023  -9.590  -2.753  0.00  0.00    -0.233 N 
ATOM     23  H   UNL     1       5.132 -10.367  -1.982  0.00  0.00    +0.173 HD
BRANCH  22  24
ATOM     24  N   UNL     1       5.178  -9.920  -4.106  0.00  0.00    -0.231 N 
ATOM     25  C   UNL     1       5.462 -11.189  -4.462  0.00  0.00    +0.270 C 
ATOM     26  O   UNL     1       5.582 -12.045  -3.611  0.00  0.00    -0.270 OA
ATOM     27  H   UNL     1       5.069  -9.144  -4.878  0.00  0.00    +0.173 HD
BRANCH  25  28
ATOM     28  C   UNL     1       5.628 -11.544  -5.917  0.00  0.00    +0.257 C 
ATOM     29  C   UNL     1       4.298 -11.346  -6.646  0.00  0.00    +0.062 C 
BRANCH  28  30
ATOM     30  O   UNL     1       6.036 -12.909  -6.031  0.00  0.00    -0.477 OA
BRANCH  30  31
ATOM     31  C   UNL     1       6.721 -13.257  -7.152  0.00  0.00    +0.157 A 
ATOM     32  C   UNL     1       6.897 -12.335  -8.173  0.00  0.00    +0.048 A 
ATOM     33  C   UNL     1       7.594 -12.691  -9.312  0.00  0.00    +0.004 A 
ATOM     34  C   UNL     1       8.117 -13.965  -9.435  0.00  0.00    +0.003 A 
ATOM     35  C   UNL     1       7.945 -14.887  -8.419  0.00  0.00    +0.042 A 
ATOM     36  C   UNL     1       7.251 -14.535  -7.275  0.00  0.00    +0.165 A 
ATOM     37  F   UNL     1       7.087 -15.434  -6.280  0.00  0.00    -0.202 F 
ENDBRANCH  30  31
ENDBRANCH  28  30
ENDBRANCH  25  28
ENDBRANCH  22  24
ENDBRANCH   1  20
TORSDOF 8
