REMARK  Name = ZINC63680253
REMARK  14 active torsions:
REMARK  status: ('A' for Active; 'I' for Inactive)
REMARK    1  A    between atoms: C_1  and  C_2
REMARK    2  A    between atoms: C_2  and  C_3
REMARK    3  A    between atoms: C_3  and  C_4
REMARK    4  A    between atoms: C_4  and  N_5
REMARK    5  A    between atoms: N_8  and  C_9
REMARK    6  A    between atoms: C_9  and  C_15
REMARK    7  A    between atoms: N_17  and  C_18
REMARK    8  A    between atoms: C_18  and  C_19
REMARK    9  A    between atoms: C_19  and  C_20
REMARK   10  A    between atoms: C_19  and  C_21
REMARK   11  A    between atoms: C_19  and  C_22
REMARK   12  A    between atoms: C_22  and  N_23
REMARK   13  A    between atoms: N_23  and  C_24
REMARK   14  A    between atoms: N_23  and  C_25
REMARK                            x       y       z     vdW  Elec       q    Type
REMARK                         _______ _______ _______ _____ _____    ______ ____
ROOT
ATOM      1  C   UNL     1       3.533  -5.271  -4.710  0.00  0.00    +0.112 C 
ATOM      2  C   UNL     1       2.246  -5.911  -5.233  0.00  0.00    +0.035 C 
ATOM      3  C   UNL     1       1.829  -5.227  -6.537  0.00  0.00    +0.003 C 
ATOM      4  C   UNL     1       2.939  -5.391  -7.577  0.00  0.00    +0.000 C 
ATOM      5  C   UNL     1       4.227  -4.750  -7.053  0.00  0.00    +0.003 C 
ATOM      6  C   UNL     1       4.644  -5.435  -5.750  0.00  0.00    +0.035 C 
ENDROOT
BRANCH   1  10
ATOM      7  N   UNL     1       2.310  -2.151  -3.199  0.00  0.00    -0.299 N 
ATOM      8  C   UNL     1       2.446  -3.459  -3.496  0.00  0.00    +0.300 C 
ATOM      9  O   UNL     1       1.795  -4.290  -2.893  0.00  0.00    -0.253 OA
ATOM     10  N   UNL     1       3.304  -3.845  -4.462  0.00  0.00    -0.285 N 
ATOM     11  H   UNL     1       2.830  -1.488  -3.680  0.00  0.00    +0.150 HD
ATOM     12  H   UNL     1       3.769  -3.179  -4.992  0.00  0.00    +0.151 HD
BRANCH   7  13
ATOM     13  C   UNL     1       1.378  -1.732  -2.150  0.00  0.00    +0.106 C 
BRANCH  13  14
ATOM     14  C   UNL     1       1.415  -0.208  -2.014  0.00  0.00    +0.018 C 
BRANCH  14  16
ATOM     15  C   UNL     1       0.479   1.754  -0.783  0.00  0.00    +0.004 C 
ATOM     16  C   UNL     1       0.442   0.230  -0.919  0.00  0.00    -0.002 C 
ENDBRANCH  14  16
ENDBRANCH  13  14
ENDBRANCH   7  13
ENDBRANCH   1  10
BRANCH   1  17
ATOM     17  C   UNL     1       3.944  -5.945  -3.426  0.00  0.00    +0.237 C 
ATOM     18  O   UNL     1       3.575  -7.075  -3.190  0.00  0.00    -0.273 OA
ATOM     19  N   UNL     1       4.722  -5.291  -2.541  0.00  0.00    -0.313 N 
ATOM     20  H   UNL     1       5.074  -4.414  -2.759  0.00  0.00    +0.149 HD
BRANCH  19  21
ATOM     21  C   UNL     1       5.036  -5.905  -1.248  0.00  0.00    +0.108 C 
BRANCH  21  22
ATOM     22  C   UNL     1       5.928  -4.962  -0.439  0.00  0.00    -0.034 C 
ATOM     23  C   UNL     1       7.224  -4.701  -1.208  0.00  0.00    +0.010 C 
ATOM     24  C   UNL     1       5.195  -3.638  -0.210  0.00  0.00    +0.010 C 
BRANCH  22  25
ATOM     25  C   UNL     1       6.256  -5.603   0.911  0.00  0.00    -0.072 C 
BRANCH  25  26
ATOM     26  N   UNL     1       7.074  -4.678   1.707  0.00  0.00    +0.376 N 
ATOM     27  C   UNL     1       6.197  -3.761   2.446  0.00  0.00    -0.097 C 
ATOM     28  C   UNL     1       7.895  -5.443   2.655  0.00  0.00    -0.097 C 
ATOM     29  H   UNL     1       7.675  -4.148   1.094  0.00  0.00    -0.083 HD
ENDBRANCH  25  26
ENDBRANCH  22  25
ENDBRANCH  21  22
ENDBRANCH  19  21
ENDBRANCH   1  17
TORSDOF 9
