REMARK  Name = ZINC39687270
REMARK  7 active torsions:
REMARK  status: ('A' for Active; 'I' for Inactive)
REMARK    1  A    between atoms: C_1  and  C_2
REMARK    2  A    between atoms: C_2  and  C_8
REMARK    3  A    between atoms: C_12  and  C_21
REMARK    4  A    between atoms: N_23  and  C_24
REMARK    5  A    between atoms: C_24  and  C_26
REMARK    6  A    between atoms: C_24  and  C_33
REMARK    7  A    between atoms: C_26  and  C_27
REMARK                            x       y       z     vdW  Elec       q    Type
REMARK                         _______ _______ _______ _____ _____    ______ ____
ROOT
ATOM      1  C   UNL     1      -1.282   0.789   0.134  0.00  0.00    +0.222 C 
ATOM      2  O   UNL     1      -1.770   0.394   1.171  0.00  0.00    -0.275 OA
ATOM      3  N   UNL     1      -2.061   0.970  -0.951  0.00  0.00    -0.300 N 
ATOM      4  C   UNL     1      -1.639   1.349  -2.320  0.00  0.00    +0.121 C 
ATOM      5  C   UNL     1      -2.530   0.500  -3.253  0.00  0.00    +0.100 C 
ATOM      6  C   UNL     1      -3.773   0.167  -2.412  0.00  0.00    -0.004 C 
ATOM      7  C   UNL     1      -3.534   0.827  -1.046  0.00  0.00    +0.115 C 
ATOM      8  C   UNL     1      -3.908  -1.344  -2.244  0.00  0.00    -0.010 C 
ATOM      9  C   UNL     1      -5.182  -1.653  -1.453  0.00  0.00    -0.082 C 
ATOM     10  N   UNL     1      -6.346  -1.114  -2.166  0.00  0.00    +0.379 N 
ATOM     11  C   UNL     1      -6.254   0.349  -2.241  0.00  0.00    -0.082 C 
ATOM     12  C   UNL     1      -5.025   0.743  -3.066  0.00  0.00    -0.010 C 
ATOM     13  H   UNL     1      -6.374  -1.497  -3.099  0.00  0.00    -0.086 HD
ATOM     14  H   UNL     1      -7.189  -1.372  -1.674  0.00  0.00    -0.086 HD
ENDROOT
BRANCH   1  16
ATOM     15  C   UNL     1       0.866   0.063  -0.871  0.00  0.00    +0.021 C 
ATOM     16  C   UNL     1       0.195   1.078   0.057  0.00  0.00    +0.044 C 
ATOM     17  C   UNL     1       0.808   0.974   1.455  0.00  0.00    +0.016 C 
ATOM     18  C   UNL     1       0.137   1.989   2.383  0.00  0.00    +0.001 C 
ATOM     19  C   UNL     1       0.353   3.401   1.835  0.00  0.00    +0.000 C 
ATOM     20  C   UNL     1      -0.260   3.505   0.437  0.00  0.00    +0.001 C 
ATOM     21  C   UNL     1       0.411   2.490  -0.491  0.00  0.00    +0.016 C 
ENDBRANCH   1  16
BRANCH   5  22
ATOM     22  C   UNL     1      -2.918   1.295  -4.474  0.00  0.00    +0.219 C 
ATOM     23  O   UNL     1      -3.100   2.491  -4.386  0.00  0.00    -0.275 OA
ATOM     24  N   UNL     1      -3.063   0.676  -5.663  0.00  0.00    -0.303 N 
ATOM     25  H   UNL     1      -2.917  -0.280  -5.733  0.00  0.00    +0.149 HD
BRANCH  24  26
ATOM     26  C   UNL     1      -3.439   1.449  -6.849  0.00  0.00    +0.163 C 
BRANCH  26  27
ATOM     27  C   UNL     1      -4.939   1.588  -6.902  0.00  0.00    +0.236 C 
ATOM     28  O   UNL     1      -5.644   0.763  -6.362  0.00  0.00    -0.274 OA
ATOM     29  N   UNL     1      -5.497   2.630  -7.551  0.00  0.00    -0.300 N 
ATOM     30  C   UNL     1      -4.662   3.576  -8.304  0.00  0.00    +0.108 C 
ATOM     31  C   UNL     1      -5.202   3.680  -9.734  0.00  0.00    +0.019 C 
ATOM     32  C   UNL     1      -6.687   4.049  -9.689  0.00  0.00    +0.003 C 
ATOM     33  C   UNL     1      -7.465   2.953  -8.957  0.00  0.00    +0.019 C 
ATOM     34  C   UNL     1      -6.951   2.837  -7.523  0.00  0.00    +0.108 C 
ENDBRANCH  26  27
BRANCH  26  35
ATOM     35  C   UNL     1      -2.950   0.726  -8.105  0.00  0.00    +0.067 C 
BRANCH  35  36
ATOM     36  C   UNL     1      -1.444   0.671  -8.098  0.00  0.00    -0.045 A 
ATOM     37  C   UNL     1      -0.712   1.693  -8.675  0.00  0.00    +0.004 A 
ATOM     38  C   UNL     1       0.669   1.643  -8.669  0.00  0.00    +0.000 A 
ATOM     39  C   UNL     1       1.319   0.571  -8.085  0.00  0.00    +0.000 A 
ATOM     40  C   UNL     1       0.588  -0.450  -7.507  0.00  0.00    +0.000 A 
ATOM     41  C   UNL     1      -0.793  -0.398  -7.510  0.00  0.00    +0.004 A 
ENDBRANCH  35  36
ENDBRANCH  26  35
ENDBRANCH  24  26
ENDBRANCH   5  22
TORSDOF 6
