REMARK  Name = ZINC00165966
REMARK  3 active torsions:
REMARK  status: ('A' for Active; 'I' for Inactive)
REMARK    1  A    between atoms: C_1  and  C_2
REMARK    2  A    between atoms: N_11  and  S_14
REMARK    3  A    between atoms: S_14  and  C_15
REMARK                            x       y       z     vdW  Elec       q    Type
REMARK                         _______ _______ _______ _____ _____    ______ ____
ROOT
ATOM      1  C   UNL     1      -2.513   0.998   0.020  0.00  0.00    +0.065 C 
ATOM      2  C   UNL     1      -1.218   1.768   0.017  0.00  0.00    +0.041 A 
ATOM      3  C   UNL     1      -0.013   1.076   0.008  0.00  0.00    +0.037 A 
ATOM      4  C   UNL     1       1.169   1.798   0.001  0.00  0.00    +0.055 A 
ATOM      5  C   UNL     1       1.098   3.208   0.008  0.00  0.00    +0.087 A 
ATOM      6  C   UNL     1      -0.148   3.819   0.023  0.00  0.00    +0.142 A 
ATOM      7  N   UNL     1      -1.248   3.085   0.029  0.00  0.00    -0.240 NA
ATOM      8 CL   UNL     1      -0.262   5.551   0.033  0.00  0.00    -0.061 Cl
ATOM      9  C   UNL     1       2.495   3.681  -0.002  0.00  0.00    +0.267 C 
ATOM     10  O   UNL     1       2.849   4.843  -0.000  0.00  0.00    -0.269 OA
ATOM     11  N   UNL     1       3.312   2.612  -0.015  0.00  0.00    -0.175 N 
ATOM     12  C   UNL     1       2.608   1.464  -0.015  0.00  0.00    +0.264 C 
ATOM     13  O   UNL     1       3.077   0.344  -0.024  0.00  0.00    -0.269 OA
ENDROOT
BRANCH  11  14
ATOM     14  S   UNL     1       4.966   2.697  -0.031  0.00  0.00    -0.052 S 
ATOM     15  C   UNL     1       5.421   2.710   1.725  0.00  0.00    +0.107 C 
ENDBRANCH  11  14
TORSDOF 1
