REMARK  Name = ZINC04970579
REMARK  8 active torsions:
REMARK  status: ('A' for Active; 'I' for Inactive)
REMARK    1  A    between atoms: C_4  and  C_7
REMARK    2  A    between atoms: C_8  and  C_9
REMARK    3  A    between atoms: C_8  and  N_48
REMARK    4  A    between atoms: C_9  and  C_10
REMARK    5  A    between atoms: C_13  and  S_16
REMARK    6  A    between atoms: S_16  and  N_19
REMARK    7  A    between atoms: N_20  and  S_21
REMARK    8  A    between atoms: S_21  and  C_24
REMARK                            x       y       z     vdW  Elec       q    Type
REMARK                         _______ _______ _______ _____ _____    ______ ____
ROOT
ATOM      1  C   UNL     1       3.606   2.296  -2.482  0.00  0.00    +0.119 C 
ATOM      2  N   UNL     1       2.691   1.272  -2.374  0.00  0.00    -0.200 N 
ATOM      3  H   UNL     1       1.861   1.412  -1.891  0.00  0.00    +0.175 HD
ATOM      4  N   UNL     1       4.055   2.978  -1.423  0.00  0.00    -0.371 N 
ATOM      5  H   UNL     1       4.661   3.796  -1.557  0.00  0.00    +0.161 HD
ENDROOT
BRANCH   1   9
ATOM      6  C   UNL     1       5.104   3.414  -6.299  0.00  0.00    +0.000 A 
ATOM      7  C   UNL     1       4.505   4.362  -5.489  0.00  0.00    +0.001 A 
ATOM      8  C   UNL     1       4.017   4.005  -4.248  0.00  0.00    +0.011 A 
ATOM      9  C   UNL     1       4.128   2.686  -3.812  0.00  0.00    +0.014 A 
ATOM     10  C   UNL     1       4.738   1.735  -4.631  0.00  0.00    +0.011 A 
ATOM     11  C   UNL     1       5.218   2.103  -5.871  0.00  0.00    +0.001 A 
ENDBRANCH   1   9
BRANCH   2  12
ATOM     12  S   UNL     1       3.006  -0.198  -3.069  0.00  0.00    +0.080 S 
ATOM     13  O   UNL     1       3.119   0.030  -4.467  0.00  0.00    -0.149 OA
ATOM     14  O   UNL     1       2.071  -1.116  -2.519  0.00  0.00    -0.149 OA
BRANCH  12  15
ATOM     15  C   UNL     1       4.599  -0.706  -2.512  0.00  0.00    +0.146 A 
ATOM     16  C   UNL     1       4.925  -1.458  -1.432  0.00  0.00    +0.036 A 
ATOM     17  C   UNL     1       6.257  -1.731  -1.184  0.00  0.00    +0.010 A 
ATOM     18  C   UNL     1       7.197  -1.248  -2.033  0.00  0.00    +0.047 A 
ATOM     19  S   UNL     1       6.200  -0.365  -3.223  0.00  0.00    -0.077 S 
ENDBRANCH  12  15
ENDBRANCH   2  12
BRANCH   4  20
ATOM     20  C   UNL     1       3.672   2.547  -0.034  0.00  0.00    +0.118 C 
BRANCH  20  21
ATOM     21  C   UNL     1       4.926   2.047   0.685  0.00  0.00    +0.056 C 
BRANCH  21  22
ATOM     22  C   UNL     1       4.575   1.661   2.099  0.00  0.00    -0.046 A 
ATOM     23  C   UNL     1       4.655   2.599   3.112  0.00  0.00    +0.005 A 
ATOM     24  C   UNL     1       4.328   2.246   4.408  0.00  0.00    +0.029 A 
ATOM     25  C   UNL     1       3.930   0.953   4.692  0.00  0.00    +0.105 A 
ATOM     26  C   UNL     1       3.855   0.014   3.681  0.00  0.00    +0.029 A 
ATOM     27  C   UNL     1       4.178   0.368   2.384  0.00  0.00    +0.005 A 
BRANCH  25  28
ATOM     28  S   UNL     1       3.518   0.502   6.345  0.00  0.00    +0.056 S 
ATOM     29  O   UNL     1       3.145   1.700   7.012  0.00  0.00    -0.153 OA
ATOM     30  O   UNL     1       2.653  -0.622   6.256  0.00  0.00    -0.153 OA
BRANCH  28  31
ATOM     31  N   UNL     1       4.910  -0.029   7.069  0.00  0.00    -0.204 NA
ATOM     32  H   UNL     1       5.033   0.084   8.025  0.00  0.00    +0.144 HD
ATOM     33  H   UNL     1       5.601  -0.453   6.538  0.00  0.00    +0.144 HD
ENDBRANCH  28  31
ENDBRANCH  25  28
ENDBRANCH  21  22
ENDBRANCH  20  21
ENDBRANCH   4  20
TORSDOF 8
