REMARK  Name = ZINC19320173
REMARK  10 active torsions:
REMARK  status: ('A' for Active; 'I' for Inactive)
REMARK    1  A    between atoms: C_1  and  C_2
REMARK    2  A    between atoms: C_2  and  C_3
REMARK    3  A    between atoms: C_3  and  C_4
REMARK    4  A    between atoms: C_5  and  O_25
REMARK    5  A    between atoms: C_6  and  C_22
REMARK    6  A    between atoms: C_10  and  C_14
REMARK    7  A    between atoms: C_15  and  O_21
REMARK    8  A    between atoms: C_17  and  O_20
REMARK    9  A    between atoms: C_22  and  C_23
REMARK   10  A    between atoms: C_23  and  C_24
REMARK                            x       y       z     vdW  Elec       q    Type
REMARK                         _______ _______ _______ _____ _____    ______ ____
ROOT
ATOM      1  C   UNL     1       0.739  -2.027  -1.265  0.00  0.00    -0.005 C 
ATOM      2  C   UNL     1       1.459  -2.536  -2.521  0.00  0.00    +0.126 C 
ATOM      3  C   UNL     1       1.457  -4.070  -2.491  0.00  0.00    -0.005 C 
ATOM      4  C   UNL     1       2.162  -4.539  -1.214  0.00  0.00    -0.065 C 
ATOM      5  N   UNL     1       1.444  -4.030  -0.041  0.00  0.00    +0.394 N 
ATOM      6  C   UNL     1       1.478  -2.549  -0.028  0.00  0.00    -0.065 C 
ATOM      7  C   UNL     1       0.061  -4.515  -0.041  0.00  0.00    +0.036 C 
ATOM      8  N   UNL     1      -0.642  -4.042  -1.242  0.00  0.00    -0.310 NA
ATOM      9  C   UNL     1       0.004  -4.560  -2.458  0.00  0.00    +0.090 C 
ATOM     10  C   UNL     1      -0.695  -2.572  -1.249  0.00  0.00    +0.090 C 
ATOM     11  H   UNL     1       1.898  -4.370   0.793  0.00  0.00    -0.079 HD
ENDROOT
BRANCH   7  12
ATOM     12  C   UNL     1       0.060  -6.022  -0.023  0.00  0.00    -0.006 A 
ATOM     13  C   UNL     1      -1.025  -6.721  -0.533  0.00  0.00    +0.123 A 
ATOM     14  C   UNL     1      -1.024  -8.107  -0.517  0.00  0.00    +0.091 A 
ATOM     15  C   UNL     1       0.061  -8.792   0.009  0.00  0.00    +0.120 A 
ATOM     16  C   UNL     1       1.143  -8.088   0.518  0.00  0.00    +0.046 A 
ATOM     17  C   UNL     1       1.143  -6.707   0.495  0.00  0.00    +0.010 A 
BRANCH  15  18
ATOM     18  O   UNL     1       0.064 -10.151   0.027  0.00  0.00    -0.507 OA
ATOM     19  H   UNL     1       0.445 -10.553  -0.765  0.00  0.00    +0.292 HD
ENDBRANCH  15  18
BRANCH  13  20
ATOM     20  O   UNL     1      -2.087  -6.047  -1.047  0.00  0.00    -0.506 OA
ATOM     21  H   UNL     1      -2.014  -5.861  -1.993  0.00  0.00    +0.292 HD
ENDBRANCH  13  20
ENDBRANCH   7  12
BRANCH   2  22
ATOM     22  O   UNL     1       2.805  -2.057  -2.531  0.00  0.00    -0.391 OA
ATOM     23  H   UNL     1       3.319  -2.342  -3.299  0.00  0.00    +0.210 HD
ENDBRANCH   2  22
BRANCH   1  24
ATOM     24  C   UNL     1       0.718  -0.497  -1.257  0.00  0.00    +0.008 C 
BRANCH  24  26
ATOM     25  C   UNL     1      -0.019   1.526   0.010  0.00  0.00    +0.004 C 
ATOM     26  C   UNL     1       0.002  -0.004   0.002  0.00  0.00    -0.003 C 
ENDBRANCH  24  26
ENDBRANCH   1  24
BRANCH   3  27
ATOM     27  C   UNL     1       2.167  -4.619  -3.730  0.00  0.00    +0.008 C 
BRANCH  27  28
ATOM     28  C   UNL     1       2.157  -6.149  -3.688  0.00  0.00    -0.003 C 
ATOM     29  C   UNL     1       2.867  -6.698  -4.927  0.00  0.00    +0.004 C 
ENDBRANCH  27  28
ENDBRANCH   3  27
TORSDOF 8
