REMARK  Name = ZINC20729788
REMARK  8 active torsions:
REMARK  status: ('A' for Active; 'I' for Inactive)
REMARK    1  A    between atoms: C_1  and  O_2
REMARK    2  A    between atoms: O_2  and  C_3
REMARK    3  A    between atoms: C_6  and  C_9
REMARK    4  A    between atoms: C_9  and  C_11
REMARK    5  A    between atoms: C_9  and  N_27
REMARK    6  A    between atoms: C_11  and  N_12
REMARK    7  A    between atoms: C_13  and  C_15
REMARK    8  A    between atoms: C_16  and  C_21
REMARK                            x       y       z     vdW  Elec       q    Type
REMARK                         _______ _______ _______ _____ _____    ______ ____
ROOT
ATOM      1  C   UNL     1      -2.238   2.331   2.345  0.00  0.00    +0.094 C 
ENDROOT
BRANCH   1   2
ATOM      2  N   UNL     1      -1.665   3.652   2.075  0.00  0.00    -0.310 N 
ATOM      3  C   UNL     1      -1.942   4.686   2.894  0.00  0.00    +0.280 C 
ATOM      4  O   UNL     1      -2.668   4.522   3.859  0.00  0.00    -0.267 OA
ATOM      5  H   UNL     1      -1.009   3.800   1.205  0.00  0.00    +0.149 HD
BRANCH   3   6
ATOM      6  C   UNL     1      -1.389   5.960   2.635  0.00  0.00    +0.196 C 
ATOM      7  C   UNL     1      -1.608   6.926   3.554  0.00  0.00    +0.062 C 
ATOM      8  S   UNL     1      -0.994   8.564   3.351  0.00  0.00    -0.118 S 
ATOM      9  C   UNL     1       0.220   8.268   2.037  0.00  0.00    +0.115 C 
ATOM     10  C   UNL     1      -0.452   7.406   0.958  0.00  0.00    +0.240 C 
ATOM     11  O   UNL     1      -0.695   6.107   1.489  0.00  0.00    -0.485 OA
BRANCH   7  12
ATOM     12  C   UNL     1      -2.381   6.596   4.769  0.00  0.00    -0.008 A 
ATOM     13  C   UNL     1      -3.625   7.191   4.992  0.00  0.00    +0.009 A 
ATOM     14  C   UNL     1      -4.344   6.875   6.125  0.00  0.00    +0.001 A 
ATOM     15  C   UNL     1      -3.831   5.979   7.046  0.00  0.00    +0.000 A 
ATOM     16  C   UNL     1      -2.597   5.390   6.835  0.00  0.00    +0.001 A 
ATOM     17  C   UNL     1      -1.869   5.692   5.702  0.00  0.00    +0.009 A 
ENDBRANCH   7  12
ENDBRANCH   3   6
ENDBRANCH   1   2
BRANCH   1  18
ATOM     18  C   UNL     1      -1.868   1.374   1.210  0.00  0.00    -0.020 C 
BRANCH  18  19
ATOM     19  N   UNL     1      -2.360   1.913  -0.065  0.00  0.00    +0.385 N 
ATOM     20  C   UNL     1      -3.547   2.753   0.141  0.00  0.00    -0.078 C 
ATOM     21  C   UNL     1      -3.944   3.412  -1.181  0.00  0.00    -0.019 C 
ATOM     22  C   UNL     1      -4.239   2.325  -2.219  0.00  0.00    -0.004 C 
ATOM     23  C   UNL     1      -3.003   1.435  -2.380  0.00  0.00    -0.019 C 
ATOM     24  C   UNL     1      -2.634   0.834  -1.022  0.00  0.00    -0.078 C 
ATOM     25  H   UNL     1      -1.571   2.548  -0.493  0.00  0.00    -0.081 HD
ENDBRANCH  18  19
BRANCH  18  29
ATOM     26  C   UNL     1      -3.653  -2.442   1.926  0.00  0.00    +0.120 A 
ATOM     27  C   UNL     1      -2.280  -2.284   2.045  0.00  0.00    +0.046 A 
ATOM     28  C   UNL     1      -1.706  -1.050   1.812  0.00  0.00    +0.005 A 
ATOM     29  C   UNL     1      -2.498   0.028   1.462  0.00  0.00    -0.059 A 
ATOM     30  C   UNL     1      -3.867  -0.125   1.349  0.00  0.00    +0.005 A 
ATOM     31  C   UNL     1      -4.446  -1.359   1.575  0.00  0.00    +0.046 A 
BRANCH  26  33
ATOM     32  C   UNL     1      -5.640  -3.744   2.015  0.00  0.00    +0.277 C 
ATOM     33  O   UNL     1      -4.221  -3.655   2.155  0.00  0.00    -0.495 OA
ENDBRANCH  26  33
ENDBRANCH  18  29
ENDBRANCH   1  18
TORSDOF 7
