REMARK  Name = ZINC03328701
REMARK  15 active torsions:
REMARK  status: ('A' for Active; 'I' for Inactive)
REMARK    1  A    between atoms: C_1  and  C_2
REMARK    2  A    between atoms: C_2  and  N_62
REMARK    3  A    between atoms: C_3  and  C_4
REMARK    4  A    between atoms: C_3  and  N_62
REMARK    5  A    between atoms: C_4  and  C_6
REMARK    6  A    between atoms: C_4  and  O_23
REMARK    7  A    between atoms: C_6  and  O_7
REMARK    8  A    between atoms: O_7  and  C_8
REMARK    9  A    between atoms: C_8  and  C_9
REMARK   10  A    between atoms: C_8  and  C_16
REMARK   11  A    between atoms: C_24  and  C_25
REMARK   12  A    between atoms: C_24  and  N_62
REMARK   13  A    between atoms: C_25  and  C_27
REMARK   14  A    between atoms: C_25  and  O_34
REMARK   15  A    between atoms: C_31  and  O_33
REMARK                            x       y       z     vdW  Elec       q    Type
REMARK                         _______ _______ _______ _____ _____    ______ ____
ROOT
ATOM      1  C   UNL     1       0.291   9.633  -2.023  0.00  0.00    +0.124 C 
ENDROOT
BRANCH   1   2
ATOM      2  O   UNL     1       1.642   9.586  -1.562  0.00  0.00    -0.391 OA
ATOM      3  H   UNL     1       2.268   9.238  -2.212  0.00  0.00    +0.210 HD
ENDBRANCH   1   2
BRANCH   1   4
ATOM      4  C   UNL     1      -0.173   8.221  -2.387  0.00  0.00    -0.045 C 
BRANCH   4   5
ATOM      5  N   UNL     1      -0.179   7.391  -1.164  0.00  0.00    +0.383 N 
ATOM      6  H   UNL     1       0.734   7.473  -0.702  0.00  0.00    -0.082 HD
BRANCH   5   8
ATOM      7  C   UNL     1      -0.919   7.338   1.165  0.00  0.00    -0.017 C 
ATOM      8  C   UNL     1      -1.230   7.863  -0.238  0.00  0.00    -0.082 C 
ENDBRANCH   5   8
BRANCH   5   9
ATOM      9  C   UNL     1      -0.414   5.975  -1.516  0.00  0.00    -0.042 C 
BRANCH   9  10
ATOM     10  C   UNL     1       0.889   5.380  -2.053  0.00  0.00    +0.128 C 
BRANCH  10  11
ATOM     11  C   UNL     1       0.663   3.942  -2.443  0.00  0.00    -0.017 A 
ATOM     12  C   UNL     1       0.653   2.957  -1.473  0.00  0.00    +0.006 A 
ATOM     13  C   UNL     1       0.439   1.638  -1.827  0.00  0.00    +0.004 A 
ATOM     14  C   UNL     1       0.246   1.299  -3.152  0.00  0.00    +0.045 A 
ATOM     15  C   UNL     1       0.256   2.286  -4.127  0.00  0.00    +0.117 A 
ATOM     16  C   UNL     1       0.465   3.610  -3.769  0.00  0.00    +0.051 A 
BRANCH  15  17
ATOM     17  O   UNL     1       0.060   1.956  -5.431  0.00  0.00    -0.507 OA
ATOM     18  H   UNL     1      -0.867   1.971  -5.706  0.00  0.00    +0.292 HD
ENDBRANCH  15  17
ENDBRANCH  10  11
BRANCH  10  19
ATOM     19  O   UNL     1       1.896   5.447  -1.041  0.00  0.00    -0.389 OA
ATOM     20  H   UNL     1       1.697   4.920  -0.254  0.00  0.00    +0.210 HD
ENDBRANCH  10  19
ENDBRANCH   9  10
ENDBRANCH   5   9
ENDBRANCH   4   5
ENDBRANCH   1   4
BRANCH   1  21
ATOM     21  C   UNL     1       0.204  10.532  -3.258  0.00  0.00    +0.190 C 
BRANCH  21  22
ATOM     22  O   UNL     1       0.526  11.876  -2.892  0.00  0.00    -0.365 OA
BRANCH  22  23
ATOM     23  C   UNL     1       0.474  12.802  -3.979  0.00  0.00    +0.178 C 
BRANCH  23  24
ATOM     24  C   UNL     1      -0.914  13.380  -4.082  0.00  0.00    -0.014 A 
ATOM     25  C   UNL     1      -1.614  13.702  -2.934  0.00  0.00    +0.009 A 
ATOM     26  C   UNL     1      -2.885  14.237  -3.027  0.00  0.00    +0.039 A 
ATOM     27  C   UNL     1      -3.461  14.438  -4.270  0.00  0.00    +0.123 A 
ATOM     28  C   UNL     1      -2.761  14.110  -5.418  0.00  0.00    +0.039 A 
ATOM     29  C   UNL     1      -1.488  13.581  -5.323  0.00  0.00    +0.009 A 
ATOM     30  F   UNL     1      -4.706  14.956  -4.362  0.00  0.00    -0.205 F 
ENDBRANCH  23  24
BRANCH  23  31
ATOM     31  C   UNL     1       1.464  13.913  -3.740  0.00  0.00    -0.014 A 
ATOM     32  C   UNL     1       1.695  14.367  -2.454  0.00  0.00    +0.009 A 
ATOM     33  C   UNL     1       2.606  15.382  -2.233  0.00  0.00    +0.039 A 
ATOM     34  C   UNL     1       3.280  15.952  -3.300  0.00  0.00    +0.123 A 
ATOM     35  C   UNL     1       3.044  15.500  -4.587  0.00  0.00    +0.039 A 
ATOM     36  C   UNL     1       2.136  14.481  -4.806  0.00  0.00    +0.009 A 
ATOM     37  F   UNL     1       4.167  16.948  -3.085  0.00  0.00    -0.205 F 
ENDBRANCH  23  31
ENDBRANCH  22  23
ENDBRANCH  21  22
ENDBRANCH   1  21
TORSDOF 14
