REMARK  Name = ZINC31829223
REMARK  8 active torsions:
REMARK  status: ('A' for Active; 'I' for Inactive)
REMARK    1  A    between atoms: C_1  and  N_2
REMARK    2  A    between atoms: N_2  and  C_3
REMARK    3  A    between atoms: N_2  and  C_4
REMARK    4  A    between atoms: C_7  and  C_10
REMARK    5  A    between atoms: N_11  and  N_12
REMARK    6  A    between atoms: C_15  and  C_26
REMARK    7  A    between atoms: C_16  and  N_18
REMARK    8  A    between atoms: C_19  and  C_21
REMARK                            x       y       z     vdW  Elec       q    Type
REMARK                         _______ _______ _______ _____ _____    ______ ____
ROOT
ATOM      1  N   UNL     1      -5.095  -1.913  -0.643  0.00  0.00    -0.215 N 
ATOM      2  C   UNL     1      -3.731  -1.676  -0.612  0.00  0.00    +0.180 A 
ATOM      3  N   UNL     1      -2.743  -2.432  -1.053  0.00  0.00    -0.222 NA
ATOM      4  C   UNL     1      -1.474  -2.041  -0.946  0.00  0.00    +0.102 A 
ATOM      5  C   UNL     1      -1.196  -0.833  -0.353  0.00  0.00    +0.101 A 
ATOM      6  S   UNL     1      -2.846  -0.265   0.036  0.00  0.00    -0.035 S 
ATOM      7  H   UNL     1      -5.482  -2.844  -1.084  0.00  0.00    +0.176 HD
ENDROOT
BRANCH   4   8
ATOM      8  C   UNL     1      -0.379  -2.898  -1.455  0.00  0.00    +0.003 A 
ATOM      9  C   UNL     1       0.757  -2.320  -2.022  0.00  0.00    +0.011 A 
ATOM     10  C   UNL     1       1.777  -3.124  -2.489  0.00  0.00    +0.020 A 
ATOM     11  C   UNL     1       1.669  -4.502  -2.406  0.00  0.00    +0.041 A 
ATOM     12  C   UNL     1       0.542  -5.081  -1.849  0.00  0.00    +0.020 A 
ATOM     13  C   UNL     1      -0.482  -4.287  -1.374  0.00  0.00    +0.011 A 
ATOM     14 CL   UNL     1       2.953  -5.507  -3.003  0.00  0.00    -0.084 Cl
ENDBRANCH   4   8
BRANCH   5  15
ATOM     15  N   UNL     1       0.033  -0.217  -0.124  0.00  0.00    -0.272 N 
ATOM     16  C   UNL     1       0.082   0.989   0.476  0.00  0.00    +0.284 C 
ATOM     17  O   UNL     1      -0.949   1.542   0.813  0.00  0.00    -0.266 OA
ATOM     18  H   UNL     1       0.964  -0.715  -0.434  0.00  0.00    +0.156 HD
BRANCH  16  19
ATOM     19  C   UNL     1       1.375   1.637   0.717  0.00  0.00    +0.189 A 
ATOM     20  C   UNL     1       1.565   2.851   1.312  0.00  0.00    +0.054 A 
ATOM     21  C   UNL     1       2.951   3.076   1.335  0.00  0.00    +0.042 A 
ATOM     22  C   UNL     1       3.537   2.003   0.760  0.00  0.00    +0.196 A 
ATOM     23  O   UNL     1       2.585   1.135   0.394  0.00  0.00    -0.458 OA
ENDBRANCH  16  19
ENDBRANCH   5  15
BRANCH   1  25
ATOM     24  C   UNL     1      -7.251  -1.240  -0.035  0.00  0.00    +0.138 C 
ATOM     25  N   UNL     1      -5.983  -0.968  -0.114  0.00  0.00    -0.188 NA
BRANCH  24  29
ATOM     26  C   UNL     1      -8.559  -5.279  -0.045  0.00  0.00    +0.029 A 
ATOM     27  C   UNL     1      -7.214  -4.986   0.153  0.00  0.00    +0.024 A 
ATOM     28  C   UNL     1      -6.786  -3.677   0.157  0.00  0.00    +0.011 A 
ATOM     29  C   UNL     1      -7.705  -2.642  -0.039  0.00  0.00    -0.005 A 
ATOM     30  C   UNL     1      -9.057  -2.940  -0.232  0.00  0.00    +0.011 A 
ATOM     31  C   UNL     1      -9.477  -4.252  -0.240  0.00  0.00    +0.024 A 
BRANCH  26  33
ATOM     32  C   UNL     1      -8.025  -7.689   0.158  0.00  0.00    +0.129 C 
ATOM     33  N   UNL     1      -8.989  -6.606  -0.048  0.00  0.00    -0.336 N 
ATOM     34  C   UNL     1     -10.406  -6.917  -0.256  0.00  0.00    +0.129 C 
ENDBRANCH  26  33
ENDBRANCH  24  29
ENDBRANCH   1  25
TORSDOF 6
