REMARK  Name = ZINC36643452
REMARK  11 active torsions:
REMARK  status: ('A' for Active; 'I' for Inactive)
REMARK    1  A    between atoms: C_1  and  C_2
REMARK    2  A    between atoms: C_2  and  O_3
REMARK    3  A    between atoms: O_3  and  C_4
REMARK    4  A    between atoms: N_13  and  C_14
REMARK    5  A    between atoms: C_14  and  C_15
REMARK    6  A    between atoms: C_15  and  C_16
REMARK    7  A    between atoms: C_16  and  N_17
REMARK    8  A    between atoms: N_17  and  C_18
REMARK    9  A    between atoms: N_17  and  C_19
REMARK   10  A    between atoms: C_20  and  C_22
REMARK   11  A    between atoms: C_24  and  C_32
REMARK                            x       y       z     vdW  Elec       q    Type
REMARK                         _______ _______ _______ _____ _____    ______ ____
ROOT
ATOM      1  C   UNL     1       0.690  -1.590   1.314  0.00  0.00    +0.147 A 
ATOM      2  C   UNL     1       0.130  -2.355   0.318  0.00  0.00    +0.048 A 
ATOM      3  C   UNL     1       0.239  -3.738   0.320  0.00  0.00    +0.005 A 
ATOM      4  C   UNL     1       0.925  -4.363   1.345  0.00  0.00    +0.017 A 
ATOM      5  C   UNL     1       1.489  -3.608   2.345  0.00  0.00    +0.044 A 
ATOM      6  C   UNL     1       1.405  -2.199   2.377  0.00  0.00    +0.122 A 
ATOM      7  N   UNL     1       2.015  -1.599   3.423  0.00  0.00    -0.221 NA
ATOM      8  C   UNL     1       2.650  -2.276   4.351  0.00  0.00    +0.168 A 
ATOM      9  S   UNL     1       2.428  -3.965   3.810  0.00  0.00    -0.052 S 
ATOM     10  N   UNL     1       3.316  -1.802   5.469  0.00  0.00    -0.246 N 
ATOM     11  C   UNL     1       3.365  -0.477   5.713  0.00  0.00    +0.253 C 
ATOM     12  O   UNL     1       2.757   0.295   4.999  0.00  0.00    -0.270 OA
ENDROOT
BRANCH  11  13
ATOM     13  C   UNL     1       4.160   0.036   6.849  0.00  0.00    +0.048 A 
ATOM     14  C   UNL     1       3.905  -0.371   8.149  0.00  0.00    +0.042 A 
ATOM     15  C   UNL     1       4.686   0.143   9.199  0.00  0.00    +0.079 A 
ATOM     16  N   UNL     1       5.663   1.006   8.992  0.00  0.00    -0.246 NA
ATOM     17  C   UNL     1       5.975   1.449   7.773  0.00  0.00    +0.072 A 
ATOM     18  C   UNL     1       5.253   0.989   6.644  0.00  0.00    +0.013 A 
ATOM     19  C   UNL     1       5.587   1.453   5.367  0.00  0.00    +0.011 A 
ATOM     20  C   UNL     1       6.612   2.342   5.221  0.00  0.00    +0.001 A 
ATOM     21  C   UNL     1       7.329   2.792   6.326  0.00  0.00    +0.002 A 
ATOM     22  C   UNL     1       7.022   2.370   7.583  0.00  0.00    +0.028 A 
BRANCH  15  23
ATOM     23  C   UNL     1       4.405  -0.297  10.579  0.00  0.00    +0.038 A 
ATOM     24  C   UNL     1       4.961   0.137  11.755  0.00  0.00    +0.017 A 
ATOM     25  C   UNL     1       4.536  -0.428  12.935  0.00  0.00    +0.008 A 
ATOM     26  C   UNL     1       3.581  -1.395  12.901  0.00  0.00    +0.046 A 
ATOM     27  S   UNL     1       3.247  -1.529  11.152  0.00  0.00    -0.095 S 
ENDBRANCH  15  23
ENDBRANCH  11  13
BRANCH   1  28
ATOM     28  O   UNL     1       0.561  -0.238   1.277  0.00  0.00    -0.490 OA
BRANCH  28  30
ATOM     29  C   UNL     1      -0.208   1.839   0.309  0.00  0.00    +0.048 C 
ATOM     30  C   UNL     1      -0.171   0.315   0.181  0.00  0.00    +0.226 C 
ENDBRANCH  28  30
ENDBRANCH   1  28
BRANCH  10  31
ATOM     31  C   UNL     1       3.965  -2.740   6.387  0.00  0.00    +0.114 C 
BRANCH  31  32
ATOM     32  C   UNL     1       5.378  -3.049   5.886  0.00  0.00    +0.001 C 
BRANCH  32  33
ATOM     33  C   UNL     1       6.011  -4.121   6.775  0.00  0.00    -0.078 C 
BRANCH  33  34
ATOM     34  N   UNL     1       7.315  -4.509   6.220  0.00  0.00    +0.376 N 
ATOM     35  C   UNL     1       8.233  -3.364   6.279  0.00  0.00    -0.097 C 
ATOM     36  C   UNL     1       7.869  -5.622   7.003  0.00  0.00    -0.097 C 
ATOM     37  H   UNL     1       7.199  -4.798   5.260  0.00  0.00    -0.083 HD
ENDBRANCH  33  34
ENDBRANCH  32  33
ENDBRANCH  31  32
ENDBRANCH  10  31
TORSDOF 8
