REMARK  Name = ZINC18067084
REMARK  3 active torsions:
REMARK  status: ('A' for Active; 'I' for Inactive)
REMARK    1  A    between atoms: C_4  and  N_7
REMARK    2  A    between atoms: C_8  and  C_27
REMARK    3  A    between atoms: N_17  and  C_20
REMARK                            x       y       z     vdW  Elec       q    Type
REMARK                         _______ _______ _______ _____ _____    ______ ____
ROOT
ATOM      1  N   UNL     1       3.724  -0.640  -0.079  0.00  0.00    -0.244 N 
ATOM      2  C   UNL     1       3.798  -2.131  -0.052  0.00  0.00    +0.157 C 
ATOM      3  C   UNL     1       5.282  -2.408   0.146  0.00  0.00    +0.145 C 
ATOM      4  C   UNL     1       5.825  -1.132  -0.605  0.00  0.00    +0.249 C 
ATOM      5  O   UNL     1       5.078  -0.125  -0.062  0.00  0.00    -0.257 OA
ATOM      6  C   UNL     1       7.207  -1.508  -0.838  0.00  0.00    +0.259 C 
ATOM      7  O   UNL     1       8.175  -0.779  -0.852  0.00  0.00    -0.272 OA
ATOM      8  N   UNL     1       7.183  -2.863  -1.039  0.00  0.00    -0.208 N 
ATOM      9  C   UNL     1       5.988  -3.442  -0.670  0.00  0.00    +0.235 C 
ATOM     10  O   UNL     1       5.586  -4.551  -0.950  0.00  0.00    -0.274 OA
ENDROOT
BRANCH   2  11
ATOM     11  C   UNL     1       3.316  -2.709  -1.357  0.00  0.00    -0.019 A 
ATOM     12  C   UNL     1       2.705  -3.950  -1.379  0.00  0.00    +0.009 A 
ATOM     13  C   UNL     1       2.262  -4.483  -2.575  0.00  0.00    +0.041 A 
ATOM     14  C   UNL     1       2.430  -3.775  -3.752  0.00  0.00    +0.158 A 
ATOM     15  C   UNL     1       3.042  -2.531  -3.731  0.00  0.00    +0.159 A 
ATOM     16  C   UNL     1       3.480  -1.998  -2.531  0.00  0.00    +0.047 A 
ATOM     17  F   UNL     1       3.208  -1.838  -4.879  0.00  0.00    -0.202 F 
ATOM     18  F   UNL     1       1.998  -4.295  -4.922  0.00  0.00    -0.202 F 
ENDBRANCH   2  11
BRANCH   8  19
ATOM     19  C   UNL     1       8.265  -3.591  -1.556  0.00  0.00    +0.044 A 
ATOM     20  C   UNL     1       8.158  -4.963  -1.735  0.00  0.00    +0.027 A 
ATOM     21  C   UNL     1       9.225  -5.678  -2.243  0.00  0.00    +0.040 A 
ATOM     22  C   UNL     1      10.401  -5.027  -2.575  0.00  0.00    +0.124 A 
ATOM     23  C   UNL     1      10.510  -3.658  -2.397  0.00  0.00    +0.040 A 
ATOM     24  C   UNL     1       9.443  -2.939  -1.894  0.00  0.00    +0.027 A 
ATOM     25  F   UNL     1      11.443  -5.728  -3.072  0.00  0.00    -0.205 F 
ENDBRANCH   8  19
BRANCH   1  29
ATOM     26  C   UNL     1       0.240   1.636  -0.199  0.00  0.00    +0.000 A 
ATOM     27  C   UNL     1       1.473   2.262  -0.186  0.00  0.00    +0.002 A 
ATOM     28  C   UNL     1       2.630   1.510  -0.146  0.00  0.00    +0.028 A 
ATOM     29  C   UNL     1       2.555   0.123  -0.119  0.00  0.00    +0.065 A 
ATOM     30  C   UNL     1       1.315  -0.502  -0.132  0.00  0.00    +0.028 A 
ATOM     31  C   UNL     1       0.161   0.256  -0.172  0.00  0.00    +0.002 A 
ENDBRANCH   1  29
TORSDOF 3
