REMARK  Name = ZINC63655784
REMARK  5 active torsions:
REMARK  status: ('A' for Active; 'I' for Inactive)
REMARK    1  A    between atoms: C_8  and  N_11
REMARK    2  A    between atoms: C_14  and  C_17
REMARK    3  A    between atoms: N_19  and  C_20
REMARK    4  A    between atoms: C_20  and  C_21
REMARK    5  A    between atoms: C_21  and  C_22
REMARK                            x       y       z     vdW  Elec       q    Type
REMARK                         _______ _______ _______ _____ _____    ______ ____
ROOT
ATOM      1  C   UNL     1       7.368   2.569  -4.903  0.00  0.00    +0.216 C 
ATOM      2  O   UNL     1       7.395   1.634  -5.675  0.00  0.00    -0.276 OA
ATOM      3  N   UNL     1       8.161   3.639  -5.113  0.00  0.00    -0.315 N 
ATOM      4  H   UNL     1       8.140   4.386  -4.496  0.00  0.00    +0.149 HD
ENDROOT
BRANCH   1   8
ATOM      5  N   UNL     1       5.618   1.260  -1.255  0.00  0.00    -0.276 NA
ATOM      6  C   UNL     1       4.780   1.164  -2.457  0.00  0.00    +0.088 C 
ATOM      7  C   UNL     1       5.666   1.219  -3.704  0.00  0.00    +0.028 C 
ATOM      8  C   UNL     1       6.450   2.535  -3.709  0.00  0.00    +0.077 C 
ATOM      9  C   UNL     1       7.277   2.632  -2.424  0.00  0.00    +0.028 C 
ATOM     10  C   UNL     1       6.345   2.535  -1.214  0.00  0.00    +0.088 C 
BRANCH   5  18
ATOM     11  C   UNL     1      -0.017   1.375   0.010  0.00  0.00    +0.022 A 
ATOM     12  C   UNL     1       1.168   2.087   0.002  0.00  0.00    +0.027 A 
ATOM     13  C   UNL     1       2.392   1.394  -0.013  0.00  0.00    +0.061 A 
ATOM     14  C   UNL     1       2.304  -0.004  -0.020  0.00  0.00    +0.121 A 
ATOM     15  N   UNL     1       1.158  -0.647  -0.013  0.00  0.00    -0.247 NA
ATOM     16  C   UNL     1       0.002  -0.004   0.002  0.00  0.00    +0.112 A 
ATOM     17  S   UNL     1       3.991  -0.570  -0.039  0.00  0.00    -0.066 S 
ATOM     18  C   UNL     1       4.817   1.071  -0.038  0.00  0.00    +0.208 C 
ATOM     19  N   UNL     1       3.658   1.974  -0.022  0.00  0.00    -0.318 N 
ATOM     20  H   UNL     1       3.771   2.937  -0.018  0.00  0.00    +0.148 HD
ENDBRANCH   5  18
ENDBRANCH   1   8
BRANCH   3  21
ATOM     21  C   UNL     1       9.054   3.672  -6.274  0.00  0.00    +0.108 C 
BRANCH  21  22
ATOM     22  C   UNL     1       9.836   4.987  -6.278  0.00  0.00    +0.052 C 
BRANCH  22  23
ATOM     23  C   UNL     1      10.755   5.021  -7.472  0.00  0.00    -0.040 C 
ATOM     24  C   UNL     1      10.506   5.590  -8.673  0.00  0.00    +0.000 A 
ATOM     25  C   UNL     1       9.350   6.319  -9.207  0.00  0.00    +0.030 A 
ATOM     26  C   UNL     1       9.395   6.780 -10.479  0.00  0.00    +0.042 A 
ATOM     27  C   UNL     1      10.517   6.579 -11.297  0.00  0.00    +0.022 A 
ATOM     28  C   UNL     1      11.616   5.919 -10.876  0.00  0.00    +0.027 A 
ATOM     29  C   UNL     1      11.677   5.391  -9.557  0.00  0.00    +0.043 A 
ATOM     30  N   UNL     1      12.614   4.725  -8.926  0.00  0.00    -0.380 N 
ATOM     31  C   UNL     1      12.145   4.431  -7.567  0.00  0.00    +0.144 C 
ATOM     32 CL   UNL     1       8.029   7.643 -11.114  0.00  0.00    -0.084 Cl
ATOM     33  H   UNL     1      13.475   4.472  -9.295  0.00  0.00    +0.160 HD
ENDBRANCH  22  23
ENDBRANCH  21  22
ENDBRANCH   3  21
TORSDOF 5
