REMARK  Name = ZINC38960024
REMARK  8 active torsions:
REMARK  status: ('A' for Active; 'I' for Inactive)
REMARK    1  A    between atoms: C_1  and  C_2
REMARK    2  A    between atoms: C_5  and  S_8
REMARK    3  A    between atoms: S_8  and  C_9
REMARK    4  A    between atoms: C_9  and  C_10
REMARK    5  A    between atoms: C_14  and  N_15
REMARK    6  A    between atoms: N_18  and  C_19
REMARK    7  A    between atoms: C_22  and  O_25
REMARK    8  A    between atoms: O_25  and  C_26
REMARK                            x       y       z     vdW  Elec       q    Type
REMARK                         _______ _______ _______ _____ _____    ______ ____
ROOT
ATOM      1  C   UNL     1      -3.881  -3.350   0.980  0.00  0.00    +0.060 A 
ATOM      2  C   UNL     1      -4.664  -3.559  -0.140  0.00  0.00    +0.096 A 
ATOM      3  C   UNL     1      -6.006  -3.897   0.036  0.00  0.00    +0.275 A 
ATOM      4  N   UNL     1      -6.488  -4.008   1.267  0.00  0.00    -0.172 NA
ATOM      5  C   UNL     1      -5.705  -3.799   2.321  0.00  0.00    +0.257 A 
ATOM      6  N   UNL     1      -4.421  -3.481   2.182  0.00  0.00    -0.215 NA
ATOM      7  O   UNL     1      -6.807  -4.110  -1.037  0.00  0.00    -0.266 OA
ENDROOT
BRANCH   5   8
ATOM      8  N   UNL     1      -6.228  -3.919   3.572  0.00  0.00    -0.177 NA
ATOM      9  C   UNL     1      -7.455  -4.370   3.732  0.00  0.00    +0.203 C 
ATOM     10  N   UNL     1      -8.153  -4.853   2.657  0.00  0.00    -0.369 N 
ATOM     11  N   UNL     1      -8.033  -4.357   4.974  0.00  0.00    -0.326 N 
ATOM     12  H   UNL     1      -7.701  -5.387   1.986  0.00  0.00    +0.159 HD
ATOM     13  H   UNL     1      -8.920  -4.728   5.100  0.00  0.00    +0.169 HD
ATOM     14  H   UNL     1      -9.099  -4.659   2.567  0.00  0.00    +0.159 HD
BRANCH  11  15
ATOM     15  C   UNL     1      -7.343  -3.806   6.062  0.00  0.00    +0.042 A 
ATOM     16  C   UNL     1      -6.540  -2.688   5.881  0.00  0.00    +0.029 A 
ATOM     17  C   UNL     1      -5.860  -2.146   6.954  0.00  0.00    +0.047 A 
ATOM     18  C   UNL     1      -5.979  -2.718   8.212  0.00  0.00    +0.120 A 
ATOM     19  C   UNL     1      -6.781  -3.835   8.393  0.00  0.00    +0.047 A 
ATOM     20  C   UNL     1      -7.467  -4.375   7.322  0.00  0.00    +0.029 A 
BRANCH  18  21
ATOM     21  O   UNL     1      -5.309  -2.184   9.267  0.00  0.00    -0.495 OA
ATOM     22  C   UNL     1      -5.478  -2.824  10.534  0.00  0.00    +0.277 C 
ENDBRANCH  18  21
ENDBRANCH  11  15
ENDBRANCH   5   8
BRANCH   1  23
ATOM     23  C   UNL     1      -2.427  -2.983   0.835  0.00  0.00    +0.127 C 
BRANCH  23  24
ATOM     24  S   UNL     1      -1.424  -4.494   0.785  0.00  0.00    -0.120 S 
BRANCH  24  29
ATOM     25  C   UNL     1       1.356   0.171   1.060  0.00  0.00    +0.075 C 
ATOM     26  C   UNL     1       0.972  -1.249   0.731  0.00  0.00    +0.091 C 
ATOM     27  N   UNL     1       0.792  -1.774  -0.434  0.00  0.00    -0.183 NA
ATOM     28  N   UNL     1       0.440  -3.091  -0.628  0.00  0.00    -0.245 N 
ATOM     29  C   UNL     1       0.276  -3.887   0.610  0.00  0.00    +0.210 C 
ATOM     30  S   UNL     1       0.667  -2.596   1.862  0.00  0.00    -0.074 S 
ATOM     31  H   UNL     1       0.308  -3.469  -1.512  0.00  0.00    +0.170 HD
ENDBRANCH  24  29
ENDBRANCH  23  24
ENDBRANCH   1  23
TORSDOF 6
