REMARK  Name = ZINC63564788
REMARK  12 active torsions:
REMARK  status: ('A' for Active; 'I' for Inactive)
REMARK    1  A    between atoms: C_1  and  C_2
REMARK    2  A    between atoms: C_6  and  C_7
REMARK    3  A    between atoms: C_7  and  N_8
REMARK    4  A    between atoms: N_8  and  C_9
REMARK    5  A    between atoms: N_8  and  C_24
REMARK    6  A    between atoms: C_9  and  C_10
REMARK    7  A    between atoms: C_10  and  C_11
REMARK    8  A    between atoms: N_13  and  C_14
REMARK    9  A    between atoms: C_18  and  S_20
REMARK   10  A    between atoms: S_20  and  N_23
REMARK   11  A    between atoms: C_24  and  C_25
REMARK   12  A    between atoms: C_24  and  C_26
REMARK                            x       y       z     vdW  Elec       q    Type
REMARK                         _______ _______ _______ _____ _____    ______ ____
ROOT
ATOM      1  C   UNL     1      -2.432   1.169   6.847  0.00  0.00    +0.215 C 
ATOM      2  O   UNL     1      -1.321   1.575   7.117  0.00  0.00    -0.276 OA
ATOM      3  N   UNL     1      -3.428   1.280   7.749  0.00  0.00    -0.285 N 
ATOM      4  H   UNL     1      -4.299   0.897   7.559  0.00  0.00    +0.155 HD
ENDROOT
BRANCH   3   5
ATOM      5  C   UNL     1      -3.205   1.946   8.959  0.00  0.00    +0.035 A 
ATOM      6  C   UNL     1      -3.839   1.516  10.117  0.00  0.00    +0.023 A 
ATOM      7  C   UNL     1      -3.617   2.175  11.310  0.00  0.00    +0.004 A 
ATOM      8  C   UNL     1      -2.766   3.265  11.351  0.00  0.00    +0.028 A 
ATOM      9  C   UNL     1      -2.134   3.696  10.200  0.00  0.00    +0.107 A 
ATOM     10  C   UNL     1      -2.346   3.036   9.005  0.00  0.00    +0.051 A 
BRANCH   9  11
ATOM     11  S   UNL     1      -1.051   5.085  10.258  0.00  0.00    +0.056 S 
ATOM     12  O   UNL     1      -1.010   5.623   8.943  0.00  0.00    -0.153 OA
ATOM     13  O   UNL     1      -1.441   5.857  11.385  0.00  0.00    -0.153 OA
BRANCH  11  14
ATOM     14  N   UNL     1       0.467   4.508  10.581  0.00  0.00    -0.204 NA
ATOM     15  H   UNL     1       1.246   4.979  10.245  0.00  0.00    +0.144 HD
ATOM     16  H   UNL     1       0.578   3.700  11.106  0.00  0.00    +0.144 HD
ENDBRANCH  11  14
ENDBRANCH   9  11
ENDBRANCH   3   5
BRANCH   1  17
ATOM     17  C   UNL     1      -2.698   0.541   5.503  0.00  0.00    +0.077 C 
BRANCH  17  18
ATOM     18  C   UNL     1      -1.411   0.539   4.677  0.00  0.00    -0.069 C 
BRANCH  18  19
ATOM     19  N   UNL     1      -1.699   0.050   3.322  0.00  0.00    +0.385 N 
ATOM     20  H   UNL     1      -2.456   0.586   2.925  0.00  0.00    -0.081 HD
BRANCH  19  21
ATOM     21  C   UNL     1      -2.082  -1.367   3.384  0.00  0.00    -0.074 C 
ATOM     22  C   UNL     1      -2.560  -1.826   2.006  0.00  0.00    -0.014 C 
ATOM     23  C   UNL     1      -0.874  -2.203   3.810  0.00  0.00    -0.014 C 
ENDBRANCH  19  21
BRANCH  19  24
ATOM     24  C   UNL     1      -0.502   0.198   2.483  0.00  0.00    -0.035 C 
BRANCH  24  30
ATOM     25  C   UNL     1      -2.355   1.915   0.735  0.00  0.00    +0.044 C 
ATOM     26  C   UNL     1      -1.673   0.671   0.228  0.00  0.00    -0.042 A 
ATOM     27  C   UNL     1      -1.858   0.252  -1.076  0.00  0.00    +0.011 A 
ATOM     28  C   UNL     1      -1.230  -0.872  -1.501  0.00  0.00    +0.045 A 
ATOM     29  S   UNL     1      -0.344  -1.376  -0.036  0.00  0.00    -0.103 S 
ATOM     30  C   UNL     1      -0.865  -0.052   1.042  0.00  0.00    -0.024 A 
ENDBRANCH  24  30
ENDBRANCH  19  24
ENDBRANCH  18  19
ENDBRANCH  17  18
ENDBRANCH   1  17
TORSDOF 9
