REMARK  Name = ZINC52094616
REMARK  9 active torsions:
REMARK  status: ('A' for Active; 'I' for Inactive)
REMARK    1  A    between atoms: C_1  and  C_2
REMARK    2  A    between atoms: C_2  and  C_3
REMARK    3  A    between atoms: C_3  and  C_4
REMARK    4  A    between atoms: C_3  and  C_6
REMARK    5  A    between atoms: C_4  and  C_5
REMARK    6  A    between atoms: C_6  and  C_8
REMARK    7  A    between atoms: C_6  and  N_21
REMARK    8  A    between atoms: N_21  and  C_22
REMARK    9  A    between atoms: C_22  and  C_23
REMARK                            x       y       z     vdW  Elec       q    Type
REMARK                         _______ _______ _______ _____ _____    ______ ____
ROOT
ATOM      1  C   UNL     1      -1.096  -2.259  -1.660  0.00  0.00    -0.045 A 
ATOM      2  C   UNL     1      -1.798  -2.665  -0.542  0.00  0.00    +0.031 A 
ATOM      3  C   UNL     1      -3.157  -2.921  -0.635  0.00  0.00    +0.067 A 
ATOM      4  C   UNL     1      -3.812  -2.768  -1.859  0.00  0.00    +0.068 A 
ATOM      5  C   UNL     1      -3.100  -2.360  -2.977  0.00  0.00    +0.043 A 
ATOM      6  C   UNL     1      -1.746  -2.101  -2.873  0.00  0.00    +0.022 A 
ATOM      7 BR   UNL     1      -0.775  -1.536  -4.394  0.00  0.00    -0.050 Br
ATOM      8  N   UNL     1      -5.149  -3.092  -1.644  0.00  0.00    -0.306 N 
ATOM      9  H   UNL     1      -5.851  -3.079  -2.313  0.00  0.00    +0.170 HD
ATOM     10  C   UNL     1      -5.301  -3.427  -0.349  0.00  0.00    +0.325 A 
ATOM     11  O   UNL     1      -6.350  -3.764   0.169  0.00  0.00    -0.247 OA
ATOM     12  N   UNL     1      -4.118  -3.334   0.286  0.00  0.00    -0.306 N 
ATOM     13  H   UNL     1      -3.961  -3.522   1.224  0.00  0.00    +0.170 HD
ENDROOT
BRANCH   1  14
ATOM     14  C   UNL     1       0.381  -1.980  -1.558  0.00  0.00    -0.037 C 
BRANCH  14  15
ATOM     15  N   UNL     1       0.948  -2.746  -0.440  0.00  0.00    +0.384 N 
ATOM     16  H   UNL     1       1.919  -2.498  -0.320  0.00  0.00    -0.085 HD
ATOM     17  H   UNL     1       0.440  -2.534   0.405  0.00  0.00    -0.085 HD
BRANCH  15  18
ATOM     18  C   UNL     1       0.842  -4.183  -0.727  0.00  0.00    -0.085 C 
ATOM     19  C   UNL     1       1.433  -4.981   0.437  0.00  0.00    -0.017 C 
ENDBRANCH  15  18
ENDBRANCH  14  15
BRANCH  14  20
ATOM     20  C   UNL     1       0.603  -0.486  -1.317  0.00  0.00    -0.021 C 
BRANCH  20  22
ATOM     21  C   UNL     1       0.113   1.420   0.222  0.00  0.00    +0.004 C 
ATOM     22  C   UNL     1       0.024  -0.097   0.044  0.00  0.00    -0.001 C 
ENDBRANCH  20  22
BRANCH  20  23
ATOM     23  C   UNL     1       2.103  -0.183  -1.338  0.00  0.00    -0.001 C 
ATOM     24  C   UNL     1       2.657  -0.447  -2.740  0.00  0.00    +0.004 C 
ENDBRANCH  20  23
ENDBRANCH  14  20
ENDBRANCH   1  14
TORSDOF 6
