REMARK  Name = ZINC14927648
REMARK  7 active torsions:
REMARK  status: ('A' for Active; 'I' for Inactive)
REMARK    1  A    between atoms: C_1  and  C_2
REMARK    2  A    between atoms: C_2  and  C_4
REMARK    3  A    between atoms: C_2  and  N_54
REMARK    4  A    between atoms: N_6  and  C_7
REMARK    5  A    between atoms: C_11  and  S_13
REMARK    6  A    between atoms: S_13  and  N_16
REMARK    7  A    between atoms: C_19  and  C_22
REMARK                            x       y       z     vdW  Elec       q    Type
REMARK                         _______ _______ _______ _____ _____    ______ ____
ROOT
ATOM      1  C   UNL     1       1.909  -6.531  -0.463  0.00  0.00    -0.004 C 
ATOM      2  C   UNL     1       3.277  -5.911  -0.173  0.00  0.00    +0.016 C 
ENDROOT
BRANCH   2   8
ATOM      3  C   UNL     1       2.329  -3.888  -1.105  0.00  0.00    -0.077 C 
ATOM      4  C   UNL     1       2.323  -2.362  -0.991  0.00  0.00    -0.009 C 
ATOM      5  C   UNL     1       1.738  -1.959   0.365  0.00  0.00    +0.041 C 
ATOM      6  C   UNL     1       2.564  -2.604   1.482  0.00  0.00    -0.009 C 
ATOM      7  C   UNL     1       2.565  -4.123   1.295  0.00  0.00    -0.077 C 
ATOM      8  N   UNL     1       3.162  -4.447  -0.018  0.00  0.00    +0.387 N 
ATOM      9  H   UNL     1       4.099  -4.031  -0.070  0.00  0.00    -0.081 HD
BRANCH   5  10
ATOM     10  C   UNL     1       1.784  -0.459   0.508  0.00  0.00    +0.082 A 
ATOM     11  N   UNL     1       0.792   0.367   0.686  0.00  0.00    -0.244 NA
ATOM     12  C   UNL     1       0.970   1.700   0.799  0.00  0.00    +0.078 A 
ATOM     13  C   UNL     1       0.006   2.713   0.999  0.00  0.00    +0.029 A 
ATOM     14  C   UNL     1       0.379   4.018   1.086  0.00  0.00    +0.002 A 
ATOM     15  C   UNL     1       1.709   4.404   0.995  0.00  0.00    +0.001 A 
ATOM     16  C   UNL     1       2.683   3.442   0.805  0.00  0.00    +0.017 A 
ATOM     17  C   UNL     1       2.316   2.121   0.710  0.00  0.00    +0.039 A 
ATOM     18  S   UNL     1       3.172   0.584   0.476  0.00  0.00    -0.072 S 
ENDBRANCH   5  10
ENDBRANCH   2   8
BRANCH   2  19
ATOM     19  C   UNL     1       4.213  -6.203  -1.317  0.00  0.00    +0.203 C 
ATOM     20  O   UNL     1       4.511  -5.324  -2.098  0.00  0.00    -0.277 OA
ATOM     21  N   UNL     1       4.720  -7.442  -1.474  0.00  0.00    -0.287 N 
ATOM     22  H   UNL     1       4.423  -8.164  -0.898  0.00  0.00    +0.155 HD
BRANCH  21  23
ATOM     23  C   UNL     1       5.674  -7.688  -2.468  0.00  0.00    +0.035 A 
ATOM     24  C   UNL     1       6.590  -6.702  -2.812  0.00  0.00    +0.023 A 
ATOM     25  C   UNL     1       7.530  -6.947  -3.794  0.00  0.00    +0.004 A 
ATOM     26  C   UNL     1       7.560  -8.172  -4.434  0.00  0.00    +0.028 A 
ATOM     27  C   UNL     1       6.651  -9.156  -4.093  0.00  0.00    +0.107 A 
ATOM     28  C   UNL     1       5.711  -8.919  -3.108  0.00  0.00    +0.051 A 
BRANCH  27  29
ATOM     29  S   UNL     1       6.694 -10.716  -4.911  0.00  0.00    +0.056 S 
ATOM     30  O   UNL     1       5.392 -11.273  -4.793  0.00  0.00    -0.153 OA
ATOM     31  O   UNL     1       7.319 -10.498  -6.168  0.00  0.00    -0.153 OA
BRANCH  29  32
ATOM     32  N   UNL     1       7.707 -11.696  -4.042  0.00  0.00    -0.204 NA
ATOM     33  H   UNL     1       8.142 -11.359  -3.243  0.00  0.00    +0.144 HD
ATOM     34  H   UNL     1       7.867 -12.608  -4.332  0.00  0.00    +0.144 HD
ENDBRANCH  29  32
ENDBRANCH  27  29
ENDBRANCH  21  23
ENDBRANCH   2  19
TORSDOF 6
