REMARK  Name = ZINC20568516
REMARK  11 active torsions:
REMARK  status: ('A' for Active; 'I' for Inactive)
REMARK    1  A    between atoms: C_1  and  C_2
REMARK    2  A    between atoms: C_2  and  C_22
REMARK    3  A    between atoms: N_3  and  N_4
REMARK    4  A    between atoms: C_5  and  C_7
REMARK    5  A    between atoms: C_10  and  C_12
REMARK    6  A    between atoms: C_15  and  C_18
REMARK    7  A    between atoms: C_18  and  C_19
REMARK    8  A    between atoms: C_18  and  C_20
REMARK    9  A    between atoms: C_18  and  C_21
REMARK   10  A    between atoms: C_25  and  N_28
REMARK   11  A    between atoms: C_29  and  C_31
REMARK                            x       y       z     vdW  Elec       q    Type
REMARK                         _______ _______ _______ _____ _____    ______ ____
ROOT
ATOM      1  C   UNL     1      -3.612   1.726  -0.540  0.00  0.00    +0.068 C 
ATOM      2  C   UNL     1      -2.380   0.989  -0.082  0.00  0.00    +0.063 C 
ATOM      3  N   UNL     1      -1.339   1.653   0.320  0.00  0.00    -0.185 NA
ENDROOT
BRANCH   2   4
ATOM      4  C   UNL     1      -2.356  -0.484  -0.090  0.00  0.00    -0.002 A 
ATOM      5  C   UNL     1      -3.000  -1.190  -1.110  0.00  0.00    +0.011 A 
ATOM      6  C   UNL     1      -2.971  -2.567  -1.117  0.00  0.00    +0.024 A 
ATOM      7  C   UNL     1      -2.313  -3.256  -0.104  0.00  0.00    +0.034 A 
ATOM      8  C   UNL     1      -1.675  -2.557   0.916  0.00  0.00    +0.024 A 
ATOM      9  C   UNL     1      -1.695  -1.180   0.926  0.00  0.00    +0.011 A 
BRANCH   7  10
ATOM     10  N   UNL     1      -2.291  -4.652  -0.111  0.00  0.00    -0.279 N 
ATOM     11  C   UNL     1      -2.380  -5.333   1.049  0.00  0.00    +0.284 C 
ATOM     12  O   UNL     1      -2.564  -4.735   2.093  0.00  0.00    -0.266 OA
ATOM     13  H   UNL     1      -2.201  -5.196  -1.063  0.00  0.00    +0.155 HD
BRANCH  11  14
ATOM     14  C   UNL     1      -2.255  -6.793   1.052  0.00  0.00    +0.191 A 
ATOM     15  C   UNL     1      -2.320  -7.601   2.152  0.00  0.00    +0.056 A 
ATOM     16  C   UNL     1      -2.155  -8.918   1.695  0.00  0.00    +0.058 A 
ATOM     17  C   UNL     1      -1.990  -8.856   0.354  0.00  0.00    +0.171 A 
ATOM     18  O   UNL     1      -2.050  -7.574  -0.029  0.00  0.00    -0.444 OA
ATOM     19 BR   UNL     1      -1.718 -10.336  -0.792  0.00  0.00    -0.008 Br
ENDBRANCH  11  14
ENDBRANCH   7  10
ENDBRANCH   2   4
BRANCH   3  20
ATOM     20  N   UNL     1      -0.149   0.977   0.615  0.00  0.00    -0.206 N 
ATOM     21  C   UNL     1       0.896   1.649   1.137  0.00  0.00    +0.236 C 
ATOM     22  O   UNL     1       0.804   2.839   1.356  0.00  0.00    -0.274 OA
ATOM     23  H   UNL     1      -0.066  -0.103   0.422  0.00  0.00    +0.177 HD
BRANCH  21  24
ATOM     24  C   UNL     1       2.179   0.923   1.450  0.00  0.00    +0.085 C 
ATOM     25  C   UNL     1       2.557   0.759   2.924  0.00  0.00    +0.022 C 
ATOM     26  C   UNL     1       3.329   1.742   2.041  0.00  0.00    +0.032 C 
BRANCH  26  27
ATOM     27  C   UNL     1       4.731   1.364   1.639  0.00  0.00    -0.044 A 
ATOM     28  C   UNL     1       5.213   0.099   1.918  0.00  0.00    +0.004 A 
ATOM     29  C   UNL     1       6.498  -0.249   1.545  0.00  0.00    +0.004 A 
ATOM     30  C   UNL     1       7.304   0.671   0.901  0.00  0.00    -0.042 A 
ATOM     31  C   UNL     1       6.824   1.938   0.627  0.00  0.00    +0.004 A 
ATOM     32  C   UNL     1       5.537   2.285   0.996  0.00  0.00    +0.004 A 
BRANCH  30  33
ATOM     33  C   UNL     1       8.706   0.293   0.498  0.00  0.00    -0.013 C 
ATOM     34  C   UNL     1       9.704   1.224   1.189  0.00  0.00    +0.015 C 
ATOM     35  C   UNL     1       8.984  -1.152   0.915  0.00  0.00    +0.015 C 
ATOM     36  C   UNL     1       8.853   0.424  -1.019  0.00  0.00    +0.015 C 
ENDBRANCH  30  33
ENDBRANCH  26  27
ENDBRANCH  21  24
ENDBRANCH   3  20
TORSDOF 7
