REMARK  Name = ZINC38545960
REMARK  5 active torsions:
REMARK  status: ('A' for Active; 'I' for Inactive)
REMARK    1  A    between atoms: C_3  and  C_6
REMARK    2  A    between atoms: N_8  and  C_9
REMARK    3  A    between atoms: C_10  and  C_18
REMARK    4  A    between atoms: C_18  and  C_20
REMARK    5  A    between atoms: C_18  and  N_27
REMARK                            x       y       z     vdW  Elec       q    Type
REMARK                         _______ _______ _______ _____ _____    ______ ____
ROOT
ATOM      1  C   UNL     1       6.746  -0.741   0.013  0.00  0.00    +0.074 A 
ATOM      2  C   UNL     1       6.983  -2.059   0.250  0.00  0.00    -0.025 A 
ATOM      3  C   UNL     1       8.265  -2.480   0.605  0.00  0.00    -0.033 A 
ATOM      4  C   UNL     1       9.221  -1.516   0.693  0.00  0.00    -0.005 A 
ATOM      5  S   UNL     1       8.360  -0.023   0.277  0.00  0.00    -0.078 S 
ATOM      6  C   UNL     1      10.661  -1.692   1.052  0.00  0.00    +0.043 C 
ATOM      7  C   UNL     1      10.838  -3.086   1.671  0.00  0.00    +0.005 C 
ATOM      8  C   UNL     1      10.130  -4.112   0.781  0.00  0.00    +0.005 C 
ATOM      9  C   UNL     1       8.615  -3.939   0.887  0.00  0.00    +0.036 C 
ENDROOT
BRANCH   1  12
ATOM     10  C   UNL     1       5.489   1.231  -0.411  0.00  0.00    +0.284 C 
ATOM     11  O   UNL     1       6.473   1.899  -0.149  0.00  0.00    -0.266 OA
ATOM     12  N   UNL     1       5.552  -0.114  -0.350  0.00  0.00    -0.273 N 
ATOM     13  H   UNL     1       4.768  -0.646  -0.558  0.00  0.00    +0.156 HD
BRANCH  10  16
ATOM     14  C   UNL     1       2.700   3.419  -1.282  0.00  0.00    +0.042 A 
ATOM     15  C   UNL     1       4.036   3.237  -0.891  0.00  0.00    +0.054 A 
ATOM     16  C   UNL     1       4.236   1.890  -0.791  0.00  0.00    +0.189 A 
ATOM     17  O   UNL     1       3.079   1.272  -1.105  0.00  0.00    -0.458 OA
ATOM     18  C   UNL     1       2.150   2.190  -1.401  0.00  0.00    +0.196 A 
ENDBRANCH  10  16
ENDBRANCH   1  12
BRANCH   2  19
ATOM     19  C   UNL     1       5.865  -3.062   0.132  0.00  0.00    -0.004 C 
BRANCH  19  20
ATOM     20  C   UNL     1       5.584  -3.331  -1.324  0.00  0.00    -0.057 A 
ATOM     21  C   UNL     1       4.550  -2.671  -1.962  0.00  0.00    +0.004 A 
ATOM     22  C   UNL     1       4.293  -2.918  -3.298  0.00  0.00    +0.020 A 
ATOM     23  C   UNL     1       5.069  -3.825  -3.996  0.00  0.00    +0.041 A 
ATOM     24  C   UNL     1       6.104  -4.485  -3.357  0.00  0.00    +0.020 A 
ATOM     25  C   UNL     1       6.364  -4.234  -2.023  0.00  0.00    +0.004 A 
ATOM     26 CL   UNL     1       4.745  -4.136  -5.673  0.00  0.00    -0.084 Cl
ENDBRANCH  19  20
BRANCH  19  27
ATOM     27  N   UNL     1       4.656  -2.525   0.772  0.00  0.00    +0.387 N 
ATOM     28  C   UNL     1       4.972  -2.120   2.147  0.00  0.00    -0.078 C 
ATOM     29  C   UNL     1       3.738  -1.487   2.792  0.00  0.00    -0.019 C 
ATOM     30  C   UNL     1       2.596  -2.507   2.808  0.00  0.00    -0.004 C 
ATOM     31  C   UNL     1       2.325  -2.978   1.376  0.00  0.00    -0.019 C 
ATOM     32  C   UNL     1       3.612  -3.557   0.784  0.00  0.00    -0.078 C 
ATOM     33  H   UNL     1       4.330  -1.723   0.254  0.00  0.00    -0.080 HD
ENDBRANCH  19  27
ENDBRANCH   2  19
TORSDOF 5
