REMARK  Name = ZINC20780982
REMARK  8 active torsions:
REMARK  status: ('A' for Active; 'I' for Inactive)
REMARK    1  A    between atoms: C_3  and  O_30
REMARK    2  A    between atoms: C_6  and  C_7
REMARK    3  A    between atoms: C_7  and  C_8
REMARK    4  A    between atoms: C_8  and  N_9
REMARK    5  A    between atoms: C_10  and  C_12
REMARK    6  A    between atoms: C_12  and  C_13
REMARK    7  A    between atoms: N_20  and  C_21
REMARK    8  A    between atoms: C_21  and  C_22
REMARK                            x       y       z     vdW  Elec       q    Type
REMARK                         _______ _______ _______ _____ _____    ______ ____
ROOT
ATOM      1  C   UNL     1      -4.564   0.237   1.577  0.00  0.00    +0.028 C 
ATOM      2  C   UNL     1      -5.436   0.031   2.783  0.00  0.00    +0.200 C 
ATOM      3  O   UNL     1      -6.465  -0.599   2.656  0.00  0.00    -0.278 OA
ATOM      4  N   UNL     1      -5.126   0.513   3.991  0.00  0.00    -0.318 N 
ATOM      5  C   UNL     1      -3.895   1.253   4.258  0.00  0.00    +0.085 C 
ATOM      6  C   UNL     1      -3.295   1.763   2.946  0.00  0.00    -0.058 C 
ATOM      7  N   UNL     1      -3.216   0.642   1.995  0.00  0.00    +0.391 N 
ATOM      8  H   UNL     1      -5.845   0.332   4.803  0.00  0.00    +0.149 HD
ATOM      9  H   UNL     1      -2.737  -0.211   2.498  0.00  0.00    -0.080 HD
ENDROOT
BRANCH   1  10
ATOM     10  C   UNL     1      -4.479  -1.069   0.783  0.00  0.00    +0.089 C 
BRANCH  10  12
ATOM     11  N   UNL     1      -3.732  -3.394   1.176  0.00  0.00    -0.315 N 
ATOM     12  C   UNL     1      -3.817  -2.127   1.628  0.00  0.00    +0.212 C 
ATOM     13  O   UNL     1      -3.360  -1.839   2.714  0.00  0.00    -0.276 OA
ATOM     14  H   UNL     1      -4.146  -3.656   0.191  0.00  0.00    +0.149 HD
BRANCH  11  15
ATOM     15  C   UNL     1      -3.089  -4.423   1.997  0.00  0.00    +0.109 C 
BRANCH  15  16
ATOM     16  C   UNL     1      -3.126  -5.762   1.258  0.00  0.00    +0.054 C 
BRANCH  16  22
ATOM     17  C   UNL     1      -1.108  -7.057   1.975  0.00  0.00    +0.007 A 
ATOM     18  C   UNL     1      -0.498  -8.023   2.752  0.00  0.00    +0.045 A 
ATOM     19  C   UNL     1      -1.250  -8.763   3.653  0.00  0.00    +0.117 A 
ATOM     20  C   UNL     1      -2.612  -8.528   3.775  0.00  0.00    +0.045 A 
ATOM     21  C   UNL     1      -3.216  -7.557   3.000  0.00  0.00    +0.007 A 
ATOM     22  C   UNL     1      -2.465  -6.821   2.103  0.00  0.00    -0.046 A 
BRANCH  19  23
ATOM     23  O   UNL     1      -0.653  -9.717   4.415  0.00  0.00    -0.507 OA
ATOM     24  H   UNL     1      -1.250 -10.304   5.129  0.00  0.00    +0.292 HD
ENDBRANCH  19  23
ENDBRANCH  16  22
ENDBRANCH  15  16
ENDBRANCH  11  15
ENDBRANCH  10  12
ENDBRANCH   1  10
BRANCH   7  25
ATOM     25  C   UNL     1      -2.388   0.994   0.834  0.00  0.00    -0.042 C 
BRANCH  25  26
ATOM     26  C   UNL     1      -1.047   1.496   1.307  0.00  0.00    -0.061 A 
ATOM     27  C   UNL     1      -0.004   0.609   1.491  0.00  0.00    +0.005 A 
ATOM     28  C   UNL     1       1.228   1.067   1.919  0.00  0.00    +0.041 A 
ATOM     29  C   UNL     1       1.416   2.415   2.170  0.00  0.00    +0.158 A 
ATOM     30  C   UNL     1       0.367   3.305   1.990  0.00  0.00    +0.159 A 
ATOM     31  C   UNL     1      -0.865   2.842   1.561  0.00  0.00    +0.043 A 
ATOM     32  F   UNL     1       0.548   4.621   2.233  0.00  0.00    -0.202 F 
ATOM     33  F   UNL     1       2.619   2.864   2.589  0.00  0.00    -0.202 F 
ENDBRANCH  25  26
ENDBRANCH   7  25
TORSDOF 8
