REMARK  Name = ZINC39567364
REMARK  12 active torsions:
REMARK  status: ('A' for Active; 'I' for Inactive)
REMARK    1  A    between atoms: C_1  and  C_2
REMARK    2  A    between atoms: C_2  and  C_4
REMARK    3  A    between atoms: C_2  and  N_28
REMARK    4  A    between atoms: C_7  and  S_16
REMARK    5  A    between atoms: N_8  and  C_9
REMARK    6  A    between atoms: S_16  and  C_17
REMARK    7  A    between atoms: C_17  and  C_19
REMARK    8  A    between atoms: C_17  and  C_22
REMARK    9  A    between atoms: C_19  and  C_20
REMARK   10  A    between atoms: C_19  and  C_21
REMARK   11  A    between atoms: N_28  and  C_29
REMARK   12  A    between atoms: N_28  and  C_30
REMARK                            x       y       z     vdW  Elec       q    Type
REMARK                         _______ _______ _______ _____ _____    ______ ____
ROOT
ATOM      1  C   UNL     1       0.832  -0.467   1.193  0.00  0.00    +0.125 A 
ATOM      2  N   UNL     1       2.103  -0.363   1.461  0.00  0.00    -0.135 NA
ATOM      3  N   UNL     1       2.362  -0.904   2.597  0.00  0.00    -0.122 NA
ATOM      4  C   UNL     1       1.260  -1.388   3.124  0.00  0.00    +0.197 A 
ATOM      5  N   UNL     1       0.246  -1.118   2.246  0.00  0.00    -0.275 N 
ENDROOT
BRANCH   5   6
ATOM      6  C   UNL     1      -1.110  -1.445   2.392  0.00  0.00    +0.050 A 
ATOM      7  C   UNL     1      -2.060  -0.438   2.502  0.00  0.00    +0.028 A 
ATOM      8  C   UNL     1      -3.395  -0.762   2.646  0.00  0.00    +0.022 A 
ATOM      9  C   UNL     1      -3.786  -2.088   2.680  0.00  0.00    +0.041 A 
ATOM     10  C   UNL     1      -2.842  -3.094   2.571  0.00  0.00    +0.022 A 
ATOM     11  C   UNL     1      -1.506  -2.775   2.422  0.00  0.00    +0.028 A 
ATOM     12 CL   UNL     1      -5.465  -2.492   2.862  0.00  0.00    -0.084 Cl
ENDBRANCH   5   6
BRANCH   1  14
ATOM     13  C   UNL     1      -0.002   1.564   0.040  0.00  0.00    -0.005 C 
ATOM     14  C   UNL     1       0.135   0.042  -0.042  0.00  0.00    -0.003 C 
BRANCH  14  15
ATOM     15  N   UNL     1       0.920  -0.316  -1.230  0.00  0.00    +0.382 N 
ATOM     16  C   UNL     1       1.051  -1.777  -1.309  0.00  0.00    -0.096 C 
ATOM     17  C   UNL     1       0.240   0.180  -2.434  0.00  0.00    -0.096 C 
ATOM     18  H   UNL     1       1.837   0.101  -1.166  0.00  0.00    -0.082 HD
ENDBRANCH  14  15
ENDBRANCH   1  14
BRANCH   4  19
ATOM     19  S   UNL     1       1.115  -2.219   4.670  0.00  0.00    -0.073 S 
BRANCH  19  20
ATOM     20  C   UNL     1       2.826  -2.354   5.258  0.00  0.00    +0.143 C 
BRANCH  20  21
ATOM     21  C   UNL     1       3.360  -0.980   5.570  0.00  0.00    +0.234 C 
ATOM     22  O   UNL     1       2.596  -0.083   5.855  0.00  0.00    -0.274 OA
ATOM     23  N   UNL     1       4.687  -0.749   5.532  0.00  0.00    -0.239 N 
ATOM     24  C   UNL     1       5.165   0.480   5.811  0.00  0.00    +0.303 C 
ATOM     25  O   UNL     1       4.399   1.380   6.097  0.00  0.00    -0.253 OA
ATOM     26  N   UNL     1       6.492   0.712   5.773  0.00  0.00    -0.313 N 
ATOM     27  H   UNL     1       5.298  -1.466   5.304  0.00  0.00    +0.159 HD
ATOM     28  H   UNL     1       7.104  -0.006   5.545  0.00  0.00    +0.146 HD
ATOM     29  H   UNL     1       6.836   1.596   5.974  0.00  0.00    +0.146 HD
ENDBRANCH  20  21
BRANCH  20  30
ATOM     30  C   UNL     1       2.864  -3.216   6.522  0.00  0.00    +0.005 C 
ATOM     31  C   UNL     1       2.328  -4.613   6.204  0.00  0.00    +0.009 C 
ATOM     32  C   UNL     1       4.306  -3.324   7.022  0.00  0.00    +0.009 C 
ENDBRANCH  20  30
ENDBRANCH  19  20
ENDBRANCH   4  19
TORSDOF 7
