REMARK  Name = ZINC18240764
REMARK  3 active torsions:
REMARK  status: ('A' for Active; 'I' for Inactive)
REMARK    1  A    between atoms: C_8  and  C_13
REMARK    2  A    between atoms: C_13  and  C_14
REMARK    3  A    between atoms: C_13  and  C_20
REMARK                            x       y       z     vdW  Elec       q    Type
REMARK                         _______ _______ _______ _____ _____    ______ ____
ROOT
ATOM      1  C   UNL     1       2.677  -4.256  -0.046  0.00  0.00    +0.097 C 
ENDROOT
BRANCH   1   9
ATOM      2  C   UNL     1       4.476   0.907   2.962  0.00  0.00    +0.001 A 
ATOM      3  C   UNL     1       5.727   0.982   2.366  0.00  0.00    +0.002 A 
ATOM      4  C   UNL     1       6.122   0.041   1.440  0.00  0.00    +0.026 A 
ATOM      5  C   UNL     1       5.260  -0.996   1.096  0.00  0.00    +0.053 A 
ATOM      6  C   UNL     1       3.995  -1.072   1.701  0.00  0.00    +0.045 A 
ATOM      7  C   UNL     1       3.609  -0.112   2.636  0.00  0.00    +0.014 A 
ATOM      8  C   UNL     1       3.097  -2.179   1.323  0.00  0.00    +0.197 A 
ATOM      9  C   UNL     1       3.558  -3.107   0.372  0.00  0.00    +0.076 A 
ATOM     10  C   UNL     1       4.798  -2.968  -0.171  0.00  0.00    +0.257 A 
ATOM     11  O   UNL     1       5.215  -3.873  -1.083  0.00  0.00    -0.267 OA
ATOM     12  N   UNL     1       5.631  -1.951   0.172  0.00  0.00    -0.322 N 
ATOM     13  H   UNL     1       6.506  -1.894  -0.243  0.00  0.00    +0.169 HD
ATOM     14  O   UNL     1       1.987  -2.287   1.821  0.00  0.00    -0.287 OA
ENDBRANCH   1   9
BRANCH   1  15
ATOM     15  C   UNL     1       1.772  -3.814  -1.167  0.00  0.00    +0.076 A 
ATOM     16  C   UNL     1       0.975  -4.757  -1.840  0.00  0.00    +0.197 A 
ATOM     17  C   UNL     1       0.105  -4.275  -2.930  0.00  0.00    +0.045 A 
ATOM     18  C   UNL     1      -0.715  -5.149  -3.643  0.00  0.00    +0.014 A 
ATOM     19  C   UNL     1      -1.513  -4.661  -4.654  0.00  0.00    +0.001 A 
ATOM     20  C   UNL     1      -1.504  -3.308  -4.964  0.00  0.00    +0.002 A 
ATOM     21  C   UNL     1      -0.698  -2.433  -4.268  0.00  0.00    +0.026 A 
ATOM     22  C   UNL     1       0.115  -2.906  -3.243  0.00  0.00    +0.053 A 
ATOM     23  N   UNL     1       0.929  -2.051  -2.530  0.00  0.00    -0.322 N 
ATOM     24  H   UNL     1       0.932  -1.106  -2.750  0.00  0.00    +0.169 HD
ATOM     25  C   UNL     1       1.724  -2.501  -1.524  0.00  0.00    +0.257 A 
ATOM     26  O   UNL     1       2.497  -1.615  -0.858  0.00  0.00    -0.267 OA
ATOM     27  O   UNL     1       1.001  -5.938  -1.531  0.00  0.00    -0.287 OA
ENDBRANCH   1  15
BRANCH   1  28
ATOM     28  C   UNL     1       1.842  -4.702   1.127  0.00  0.00    -0.032 A 
ATOM     29  C   UNL     1       0.482  -4.439   1.170  0.00  0.00    +0.024 A 
ATOM     30  C   UNL     1      -0.252  -4.863   2.262  0.00  0.00    +0.111 A 
ATOM     31  N   UNL     1       0.329  -5.511   3.254  0.00  0.00    -0.263 NA
ATOM     32  C   UNL     1       1.620  -5.778   3.246  0.00  0.00    +0.111 A 
ATOM     33  C   UNL     1       2.416  -5.391   2.185  0.00  0.00    +0.024 A 
ENDBRANCH   1  28
TORSDOF 3
