REMARK  Name = ZINC40362251
REMARK  18 active torsions:
REMARK  status: ('A' for Active; 'I' for Inactive)
REMARK    1  A    between atoms: C_1  and  C_2
REMARK    2  A    between atoms: C_9  and  C_20
REMARK    3  A    between atoms: C_10  and  N_11
REMARK    4  A    between atoms: N_11  and  C_12
REMARK    5  A    between atoms: C_12  and  C_13
REMARK    6  A    between atoms: C_12  and  C_14
REMARK    7  A    between atoms: C_12  and  C_15
REMARK    8  A    between atoms: C_15  and  C_16
REMARK    9  A    between atoms: C_16  and  C_17
REMARK   10  A    between atoms: C_16  and  C_18
REMARK   11  A    between atoms: C_16  and  C_19
REMARK   12  A    between atoms: C_23  and  O_26
REMARK   13  A    between atoms: O_26  and  C_27
REMARK   14  A    between atoms: C_27  and  C_29
REMARK   15  A    between atoms: C_31  and  O_37
REMARK   16  A    between atoms: C_33  and  O_35
REMARK   17  A    between atoms: O_35  and  C_36
REMARK   18  A    between atoms: O_37  and  C_38
REMARK                            x       y       z     vdW  Elec       q    Type
REMARK                         _______ _______ _______ _____ _____    ______ ____
ROOT
ATOM      1  C   UNL     1      -0.911   1.278  -4.534  0.00  0.00    +0.044 C 
ATOM      2  C   UNL     1      -0.624  -0.009  -3.804  0.00  0.00    -0.046 A 
ATOM      3  C   UNL     1      -1.154  -1.222  -4.277  0.00  0.00    +0.021 A 
ATOM      4  C   UNL     1      -0.900  -2.376  -3.628  0.00  0.00    +0.094 A 
ATOM      5  N   UNL     1      -0.125  -2.385  -2.500  0.00  0.00    -0.289 N 
ATOM      6  C   UNL     1       0.408  -1.213  -2.013  0.00  0.00    +0.117 A 
ATOM      7  C   UNL     1       0.153  -0.000  -2.688  0.00  0.00    +0.048 A 
ATOM      8  N   UNL     1       1.110  -1.489  -0.926  0.00  0.00    -0.338 N 
ATOM      9  C   UNL     1       1.053  -2.812  -0.685  0.00  0.00    +0.087 A 
ATOM     10  C   UNL     1       0.278  -3.392  -1.667  0.00  0.00    +0.129 A 
ATOM     11  H   UNL     1       1.590  -0.841  -0.388  0.00  0.00    +0.167 HD
ENDROOT
BRANCH   9  12
ATOM     12  C   UNL     1       1.708  -3.521   0.440  0.00  0.00    +0.002 A 
ATOM     13  C   UNL     1       2.368  -4.728   0.214  0.00  0.00    +0.013 A 
ATOM     14  C   UNL     1       2.976  -5.386   1.263  0.00  0.00    +0.047 A 
ATOM     15  C   UNL     1       2.932  -4.846   2.542  0.00  0.00    +0.132 A 
ATOM     16  C   UNL     1       2.275  -3.645   2.769  0.00  0.00    +0.047 A 
ATOM     17  C   UNL     1       1.670  -2.979   1.724  0.00  0.00    +0.013 A 
BRANCH  15  18
ATOM     18  O   UNL     1       3.532  -5.497   3.573  0.00  0.00    -0.422 OA
BRANCH  18  19
ATOM     19  C   UNL     1       4.876  -5.450   3.654  0.00  0.00    +0.345 C 
ATOM     20  O   UNL     1       5.508  -4.765   2.875  0.00  0.00    -0.245 OA
BRANCH  19  21
ATOM     21  C   UNL     1       5.582  -6.232   4.690  0.00  0.00    +0.066 A 
ATOM     22  C   UNL     1       4.858  -7.024   5.583  0.00  0.00    +0.060 A 
ATOM     23  C   UNL     1       5.523  -7.755   6.553  0.00  0.00    +0.124 A 
ATOM     24  C   UNL     1       6.907  -7.701   6.638  0.00  0.00    +0.091 A 
ATOM     25  C   UNL     1       7.630  -6.915   5.753  0.00  0.00    +0.124 A 
ATOM     26  C   UNL     1       6.974  -6.185   4.776  0.00  0.00    +0.060 A 
BRANCH  25  27
ATOM     27  O   UNL     1       8.986  -6.865   5.841  0.00  0.00    -0.495 OA
ATOM     28  C   UNL     1       9.598  -7.648   6.868  0.00  0.00    +0.277 C 
ENDBRANCH  25  27
BRANCH  23  29
ATOM     29  O   UNL     1       4.820  -8.526   7.423  0.00  0.00    -0.495 OA
ATOM     30  C   UNL     1       5.570  -9.254   8.398  0.00  0.00    +0.277 C 
ENDBRANCH  23  29
ENDBRANCH  19  21
ENDBRANCH  18  19
ENDBRANCH  15  18
ENDBRANCH   9  12
BRANCH  10  31
ATOM     31  N   UNL     1      -0.034  -4.747  -1.789  0.00  0.00    -0.323 N 
ATOM     32  H   UNL     1       0.188  -5.362  -1.072  0.00  0.00    +0.148 HD
BRANCH  31  33
ATOM     33  C   UNL     1      -0.696  -5.240  -2.999  0.00  0.00    +0.028 C 
ATOM     34  C   UNL     1      -2.107  -4.654  -3.082  0.00  0.00    +0.031 C 
ATOM     35  C   UNL     1       0.106  -4.814  -4.230  0.00  0.00    +0.031 C 
BRANCH  33  36
ATOM     36  C   UNL     1      -0.780  -6.767  -2.948  0.00  0.00    +0.031 C 
BRANCH  36  37
ATOM     37  C   UNL     1       0.510  -7.329  -2.347  0.00  0.00    -0.036 C 
ATOM     38  C   UNL     1       0.331  -7.515  -0.839  0.00  0.00    +0.010 C 
ATOM     39  C   UNL     1       0.828  -8.678  -2.993  0.00  0.00    +0.010 C 
ATOM     40  C   UNL     1       1.660  -6.354  -2.607  0.00  0.00    +0.010 C 
ENDBRANCH  36  37
ENDBRANCH  33  36
ENDBRANCH  31  33
ENDBRANCH  10  31
TORSDOF 10
