REMARK  Name = ZINC06300652
REMARK  12 active torsions:
REMARK  status: ('A' for Active; 'I' for Inactive)
REMARK    1  A    between atoms: C_1  and  C_2
REMARK    2  A    between atoms: C_5  and  C_8
REMARK    3  A    between atoms: C_8  and  C_10
REMARK    4  A    between atoms: C_8  and  O_16
REMARK    5  A    between atoms: O_16  and  C_17
REMARK    6  A    between atoms: C_17  and  C_18
REMARK    7  A    between atoms: C_18  and  C_20
REMARK    8  A    between atoms: C_18  and  O_31
REMARK    9  A    between atoms: C_20  and  N_21
REMARK   10  A    between atoms: N_21  and  C_22
REMARK   11  A    between atoms: C_22  and  C_24
REMARK   12  A    between atoms: C_22  and  C_25
REMARK                            x       y       z     vdW  Elec       q    Type
REMARK                         _______ _______ _______ _____ _____    ______ ____
ROOT
ATOM      1  C   UNL     1      -1.390  -6.034   0.721  0.00  0.00    +0.190 C 
ENDROOT
BRANCH   1   2
ATOM      2  O   UNL     1      -0.795  -4.768   1.013  0.00  0.00    -0.365 OA
BRANCH   2   3
ATOM      3  C   UNL     1       0.059  -4.275  -0.021  0.00  0.00    +0.178 C 
BRANCH   3   8
ATOM      4  C   UNL     1      -0.018   1.503   0.010  0.00  0.00    +0.044 C 
ATOM      5  C   UNL     1       0.002  -0.004   0.002  0.00  0.00    -0.050 A 
ATOM      6  C   UNL     1       0.006  -0.689  -1.199  0.00  0.00    +0.004 A 
ATOM      7  C   UNL     1       0.025  -2.071  -1.206  0.00  0.00    +0.007 A 
ATOM      8  C   UNL     1       0.040  -2.768  -0.013  0.00  0.00    -0.014 A 
ATOM      9  C   UNL     1       0.037  -2.084   1.188  0.00  0.00    +0.007 A 
ATOM     10  C   UNL     1       0.023  -0.702   1.195  0.00  0.00    +0.004 A 
ENDBRANCH   3   8
BRANCH   3  11
ATOM     11  C   UNL     1       1.466  -4.761   0.215  0.00  0.00    -0.015 A 
ATOM     12  C   UNL     1       1.942  -4.899   1.505  0.00  0.00    +0.006 A 
ATOM     13  C   UNL     1       3.233  -5.345   1.722  0.00  0.00    +0.000 A 
ATOM     14  C   UNL     1       4.047  -5.652   0.648  0.00  0.00    +0.000 A 
ATOM     15  C   UNL     1       3.571  -5.514  -0.642  0.00  0.00    +0.000 A 
ATOM     16  C   UNL     1       2.279  -5.073  -0.859  0.00  0.00    +0.006 A 
ENDBRANCH   3  11
ENDBRANCH   2   3
ENDBRANCH   1   2
BRANCH   1  17
ATOM     17  C   UNL     1      -2.279  -6.462   1.890  0.00  0.00    +0.123 C 
BRANCH  17  18
ATOM     18  O   UNL     1      -3.372  -5.550   2.016  0.00  0.00    -0.391 OA
ATOM     19  H   UNL     1      -3.936  -5.502   1.232  0.00  0.00    +0.210 HD
ENDBRANCH  17  18
BRANCH  17  20
ATOM     20  C   UNL     1      -2.817  -7.871   1.633  0.00  0.00    -0.048 C 
BRANCH  20  21
ATOM     21  N   UNL     1      -3.670  -8.282   2.756  0.00  0.00    +0.385 N 
ATOM     22  H   UNL     1      -3.129  -8.278   3.608  0.00  0.00    -0.085 HD
ATOM     23  H   UNL     1      -4.442  -7.638   2.845  0.00  0.00    -0.085 HD
BRANCH  21  24
ATOM     24  C   UNL     1      -4.187  -9.634   2.510  0.00  0.00    -0.044 C 
ATOM     25  C   UNL     1      -3.025 -10.630   2.499  0.00  0.00    -0.009 C 
BRANCH  24  26
ATOM     26  C   UNL     1      -5.158 -10.008   3.600  0.00  0.00    -0.062 A 
ATOM     27  C   UNL     1      -4.895  -9.655   4.910  0.00  0.00    +0.002 A 
ATOM     28  C   UNL     1      -5.786  -9.997   5.910  0.00  0.00    +0.000 A 
ATOM     29  C   UNL     1      -6.940 -10.692   5.600  0.00  0.00    +0.000 A 
ATOM     30  C   UNL     1      -7.203 -11.044   4.289  0.00  0.00    +0.000 A 
ATOM     31  C   UNL     1      -6.314 -10.698   3.289  0.00  0.00    +0.002 A 
ENDBRANCH  24  26
ENDBRANCH  21  24
ENDBRANCH  20  21
ENDBRANCH  17  20
ENDBRANCH   1  17
TORSDOF 10
