REMARK  Name = ZINC29732202
REMARK  11 active torsions:
REMARK  status: ('A' for Active; 'I' for Inactive)
REMARK    1  A    between atoms: C_1  and  C_2
REMARK    2  A    between atoms: C_2  and  C_28
REMARK    3  A    between atoms: C_4  and  N_10
REMARK    4  A    between atoms: C_6  and  C_8
REMARK    5  A    between atoms: C_6  and  C_9
REMARK    6  A    between atoms: N_13  and  C_14
REMARK    7  A    between atoms: C_14  and  C_16
REMARK    8  A    between atoms: C_14  and  C_21
REMARK    9  A    between atoms: C_16  and  C_17
REMARK   10  A    between atoms: C_17  and  O_19
REMARK   11  A    between atoms: O_19  and  C_20
REMARK                            x       y       z     vdW  Elec       q    Type
REMARK                         _______ _______ _______ _____ _____    ______ ____
ROOT
ATOM      1  N   UNL     1       1.237   3.038  -3.501  0.00  0.00    -0.297 N 
ATOM      2  C   UNL     1       0.779   4.126  -4.152  0.00  0.00    +0.300 C 
ATOM      3  O   UNL     1      -0.034   4.856  -3.618  0.00  0.00    -0.253 OA
ATOM      4  N   UNL     1       1.222   4.405  -5.393  0.00  0.00    -0.292 N 
ATOM      5  H   UNL     1       1.972   2.378  -3.983  0.00  0.00    +0.151 HD
ATOM      6  H   UNL     1       1.958   3.744  -5.876  0.00  0.00    +0.151 HD
ENDROOT
BRANCH   1  10
ATOM      7  C   UNL     1      -2.141   0.479  -1.025  0.00  0.00    -0.010 C 
ATOM      8  C   UNL     1      -1.041   1.551  -0.852  0.00  0.00    -0.072 C 
ATOM      9  C   UNL     1      -0.531   1.913  -2.245  0.00  0.00    +0.009 C 
ATOM     10  C   UNL     1       0.754   2.735  -2.148  0.00  0.00    +0.072 C 
ATOM     11  C   UNL     1       1.805   1.899  -1.415  0.00  0.00    +0.009 C 
ATOM     12  C   UNL     1       1.321   1.577  -0.002  0.00  0.00    -0.072 C 
ATOM     13  N   UNL     1      -0.012   1.005   0.008  0.00  0.00    +0.386 N 
ATOM     14  C   UNL     1       1.397   2.833   0.871  0.00  0.00    -0.010 C 
ATOM     15  C   UNL     1       2.295   0.539   0.598  0.00  0.00    -0.010 C 
ATOM     16  C   UNL     1      -1.703   2.778  -0.214  0.00  0.00    -0.010 C 
ATOM     17  H   UNL     1      -0.328   1.088   1.058  0.00  0.00    -0.084 HD
ATOM     18  H   UNL     1       0.152  -0.054  -0.243  0.00  0.00    -0.084 HD
ENDBRANCH   1  10
BRANCH   4  19
ATOM     19  C   UNL     1       0.725   5.587  -6.101  0.00  0.00    +0.117 C 
BRANCH  19  20
ATOM     20  C   UNL     1      -0.570   5.250  -6.795  0.00  0.00    -0.008 A 
ATOM     21  C   UNL     1      -0.889   3.931  -7.059  0.00  0.00    +0.007 A 
ATOM     22  C   UNL     1      -2.078   3.621  -7.692  0.00  0.00    +0.000 A 
ATOM     23  C   UNL     1      -2.945   4.630  -8.069  0.00  0.00    +0.001 A 
ATOM     24  C   UNL     1      -2.625   5.949  -7.810  0.00  0.00    +0.020 A 
ATOM     25  C   UNL     1      -1.437   6.260  -7.172  0.00  0.00    +0.046 A 
ATOM     26 CL   UNL     1      -1.033   7.917  -6.846  0.00  0.00    -0.083 Cl
ENDBRANCH  19  20
BRANCH  19  27
ATOM     27  C   UNL     1       1.757   6.034  -7.137  0.00  0.00    +0.147 C 
BRANCH  27  28
ATOM     28  C   UNL     1       3.011   6.488  -6.434  0.00  0.00    +0.309 C 
ATOM     29  O   UNL     1       3.071   6.458  -5.228  0.00  0.00    -0.251 OA
BRANCH  28  30
ATOM     30  O   UNL     1       4.059   6.927  -7.148  0.00  0.00    -0.468 OA
ATOM     31  C   UNL     1       5.233   7.348  -6.404  0.00  0.00    +0.280 C 
ENDBRANCH  28  30
ENDBRANCH  27  28
ENDBRANCH  19  27
ENDBRANCH   4  19
TORSDOF 6
