REMARK  Name = ZINC63294895
REMARK  5 active torsions:
REMARK  status: ('A' for Active; 'I' for Inactive)
REMARK    1  A    between atoms: C_7  and  C_10
REMARK    2  A    between atoms: C_10  and  C_11
REMARK    3  A    between atoms: C_14  and  C_18
REMARK    4  A    between atoms: N_20  and  C_21
REMARK    5  A    between atoms: C_21  and  C_22
REMARK                            x       y       z     vdW  Elec       q    Type
REMARK                         _______ _______ _______ _____ _____    ______ ____
ROOT
ATOM      1  C   UNL     1       0.457  -3.653  -1.462  0.00  0.00    +0.154 C 
ATOM      2  N   UNL     1      -0.538  -4.748  -1.487  0.00  0.00    -0.265 NA
ATOM      3  C   UNL     1       0.157  -5.925  -2.055  0.00  0.00    +0.297 C 
ATOM      4  O   UNL     1       1.239  -5.372  -2.837  0.00  0.00    -0.270 OA
ATOM      5  N   UNL     1       1.703  -4.226  -2.022  0.00  0.00    -0.181 NA
ATOM      6  H   UNL     1      -0.883  -4.944  -0.559  0.00  0.00    +0.126 HD
ATOM      7  H   UNL     1       2.323  -4.532  -1.288  0.00  0.00    +0.156 HD
ENDROOT
BRANCH   3   8
ATOM      8  C   UNL     1      -0.780  -6.713  -2.934  0.00  0.00    +0.259 C 
ATOM      9  O   UNL     1      -0.617  -6.727  -4.136  0.00  0.00    -0.271 OA
ATOM     10  N   UNL     1      -1.799  -7.404  -2.384  0.00  0.00    -0.308 N 
ATOM     11  H   UNL     1      -1.929  -7.394  -1.423  0.00  0.00    +0.149 HD
BRANCH  10  12
ATOM     12  C   UNL     1      -2.709  -8.170  -3.239  0.00  0.00    +0.139 C 
BRANCH  12  13
ATOM     13  C   UNL     1      -3.752  -8.844  -2.385  0.00  0.00    -0.030 A 
ATOM     14  C   UNL     1      -3.519 -10.111  -1.882  0.00  0.00    +0.008 A 
ATOM     15  C   UNL     1      -4.474 -10.730  -1.098  0.00  0.00    +0.038 A 
ATOM     16  C   UNL     1      -5.665 -10.081  -0.816  0.00  0.00    +0.123 A 
ATOM     17  C   UNL     1      -5.896  -8.812  -1.320  0.00  0.00    +0.038 A 
ATOM     18  C   UNL     1      -4.938  -8.193  -2.099  0.00  0.00    +0.008 A 
ATOM     19  F   UNL     1      -6.599 -10.685  -0.050  0.00  0.00    -0.205 F 
ENDBRANCH  12  13
ENDBRANCH  10  12
ENDBRANCH   3   8
BRANCH   1  20
ATOM     20  C   UNL     1       0.691  -3.186  -0.024  0.00  0.00    +0.070 C 
BRANCH  20  27
ATOM     21  C   UNL     1      -0.016   1.348   0.009  0.00  0.00    +0.001 A 
ATOM     22  C   UNL     1       1.166   2.101   0.002  0.00  0.00    +0.002 A 
ATOM     23  C   UNL     1       2.391   1.535  -0.013  0.00  0.00    +0.026 A 
ATOM     24  C   UNL     1       2.529   0.120  -0.022  0.00  0.00    +0.043 A 
ATOM     25  N   UNL     1       3.587  -0.654  -0.037  0.00  0.00    -0.380 N 
ATOM     26  C   UNL     1       3.143  -2.053  -0.041  0.00  0.00    +0.144 C 
ATOM     27  C   UNL     1       1.631  -2.008  -0.025  0.00  0.00    -0.039 C 
ATOM     28  C   UNL     1       1.295  -0.698  -0.014  0.00  0.00    -0.001 A 
ATOM     29  C   UNL     1       0.002  -0.004   0.002  0.00  0.00    +0.010 A 
ATOM     30  H   UNL     1       4.509  -0.353  -0.045  0.00  0.00    +0.160 HD
ENDBRANCH  20  27
ENDBRANCH   1  20
TORSDOF 5
