REMARK  Name = ZINC40824965
REMARK  7 active torsions:
REMARK  status: ('A' for Active; 'I' for Inactive)
REMARK    1  A    between atoms: C_1  and  C_2
REMARK    2  A    between atoms: C_6  and  C_7
REMARK    3  A    between atoms: N_9  and  N_10
REMARK    4  A    between atoms: C_11  and  C_13
REMARK    5  A    between atoms: C_13  and  O_14
REMARK    6  A    between atoms: O_14  and  C_15
REMARK    7  A    between atoms: N_27  and  N_28
REMARK                            x       y       z     vdW  Elec       q    Type
REMARK                         _______ _______ _______ _____ _____    ______ ____
ROOT
ATOM      1  C   UNL     1      -0.018   1.503   0.010  0.00  0.00    +0.048 C 
ATOM      2  C   UNL     1       0.002  -0.004   0.002  0.00  0.00    +0.009 A 
ATOM      3  C   UNL     1       0.009  -0.838  -1.123  0.00  0.00    +0.042 A 
ATOM      4  C   UNL     1       0.027  -2.137  -0.673  0.00  0.00    +0.115 A 
ATOM      5  O   UNL     1       0.035  -2.112   0.658  0.00  0.00    -0.454 OA
ATOM      6  C   UNL     1       0.024  -0.830   1.091  0.00  0.00    +0.194 A 
ATOM      7  C   UNL     1       0.033  -3.326  -1.600  0.00  0.00    +0.075 C 
ATOM      8  C   UNL     1      -0.492  -2.902  -2.974  0.00  0.00    +0.014 C 
ATOM      9  C   UNL     1       0.279  -1.685  -3.495  0.00  0.00    +0.058 C 
ATOM     10  C   UNL     1       0.001  -0.512  -2.566  0.00  0.00    +0.072 C 
ATOM     11  N   UNL     1      -0.228   0.686  -3.008  0.00  0.00    -0.175 NA
ENDROOT
BRANCH  11  12
ATOM     12  N   UNL     1      -0.223   0.938  -4.386  0.00  0.00    -0.248 N 
ATOM     13  C   UNL     1      -0.464   2.203  -4.852  0.00  0.00    +0.187 C 
ATOM     14  N   UNL     1      -0.459   2.442  -6.163  0.00  0.00    -0.370 N 
ATOM     15  N   UNL     1      -0.702   3.194  -3.994  0.00  0.00    -0.370 N 
ATOM     16  H   UNL     1      -0.049   0.216  -5.010  0.00  0.00    +0.192 HD
ATOM     17  H   UNL     1      -0.285   1.720  -6.787  0.00  0.00    +0.159 HD
ATOM     18  H   UNL     1      -0.706   3.020  -3.040  0.00  0.00    +0.159 HD
ATOM     19  H   UNL     1      -0.873   4.090  -4.324  0.00  0.00    +0.159 HD
ATOM     20  H   UNL     1      -0.629   3.338  -6.493  0.00  0.00    +0.159 HD
ENDBRANCH  11  12
BRANCH   6  21
ATOM     21  C   UNL     1       0.032  -0.400   2.494  0.00  0.00    +0.296 C 
ATOM     22  O   UNL     1       0.018   0.786   2.766  0.00  0.00    -0.265 OA
ATOM     23  N   UNL     1       0.054  -1.317   3.480  0.00  0.00    -0.228 N 
ATOM     24  H   UNL     1       0.065  -2.263   3.263  0.00  0.00    +0.173 HD
BRANCH  23  25
ATOM     25  N   UNL     1       0.062  -0.906   4.819  0.00  0.00    -0.231 N 
ATOM     26  C   UNL     1       0.084  -1.824   5.806  0.00  0.00    +0.267 C 
ATOM     27  O   UNL     1       0.098  -3.006   5.535  0.00  0.00    -0.271 OA
ATOM     28  H   UNL     1       0.051   0.039   5.037  0.00  0.00    +0.173 HD
BRANCH  26  29
ATOM     29  C   UNL     1       0.092  -1.381   7.247  0.00  0.00    +0.326 C 
BRANCH  29  30
ATOM     30  O   UNL     1       0.116  -2.529   8.098  0.00  0.00    -0.481 OA
BRANCH  30  31
ATOM     31  C   UNL     1       0.126  -2.304   9.438  0.00  0.00    +0.140 A 
ATOM     32  C   UNL     1       0.107  -1.005   9.924  0.00  0.00    +0.048 A 
ATOM     33  C   UNL     1       0.117  -0.778  11.287  0.00  0.00    +0.023 A 
ATOM     34  C   UNL     1       0.147  -1.845  12.167  0.00  0.00    +0.043 A 
ATOM     35  C   UNL     1       0.165  -3.142  11.685  0.00  0.00    +0.043 A 
ATOM     36  C   UNL     1       0.149  -3.373  10.322  0.00  0.00    +0.084 A 
ATOM     37 CL   UNL     1       0.166  -5.001   9.718  0.00  0.00    -0.080 Cl
ATOM     38 CL   UNL     1       0.160  -1.556  13.879  0.00  0.00    -0.083 Cl
ENDBRANCH  30  31
ENDBRANCH  29  30
ENDBRANCH  26  29
ENDBRANCH  23  25
ENDBRANCH   6  21
TORSDOF 6
