REMARK  Name = ZINC09576935
REMARK  8 active torsions:
REMARK  status: ('A' for Active; 'I' for Inactive)
REMARK    1  A    between atoms: C_1  and  C_2
REMARK    2  A    between atoms: C_2  and  C_4
REMARK    3  A    between atoms: C_2  and  N_60
REMARK    4  A    between atoms: N_6  and  C_7
REMARK    5  A    between atoms: C_8  and  C_15
REMARK    6  A    between atoms: N_20  and  S_23
REMARK    7  A    between atoms: S_23  and  C_26
REMARK    8  A    between atoms: C_26  and  C_27
REMARK                            x       y       z     vdW  Elec       q    Type
REMARK                         _______ _______ _______ _____ _____    ______ ____
ROOT
ATOM      1  C   UNL     1      -1.767   4.910  -1.633  0.00  0.00    -0.004 C 
ATOM      2  C   UNL     1      -1.472   3.606  -2.377  0.00  0.00    +0.017 C 
ENDROOT
BRANCH   2   8
ATOM      3  C   UNL     1      -0.489   1.407  -2.135  0.00  0.00    -0.060 C 
ATOM      4  C   UNL     1       0.523   0.594  -1.321  0.00  0.00    +0.090 C 
ATOM      5  N   UNL     1       0.101   0.592   0.088  0.00  0.00    -0.184 NA
ATOM      6  C   UNL     1      -0.209   1.883   0.722  0.00  0.00    +0.090 C 
ATOM      7  C   UNL     1      -1.193   2.645  -0.172  0.00  0.00    -0.060 C 
ATOM      8  N   UNL     1      -0.615   2.750  -1.530  0.00  0.00    +0.389 N 
ATOM      9  H   UNL     1       0.317   3.174  -1.463  0.00  0.00    -0.081 HD
BRANCH   5  10
ATOM     10  S   UNL     1      -0.026  -0.825   0.935  0.00  0.00    +0.036 S 
ATOM     11  O   UNL     1      -0.985  -0.556   1.949  0.00  0.00    -0.158 OA
ATOM     12  O   UNL     1      -0.274  -1.817  -0.052  0.00  0.00    -0.158 OA
BRANCH  10  13
ATOM     13  C   UNL     1       1.611  -1.075   1.675  0.00  0.00    +0.220 C 
BRANCH  13  14
ATOM     14  C   UNL     1       1.611  -2.350   2.478  0.00  0.00    -0.025 A 
ATOM     15  C   UNL     1       1.271  -2.323   3.818  0.00  0.00    +0.005 A 
ATOM     16  C   UNL     1       1.266  -3.493   4.553  0.00  0.00    +0.000 A 
ATOM     17  C   UNL     1       1.610  -4.689   3.952  0.00  0.00    +0.000 A 
ATOM     18  C   UNL     1       1.955  -4.715   2.613  0.00  0.00    +0.000 A 
ATOM     19  C   UNL     1       1.956  -3.546   1.877  0.00  0.00    +0.005 A 
ENDBRANCH  13  14
ENDBRANCH  10  13
ENDBRANCH   5  10
ENDBRANCH   2   8
BRANCH   2  20
ATOM     20  C   UNL     1      -2.768   2.907  -2.698  0.00  0.00    +0.204 C 
ATOM     21  O   UNL     1      -3.231   2.101  -1.919  0.00  0.00    -0.277 OA
ATOM     22  N   UNL     1      -3.412   3.178  -3.851  0.00  0.00    -0.281 N 
ATOM     23  H   UNL     1      -3.042   3.823  -4.473  0.00  0.00    +0.155 HD
BRANCH  22  24
ATOM     24  C   UNL     1      -4.604   2.534  -4.146  0.00  0.00    +0.084 A 
ATOM     25  C   UNL     1      -5.407   2.681  -5.264  0.00  0.00    +0.068 A 
ATOM     26  C   UNL     1      -6.624   1.873  -5.335  0.00  0.00    -0.023 A 
ATOM     27  C   UNL     1      -6.837   1.068  -4.279  0.00  0.00    -0.004 A 
ATOM     28  S   UNL     1      -5.454   1.358  -3.203  0.00  0.00    -0.077 S 
ATOM     29  C   UNL     1      -8.106   0.273  -4.423  0.00  0.00    +0.043 C 
ATOM     30  C   UNL     1      -8.456   0.366  -5.925  0.00  0.00    +0.010 C 
ATOM     31  C   UNL     1      -7.777   1.692  -6.323  0.00  0.00    +0.037 C 
BRANCH  25  32
ATOM     32  C   UNL     1      -5.048   3.610  -6.340  0.00  0.00    +0.244 C 
ATOM     33  O   UNL     1      -4.365   3.228  -7.272  0.00  0.00    -0.270 OA
ATOM     34  N   UNL     1      -5.475   4.888  -6.298  0.00  0.00    -0.325 N 
ATOM     35  H   UNL     1      -6.019   5.193  -5.555  0.00  0.00    +0.145 HD
ATOM     36  H   UNL     1      -5.237   5.503  -7.010  0.00  0.00    +0.145 HD
ENDBRANCH  25  32
ENDBRANCH  22  24
ENDBRANCH   2  20
TORSDOF 7
