REMARK  Name = ZINC09319390
REMARK  7 active torsions:
REMARK  status: ('A' for Active; 'I' for Inactive)
REMARK    1  A    between atoms: C_1  and  C_2
REMARK    2  A    between atoms: C_2  and  C_26
REMARK    3  A    between atoms: N_3  and  N_4
REMARK    4  A    between atoms: C_5  and  C_7
REMARK    5  A    between atoms: C_8  and  C_18
REMARK    6  A    between atoms: C_29  and  O_32
REMARK    7  A    between atoms: O_32  and  C_33
REMARK                            x       y       z     vdW  Elec       q    Type
REMARK                         _______ _______ _______ _____ _____    ______ ____
ROOT
ATOM      1  C   UNL     1      -1.299   1.931   0.019  0.00  0.00    +0.177 A 
ATOM      2  C   UNL     1      -2.561   1.347   0.016  0.00  0.00    +0.109 A 
ATOM      3  N   UNL     1      -3.457   2.378   0.031  0.00  0.00    -0.187 N 
ATOM      4  N   UNL     1      -2.707   3.562   0.034  0.00  0.00    -0.058 NA
ATOM      5  N   UNL     1      -1.456   3.265   0.026  0.00  0.00    -0.124 NA
ATOM      6  C   UNL     1      -4.851   2.273   0.036  0.00  0.00    +0.241 A 
ATOM      7  C   UNL     1      -5.797   3.393   0.046  0.00  0.00    +0.206 A 
ATOM      8  N   UNL     1      -7.008   2.908   0.048  0.00  0.00    -0.032 NA
ATOM      9  O   UNL     1      -6.909   1.495   0.040  0.00  0.00    -0.239 OA
ATOM     10  N   UNL     1      -5.532   1.161   0.027  0.00  0.00    -0.027 NA
ATOM     11  N   UNL     1      -5.460   4.742   0.052  0.00  0.00    -0.337 N 
ATOM     12  H   UNL     1      -4.527   5.009   0.050  0.00  0.00    +0.144 HD
ATOM     13  H   UNL     1      -6.157   5.416   0.058  0.00  0.00    +0.144 HD
ENDROOT
BRANCH   2  14
ATOM     14  C   UNL     1      -2.870  -0.097   0.003  0.00  0.00    +0.004 A 
ATOM     15  C   UNL     1      -3.847  -0.613   0.858  0.00  0.00    +0.011 A 
ATOM     16  C   UNL     1      -4.135  -1.961   0.838  0.00  0.00    +0.022 A 
ATOM     17  C   UNL     1      -3.451  -2.806  -0.020  0.00  0.00    +0.059 A 
ATOM     18  C   UNL     1      -2.477  -2.302  -0.867  0.00  0.00    +0.060 A 
ATOM     19  C   UNL     1      -2.183  -0.953  -0.860  0.00  0.00    +0.031 A 
ATOM     20 CL   UNL     1      -1.624  -3.369  -1.939  0.00  0.00    -0.082 Cl
ATOM     21 CL   UNL     1      -3.815  -4.503  -0.034  0.00  0.00    -0.082 Cl
ENDBRANCH   2  14
BRANCH   1  23
ATOM     22  N   UNL     1       1.143   1.902   0.001  0.00  0.00    -0.201 N 
ATOM     23  C   UNL     1      -0.014   1.213   0.009  0.00  0.00    +0.286 C 
ATOM     24  O   UNL     1       0.002  -0.004   0.002  0.00  0.00    -0.267 OA
ATOM     25  H   UNL     1       1.130   2.872   0.007  0.00  0.00    +0.178 HD
BRANCH  22  28
ATOM     26  C   UNL     1       3.461   3.389  -0.013  0.00  0.00    +0.068 C 
ATOM     27  C   UNL     1       3.481   1.883  -0.021  0.00  0.00    +0.063 C 
ATOM     28  N   UNL     1       2.366   1.218  -0.014  0.00  0.00    -0.184 NA
BRANCH  27  29
ATOM     29  C   UNL     1       4.768   1.163  -0.037  0.00  0.00    -0.002 A 
ATOM     30  C   UNL     1       5.970   1.876  -0.051  0.00  0.00    +0.013 A 
ATOM     31  C   UNL     1       7.170   1.199  -0.059  0.00  0.00    +0.046 A 
ATOM     32  C   UNL     1       7.186  -0.190  -0.067  0.00  0.00    +0.120 A 
ATOM     33  C   UNL     1       5.994  -0.903  -0.060  0.00  0.00    +0.046 A 
ATOM     34  C   UNL     1       4.789  -0.234  -0.045  0.00  0.00    +0.013 A 
BRANCH  32  35
ATOM     35  O   UNL     1       8.372  -0.853  -0.081  0.00  0.00    -0.495 OA
ATOM     36  C   UNL     1       9.559  -0.058  -0.088  0.00  0.00    +0.277 C 
ENDBRANCH  32  35
ENDBRANCH  27  29
ENDBRANCH  22  28
ENDBRANCH   1  23
TORSDOF 5
