REMARK  Name = ZINC63127494
REMARK  8 active torsions:
REMARK  status: ('A' for Active; 'I' for Inactive)
REMARK    1  A    between atoms: C_1  and  C_2
REMARK    2  A    between atoms: C_4  and  C_10
REMARK    3  A    between atoms: C_5  and  N_8
REMARK    4  A    between atoms: N_8  and  C_9
REMARK    5  A    between atoms: N_12  and  C_13
REMARK    6  A    between atoms: C_13  and  C_14
REMARK    7  A    between atoms: C_14  and  C_16
REMARK    8  A    between atoms: C_14  and  C_21
REMARK                            x       y       z     vdW  Elec       q    Type
REMARK                         _______ _______ _______ _____ _____    ______ ____
ROOT
ATOM      1  C   UNL     1      -1.345   2.943  -4.010  0.00  0.00    +0.071 C 
ENDROOT
BRANCH   1   2
ATOM      2  C   UNL     1      -1.769   3.395  -5.383  0.00  0.00    -0.032 C 
ATOM      3  C   UNL     1      -3.035   3.568  -5.828  0.00  0.00    -0.000 A 
ATOM      4  C   UNL     1      -4.346   3.393  -5.190  0.00  0.00    +0.010 A 
ATOM      5  C   UNL     1      -5.463   3.649  -5.907  0.00  0.00    +0.001 A 
ATOM      6  C   UNL     1      -5.402   4.076  -7.241  0.00  0.00    +0.002 A 
ATOM      7  C   UNL     1      -4.235   4.259  -7.895  0.00  0.00    +0.026 A 
ATOM      8  C   UNL     1      -2.997   4.020  -7.237  0.00  0.00    +0.043 A 
ATOM      9  N   UNL     1      -1.756   4.122  -7.648  0.00  0.00    -0.380 N 
ATOM     10  C   UNL     1      -0.866   3.752  -6.542  0.00  0.00    +0.145 C 
ATOM     11  H   UNL     1      -1.474   4.400  -8.533  0.00  0.00    +0.160 HD
ENDBRANCH   1   2
BRANCH   1  12
ATOM     12  C   UNL     1      -0.501   4.013  -3.368  0.00  0.00    -0.002 A 
ATOM     13  C   UNL     1      -0.716   4.695  -2.216  0.00  0.00    +0.012 A 
ATOM     14  C   UNL     1       0.206   5.644  -1.816  0.00  0.00    +0.008 A 
ATOM     15  C   UNL     1       1.298   5.865  -2.587  0.00  0.00    +0.045 A 
ATOM     16  S   UNL     1       1.048   4.707  -3.923  0.00  0.00    -0.101 S 
ENDBRANCH   1  12
BRANCH   1  17
ATOM     17  C   UNL     1      -0.532   1.652  -4.125  0.00  0.00    +0.117 C 
BRANCH  17  20
ATOM     18  C   UNL     1       0.491   0.015  -2.639  0.00  0.00    +0.244 C 
ATOM     19  O   UNL     1       0.956  -0.543  -3.619  0.00  0.00    -0.270 OA
ATOM     20  N   UNL     1      -0.222   1.149  -2.785  0.00  0.00    -0.311 N 
ATOM     21  H   UNL     1      -0.530   1.632  -2.002  0.00  0.00    +0.149 HD
BRANCH  18  24
ATOM     22  C   UNL     1      -1.536  -1.554  -1.326  0.00  0.00    +0.030 C 
ATOM     23  C   UNL     1      -0.083  -1.698  -0.868  0.00  0.00    +0.099 C 
ATOM     24  C   UNL     1       0.699  -0.523  -1.361  0.00  0.00    +0.060 C 
ATOM     25  C   UNL     1       1.636   0.004  -0.497  0.00  0.00    +0.086 C 
ATOM     26  S   UNL     1       1.496  -0.995   0.973  0.00  0.00    -0.028 S 
ATOM     27  N   UNL     1      -0.055  -1.810   0.612  0.00  0.00    -0.251 NA
ATOM     28  H   UNL     1      -0.029  -2.777   0.900  0.00  0.00    +0.136 HD
BRANCH  25  29
ATOM     29  N   UNL     1       2.486   1.059  -0.719  0.00  0.00    -0.340 N 
ATOM     30  C   UNL     1       3.421   1.480   0.328  0.00  0.00    +0.126 C 
ATOM     31  H   UNL     1       2.467   1.526  -1.569  0.00  0.00    +0.146 HD
ENDBRANCH  25  29
ENDBRANCH  18  24
ENDBRANCH  17  20
ENDBRANCH   1  17
TORSDOF 6
