REMARK  Name = ZINC05354306
REMARK  13 active torsions:
REMARK  status: ('A' for Active; 'I' for Inactive)
REMARK    1  A    between atoms: C_1  and  C_2
REMARK    2  A    between atoms: C_2  and  C_4
REMARK    3  A    between atoms: C_2  and  N_55
REMARK    4  A    between atoms: C_4  and  C_5
REMARK    5  A    between atoms: C_5  and  C_6
REMARK    6  A    between atoms: C_12  and  C_13
REMARK    7  A    between atoms: C_12  and  N_55
REMARK    8  A    between atoms: C_15  and  C_16
REMARK    9  A    between atoms: C_15  and  N_55
REMARK   10  A    between atoms: C_16  and  C_18
REMARK   11  A    between atoms: C_16  and  O_28
REMARK   12  A    between atoms: C_21  and  O_27
REMARK   13  A    between atoms: C_22  and  C_24
REMARK                            x       y       z     vdW  Elec       q    Type
REMARK                         _______ _______ _______ _____ _____    ______ ____
ROOT
ATOM      1  C   UNL     1       6.921  -3.570  -0.949  0.00  0.00    -0.041 C 
ENDROOT
BRANCH   1   2
ATOM      2  N   UNL     1       5.500  -3.198  -1.117  0.00  0.00    +0.386 N 
ATOM      3  H   UNL     1       4.996  -3.403  -0.246  0.00  0.00    -0.081 HD
BRANCH   2   5
ATOM      4  C   UNL     1       5.784  -1.466  -2.858  0.00  0.00    -0.013 C 
ATOM      5  C   UNL     1       5.388  -1.753  -1.408  0.00  0.00    -0.071 C 
BRANCH   5   6
ATOM      6  C   UNL     1       3.939  -1.318  -1.180  0.00  0.00    -0.011 C 
BRANCH   6   7
ATOM      7  C   UNL     1       3.560  -1.554   0.284  0.00  0.00    +0.033 C 
BRANCH   7   8
ATOM      8  C   UNL     1       2.133  -1.125   0.509  0.00  0.00    -0.047 A 
ATOM      9  C   UNL     1       1.104  -2.031   0.337  0.00  0.00    +0.003 A 
ATOM     10  C   UNL     1      -0.205  -1.638   0.544  0.00  0.00    +0.000 A 
ATOM     11  C   UNL     1      -0.485  -0.338   0.922  0.00  0.00    +0.000 A 
ATOM     12  C   UNL     1       0.544   0.569   1.094  0.00  0.00    +0.000 A 
ATOM     13  C   UNL     1       1.853   0.175   0.887  0.00  0.00    +0.003 A 
ENDBRANCH   7   8
ENDBRANCH   6   7
ENDBRANCH   5   6
ENDBRANCH   2   5
BRANCH   2  14
ATOM     14  C   UNL     1       4.899  -3.983  -2.216  0.00  0.00    -0.051 C 
BRANCH  14  15
ATOM     15  C   UNL     1       3.401  -3.970  -2.054  0.00  0.00    -0.053 C 
ATOM     16  C   UNL     1       2.637  -3.615  -3.057  0.00  0.00    +0.002 C 
ENDBRANCH  14  15
ENDBRANCH   2  14
ENDBRANCH   1   2
BRANCH   1  17
ATOM     17  C   UNL     1       6.993  -4.946  -0.283  0.00  0.00    +0.128 C 
BRANCH  17  18
ATOM     18  C   UNL     1       8.435  -5.346  -0.112  0.00  0.00    -0.020 A 
ATOM     19  C   UNL     1       9.145  -4.912   0.996  0.00  0.00    +0.010 A 
ATOM     20  C   UNL     1      10.466  -5.277   1.166  0.00  0.00    +0.046 A 
ATOM     21  C   UNL     1      11.095  -6.073   0.221  0.00  0.00    +0.129 A 
ATOM     22  C   UNL     1      10.382  -6.509  -0.904  0.00  0.00    +0.078 A 
ATOM     23  C   UNL     1       9.044  -6.138  -1.061  0.00  0.00    +0.022 A 
BRANCH  22  24
ATOM     24  C   UNL     1      11.040  -7.356  -1.917  0.00  0.00    +0.245 C 
ATOM     25  O   UNL     1      12.204  -7.678  -1.777  0.00  0.00    -0.270 OA
ATOM     26  N   UNL     1      10.351  -7.774  -2.998  0.00  0.00    -0.325 N 
ATOM     27  H   UNL     1       9.423  -7.517  -3.110  0.00  0.00    +0.145 HD
ATOM     28  H   UNL     1      10.784  -8.330  -3.664  0.00  0.00    +0.145 HD
ENDBRANCH  22  24
BRANCH  21  29
ATOM     29  O   UNL     1      12.394  -6.427   0.384  0.00  0.00    -0.506 OA
ATOM     30  H   UNL     1      13.023  -5.807  -0.009  0.00  0.00    +0.292 HD
ENDBRANCH  21  29
ENDBRANCH  17  18
BRANCH  17  31
ATOM     31  O   UNL     1       6.359  -4.889   0.997  0.00  0.00    -0.389 OA
ATOM     32  H   UNL     1       6.761  -4.255   1.607  0.00  0.00    +0.210 HD
ENDBRANCH  17  31
ENDBRANCH   1  17
TORSDOF 12
