REMARK  Name = ZINC39630036
REMARK  7 active torsions:
REMARK  status: ('A' for Active; 'I' for Inactive)
REMARK    1  A    between atoms: C_3  and  C_32
REMARK    2  A    between atoms: C_6  and  C_7
REMARK    3  A    between atoms: C_11  and  C_20
REMARK    4  A    between atoms: N_22  and  C_23
REMARK    5  A    between atoms: C_23  and  C_24
REMARK    6  A    between atoms: C_24  and  C_25
REMARK    7  A    between atoms: C_25  and  N_26
REMARK                            x       y       z     vdW  Elec       q    Type
REMARK                         _______ _______ _______ _____ _____    ______ ____
ROOT
ATOM      1  C   UNL     1      -1.264  -0.763   0.011  0.00  0.00    +0.247 C 
ATOM      2  O   UNL     1      -2.322  -0.177   0.133  0.00  0.00    -0.270 OA
ATOM      3  N   UNL     1      -1.246  -2.106  -0.098  0.00  0.00    -0.296 N 
ATOM      4  C   UNL     1      -0.065  -3.000  -0.125  0.00  0.00    +0.121 C 
ATOM      5  C   UNL     1      -0.487  -4.231   0.708  0.00  0.00    +0.100 C 
ATOM      6  C   UNL     1      -2.023  -4.242   0.641  0.00  0.00    -0.004 C 
ATOM      7  C   UNL     1      -2.405  -3.024  -0.213  0.00  0.00    +0.115 C 
ATOM      8  C   UNL     1      -2.614  -4.103   2.041  0.00  0.00    -0.010 C 
ATOM      9  C   UNL     1      -4.142  -4.174   1.954  0.00  0.00    -0.082 C 
ATOM     10  N   UNL     1      -4.541  -5.454   1.357  0.00  0.00    +0.379 N 
ATOM     11  C   UNL     1      -4.046  -5.539  -0.022  0.00  0.00    -0.082 C 
ATOM     12  C   UNL     1      -2.515  -5.526  -0.019  0.00  0.00    -0.010 C 
ATOM     13  H   UNL     1      -4.154  -6.212   1.899  0.00  0.00    -0.086 HD
ATOM     14  H   UNL     1      -5.547  -5.524   1.357  0.00  0.00    -0.086 HD
ENDROOT
BRANCH   1  20
ATOM     15  C   UNL     1       1.129  -0.539  -0.644  0.00  0.00    +0.014 A 
ATOM     16  C   UNL     1       2.309   0.175  -0.667  0.00  0.00    +0.016 A 
ATOM     17  C   UNL     1       2.380   1.421  -0.071  0.00  0.00    +0.090 A 
ATOM     18  C   UNL     1       1.267   1.961   0.554  0.00  0.00    +0.136 A 
ATOM     19  C   UNL     1       0.079   1.255   0.584  0.00  0.00    +0.052 A 
ATOM     20  C   UNL     1       0.004  -0.002  -0.017  0.00  0.00    +0.040 A 
ATOM     21  F   UNL     1       1.343   3.178   1.134  0.00  0.00    -0.205 F 
BRANCH  17  22
ATOM     22  C   UNL     1       3.673   2.195  -0.102  0.00  0.00    +0.420 C 
ATOM     23  F   UNL     1       4.645   1.453  -0.781  0.00  0.00    -0.166 F 
ATOM     24  F   UNL     1       3.472   3.414  -0.759  0.00  0.00    -0.166 F 
ATOM     25  F   UNL     1       4.102   2.437   1.208  0.00  0.00    -0.166 F 
ENDBRANCH  17  22
ENDBRANCH   1  20
BRANCH   5  26
ATOM     26  C   UNL     1       0.076  -5.491   0.104  0.00  0.00    +0.218 C 
ATOM     27  O   UNL     1       0.346  -5.529  -1.078  0.00  0.00    -0.275 OA
ATOM     28  N   UNL     1       0.279  -6.577   0.877  0.00  0.00    -0.315 N 
ATOM     29  H   UNL     1       0.063  -6.546   1.822  0.00  0.00    +0.149 HD
BRANCH  28  30
ATOM     30  C   UNL     1       0.826  -7.802   0.290  0.00  0.00    +0.106 C 
BRANCH  30  31
ATOM     31  C   UNL     1       0.957  -8.873   1.375  0.00  0.00    +0.040 C 
BRANCH  31  32
ATOM     32  C   UNL     1       1.528 -10.153   0.761  0.00  0.00    +0.124 C 
BRANCH  32  33
ATOM     33  N   UNL     1       1.653 -11.179   1.800  0.00  0.00    -0.338 N 
ATOM     34  C   UNL     1       2.741 -11.394   2.602  0.00  0.00    +0.104 A 
ATOM     35  C   UNL     1       2.432 -12.426   3.410  0.00  0.00    +0.101 A 
ATOM     36  N   UNL     1       1.189 -12.830   3.109  0.00  0.00    -0.352 N 
ATOM     37  C   UNL     1       0.714 -12.084   2.149  0.00  0.00    +0.173 A 
ATOM     38  H   UNL     1       0.716 -13.560   3.539  0.00  0.00    +0.166 HD
ENDBRANCH  32  33
ENDBRANCH  31  32
ENDBRANCH  30  31
ENDBRANCH  28  30
ENDBRANCH   5  26
TORSDOF 7
