REMARK  Name = ZINC38573230
REMARK  10 active torsions:
REMARK  status: ('A' for Active; 'I' for Inactive)
REMARK    1  A    between atoms: C_1  and  C_2
REMARK    2  A    between atoms: C_2  and  O_3
REMARK    3  A    between atoms: O_3  and  C_4
REMARK    4  A    between atoms: C_6  and  C_25
REMARK    5  A    between atoms: C_9  and  O_10
REMARK    6  A    between atoms: O_10  and  C_11
REMARK    7  A    between atoms: C_11  and  C_12
REMARK    8  A    between atoms: N_14  and  C_15
REMARK    9  A    between atoms: C_26  and  C_27
REMARK   10  A    between atoms: C_26  and  C_29
REMARK                            x       y       z     vdW  Elec       q    Type
REMARK                         _______ _______ _______ _____ _____    ______ ____
ROOT
ATOM      1  C   UNL     1      -1.787  -2.090  -0.383  0.00  0.00    +0.162 A 
ATOM      2  C   UNL     1      -0.618  -2.795  -0.175  0.00  0.00    +0.057 A 
ATOM      3  C   UNL     1      -0.627  -4.193  -0.238  0.00  0.00    -0.020 A 
ATOM      4  C   UNL     1      -1.821  -4.869  -0.513  0.00  0.00    +0.012 A 
ATOM      5  C   UNL     1      -2.983  -4.158  -0.719  0.00  0.00    +0.050 A 
ATOM      6  C   UNL     1      -2.974  -2.771  -0.650  0.00  0.00    +0.163 A 
ENDROOT
BRANCH   3   7
ATOM      7  C   UNL     1       0.614  -4.950  -0.018  0.00  0.00    +0.026 C 
ATOM      8  C   UNL     1       0.580  -6.123   0.647  0.00  0.00    +0.072 C 
BRANCH   8   9
ATOM      9  C   UNL     1       1.819  -6.978   0.731  0.00  0.00    +0.216 C 
ATOM     10  N   UNL     1       1.546  -8.315   0.190  0.00  0.00    -0.359 N 
ATOM     11  C   UNL     1       1.746  -9.173   1.149  0.00  0.00    +0.060 A 
ATOM     12  C   UNL     1       1.637 -10.636   1.219  0.00  0.00    +0.027 A 
ATOM     13  C   UNL     1       1.913 -11.269   2.377  0.00  0.00    +0.002 A 
ATOM     14  C   UNL     1       2.307 -10.584   3.540  0.00  0.00    +0.002 A 
ATOM     15  C   UNL     1       2.437  -9.243   3.584  0.00  0.00    +0.027 A 
ATOM     16  C   UNL     1       2.163  -8.447   2.380  0.00  0.00    +0.060 A 
ATOM     17  N   UNL     1       2.204  -7.170   2.135  0.00  0.00    -0.359 N 
ATOM     18  H   UNL     1       1.268  -8.522  -0.716  0.00  0.00    +0.162 HD
ATOM     19  H   UNL     1       2.446  -6.472   2.764  0.00  0.00    +0.162 HD
ENDBRANCH   8   9
BRANCH   8  20
ATOM     20  C   UNL     1      -0.632  -6.557   1.273  0.00  0.00    +0.099 C 
ATOM     21  N   UNL     1      -1.595  -6.901   1.769  0.00  0.00    -0.191 NA
ENDBRANCH   8  20
ENDBRANCH   3   7
BRANCH   1  22
ATOM     22  O   UNL     1      -1.782  -0.732  -0.321  0.00  0.00    -0.489 OA
BRANCH  22  24
ATOM     23  C   UNL     1      -0.722   1.418  -0.013  0.00  0.00    +0.048 C 
ATOM     24  C   UNL     1      -0.531  -0.100  -0.043  0.00  0.00    +0.226 C 
ENDBRANCH  22  24
ENDBRANCH   1  22
BRANCH   6  25
ATOM     25  O   UNL     1      -4.124  -2.075  -0.849  0.00  0.00    -0.479 OA
BRANCH  25  26
ATOM     26  C   UNL     1      -5.304  -2.835  -1.119  0.00  0.00    +0.324 C 
BRANCH  26  27
ATOM     27  C   UNL     1      -6.470  -1.901  -1.310  0.00  0.00    +0.251 C 
ATOM     28  O   UNL     1      -6.308  -0.702  -1.225  0.00  0.00    -0.272 OA
ATOM     29  N   UNL     1      -7.695  -2.397  -1.577  0.00  0.00    -0.307 N 
ATOM     30  H   UNL     1      -7.825  -3.356  -1.646  0.00  0.00    +0.149 HD
BRANCH  29  31
ATOM     31  C   UNL     1      -8.829  -1.489  -1.764  0.00  0.00    +0.035 C 
ATOM     32  C   UNL     1      -9.034  -0.662  -0.493  0.00  0.00    +0.029 C 
ATOM     33  C   UNL     1     -10.219   0.287  -0.688  0.00  0.00    -0.008 C 
ATOM     34  C   UNL     1     -11.482  -0.527  -0.976  0.00  0.00    +0.007 C 
ATOM     35  C   UNL     1     -11.276  -1.354  -2.247  0.00  0.00    -0.008 C 
ATOM     36  C   UNL     1     -10.092  -2.303  -2.052  0.00  0.00    +0.029 C 
ATOM     37  C   UNL     1     -10.992  -0.419  -3.424  0.00  0.00    +0.007 C 
ATOM     38  C   UNL     1      -9.729   0.395  -3.135  0.00  0.00    -0.008 C 
ATOM     39  C   UNL     1      -9.935   1.222  -1.864  0.00  0.00    +0.007 C 
ATOM     40  C   UNL     1      -8.545  -0.553  -2.940  0.00  0.00    +0.029 C 
ENDBRANCH  29  31
ENDBRANCH  26  27
ENDBRANCH  25  26
ENDBRANCH   6  25
TORSDOF 9
