REMARK  Name = ZINC06250970
REMARK  7 active torsions:
REMARK  status: ('A' for Active; 'I' for Inactive)
REMARK    1  A    between atoms: C_1  and  C_2
REMARK    2  A    between atoms: C_16  and  C_18
REMARK    3  A    between atoms: C_23  and  N_24
REMARK    4  A    between atoms: N_24  and  S_25
REMARK    5  A    between atoms: S_25  and  C_28
REMARK    6  A    between atoms: C_33  and  C_34
REMARK    7  A    between atoms: C_36  and  N_63
REMARK                            x       y       z     vdW  Elec       q    Type
REMARK                         _______ _______ _______ _____ _____    ______ ____
ROOT
ATOM      1  C   UNL     1       4.018  -0.328  -0.399  0.00  0.00    +0.060 A 
ATOM      2  C   UNL     1       4.927   0.729  -0.306  0.00  0.00    +0.015 A 
ATOM      3  C   UNL     1       6.278   0.469  -0.234  0.00  0.00    +0.001 A 
ATOM      4  C   UNL     1       6.743  -0.837  -0.264  0.00  0.00    +0.002 A 
ATOM      5  C   UNL     1       5.858  -1.891  -0.361  0.00  0.00    +0.025 A 
ATOM      6  C   UNL     1       4.492  -1.649  -0.429  0.00  0.00    +0.060 A 
ENDROOT
BRANCH   1  20
ATOM      7  C   UNL     1      -3.092   3.100  -1.980  0.00  0.00    +0.044 C 
ATOM      8  C   UNL     1      -1.731   2.512  -1.711  0.00  0.00    -0.050 A 
ATOM      9  C   UNL     1      -1.612   1.351  -0.969  0.00  0.00    +0.005 A 
ATOM     10  C   UNL     1      -0.368   0.815  -0.711  0.00  0.00    +0.024 A 
ATOM     11  C   UNL     1       0.780   1.435  -1.205  0.00  0.00    +0.040 A 
ATOM     12  C   UNL     1       0.647   2.590  -1.962  0.00  0.00    -0.023 A 
ATOM     13  C   UNL     1      -0.599   3.128  -2.210  0.00  0.00    +0.009 A 
ATOM     14  C   UNL     1       2.034   3.043  -2.392  0.00  0.00    +0.025 C 
ATOM     15  C   UNL     1       2.103   2.974  -3.906  0.00  0.00    -0.069 C 
ATOM     16  C   UNL     1       3.923   1.411  -3.876  0.00  0.00    -0.077 C 
ATOM     17  C   UNL     1       4.154   1.576  -2.395  0.00  0.00    +0.005 C 
ATOM     18  C   UNL     1       2.963   2.105  -1.655  0.00  0.00    +0.086 C 
ATOM     19  N   UNL     1       2.124   1.069  -1.061  0.00  0.00    -0.264 N 
ATOM     20  C   UNL     1       2.571  -0.058  -0.471  0.00  0.00    +0.253 C 
ATOM     21  O   UNL     1       1.779  -0.851   0.002  0.00  0.00    -0.270 OA
ATOM     22  C   UNL     1       3.487   2.722  -5.868  0.00  0.00    -0.096 C 
ATOM     23  N   UNL     1       3.463   2.716  -4.386  0.00  0.00    +0.378 N 
ATOM     24  H   UNL     1       4.088   3.453  -4.039  0.00  0.00    -0.082 HD
ENDBRANCH   1  20
BRANCH   6  25
ATOM     25  N   UNL     1       3.599  -2.709  -0.528  0.00  0.00    -0.216 N 
ATOM     26  H   UNL     1       2.763  -2.596  -1.007  0.00  0.00    +0.174 HD
BRANCH  25  27
ATOM     27  S   UNL     1       3.962  -4.165   0.173  0.00  0.00    +0.073 S 
ATOM     28  O   UNL     1       2.811  -4.984   0.026  0.00  0.00    -0.150 OA
ATOM     29  O   UNL     1       5.238  -4.547  -0.322  0.00  0.00    -0.150 OA
BRANCH  27  30
ATOM     30  C   UNL     1       4.158  -3.877   1.901  0.00  0.00    +0.112 A 
ATOM     31  C   UNL     1       5.394  -4.053   2.495  0.00  0.00    +0.032 A 
ATOM     32  C   UNL     1       5.549  -3.823   3.848  0.00  0.00    +0.040 A 
ATOM     33  C   UNL     1       4.464  -3.426   4.612  0.00  0.00    +0.124 A 
ATOM     34  C   UNL     1       3.226  -3.255   4.017  0.00  0.00    +0.043 A 
ATOM     35  C   UNL     1       3.074  -3.480   2.662  0.00  0.00    -0.021 A 
ATOM     36  C   UNL     1       1.726  -3.295   2.014  0.00  0.00    +0.046 C 
ATOM     37  F   UNL     1       4.614  -3.205   5.936  0.00  0.00    -0.205 F 
ENDBRANCH  27  30
ENDBRANCH  25  27
ENDBRANCH   6  25
TORSDOF 4
