REMARK  Name = ZINC43091889
REMARK  8 active torsions:
REMARK  status: ('A' for Active; 'I' for Inactive)
REMARK    1  A    between atoms: C_1  and  C_2
REMARK    2  A    between atoms: C_2  and  C_4
REMARK    3  A    between atoms: C_2  and  N_22
REMARK    4  A    between atoms: C_4  and  C_6
REMARK    5  A    between atoms: C_4  and  N_13
REMARK    6  A    between atoms: N_16  and  C_19
REMARK    7  A    between atoms: C_19  and  C_20
REMARK    8  A    between atoms: C_20  and  O_21
REMARK                            x       y       z     vdW  Elec       q    Type
REMARK                         _______ _______ _______ _____ _____    ______ ____
ROOT
ATOM      1  C   UNL     1       0.773  -0.505   1.131  0.00  0.00    +0.073 C 
ENDROOT
BRANCH   1   2
ATOM      2  C   UNL     1       2.075   0.158   0.763  0.00  0.00    -0.018 A 
ATOM      3  C   UNL     1       2.380   1.409   1.267  0.00  0.00    +0.006 A 
ATOM      4  C   UNL     1       3.574   2.018   0.930  0.00  0.00    +0.000 A 
ATOM      5  C   UNL     1       4.464   1.376   0.088  0.00  0.00    +0.001 A 
ATOM      6  C   UNL     1       4.160   0.126  -0.416  0.00  0.00    +0.015 A 
ATOM      7  C   UNL     1       2.967  -0.486  -0.074  0.00  0.00    +0.022 A 
ATOM      8 BR   UNL     1       2.554  -2.200  -0.758  0.00  0.00    -0.050 Br
ENDBRANCH   1   2
BRANCH   1   9
ATOM      9  N   UNL     1       0.364  -0.070   2.474  0.00  0.00    -0.295 NA
ATOM     10  C   UNL     1       1.349  -0.482   3.484  0.00  0.00    +0.100 C 
ATOM     11  C   UNL     1       0.927   0.057   4.853  0.00  0.00    +0.100 C 
ATOM     12  N   UNL     1      -0.410  -0.453   5.187  0.00  0.00    -0.298 NA
ATOM     13  C   UNL     1      -1.395  -0.041   4.176  0.00  0.00    +0.100 C 
ATOM     14  C   UNL     1      -0.973  -0.580   2.808  0.00  0.00    +0.100 C 
BRANCH  12  15
ATOM     15  C   UNL     1      -0.819  -0.018   6.529  0.00  0.00    +0.112 C 
BRANCH  15  16
ATOM     16  C   UNL     1      -2.091  -0.761   6.941  0.00  0.00    +0.171 C 
BRANCH  16  17
ATOM     17  O   UNL     1      -1.807  -2.156   7.065  0.00  0.00    -0.394 OA
ATOM     18  H   UNL     1      -2.570  -2.691   7.324  0.00  0.00    +0.209 HD
ENDBRANCH  16  17
ENDBRANCH  15  16
ENDBRANCH  12  15
ENDBRANCH   1   9
BRANCH   1  20
ATOM     19  C   UNL     1      -0.553   1.394   0.196  0.00  0.00    -0.012 C 
ATOM     20  C   UNL     1      -0.304  -0.113   0.118  0.00  0.00    -0.056 C 
BRANCH  20  21
ATOM     21  N   UNL     1       0.145  -0.466  -1.236  0.00  0.00    +0.381 N 
ATOM     22  H   UNL     1       0.248  -1.467  -1.306  0.00  0.00    -0.090 HD
ATOM     23  H   UNL     1      -0.536  -0.150  -1.909  0.00  0.00    -0.090 HD
ATOM     24  H   UNL     1       1.033  -0.023  -1.421  0.00  0.00    -0.090 HD
ENDBRANCH  20  21
ENDBRANCH   1  20
TORSDOF 7
