REMARK  Name = ZINC63375868
REMARK  4 active torsions:
REMARK  status: ('A' for Active; 'I' for Inactive)
REMARK    1  A    between atoms: C_8  and  C_36
REMARK    2  A    between atoms: N_19  and  C_22
REMARK    3  A    between atoms: C_27  and  C_28
REMARK    4  A    between atoms: N_30  and  C_31
REMARK                            x       y       z     vdW  Elec       q    Type
REMARK                         _______ _______ _______ _____ _____    ______ ____
ROOT
ATOM      1  C   UNL     1       0.852   1.939  -0.279  0.00  0.00    +0.001 A 
ATOM      2  C   UNL     1       2.117   2.519  -0.142  0.00  0.00    +0.002 A 
ATOM      3  C   UNL     1       3.275   1.818  -0.039  0.00  0.00    +0.026 A 
ATOM      4  C   UNL     1       3.187   0.396  -0.072  0.00  0.00    +0.043 A 
ATOM      5  N   UNL     1       4.116  -0.507   0.021  0.00  0.00    -0.375 N 
ATOM      6  C   UNL     1       3.497  -1.826  -0.137  0.00  0.00    +0.131 C 
ATOM      7  C   UNL     1       3.757  -2.713   1.090  0.00  0.00    +0.135 C 
ATOM      8  N   UNL     1       2.745  -3.777   1.073  0.00  0.00    -0.264 N 
ATOM      9  C   UNL     1       1.284  -3.556   1.040  0.00  0.00    +0.169 C 
ATOM     10  C   UNL     1       0.968  -2.654  -0.166  0.00  0.00    +0.065 C 
ATOM     11  C   UNL     1       1.998  -1.569  -0.207  0.00  0.00    -0.034 C 
ATOM     12  C   UNL     1       1.846  -0.248  -0.211  0.00  0.00    -0.001 A 
ATOM     13  C   UNL     1       0.645   0.596  -0.320  0.00  0.00    +0.010 A 
ATOM     14  C   UNL     1       0.728  -4.947   0.829  0.00  0.00    +0.248 C 
ATOM     15  O   UNL     1      -0.431  -5.253   0.650  0.00  0.00    -0.273 OA
ATOM     16  N   UNL     1       1.791  -5.776   0.882  0.00  0.00    -0.192 N 
ATOM     17  C   UNL     1       2.936  -5.102   1.059  0.00  0.00    +0.317 C 
ATOM     18  O   UNL     1       4.021  -5.632   1.193  0.00  0.00    -0.252 OA
ATOM     19  H   UNL     1       5.060  -0.338   0.171  0.00  0.00    +0.160 HD
ENDROOT
BRANCH   7  20
ATOM     20  C   UNL     1       3.628  -1.898   2.351  0.00  0.00    -0.025 A 
ATOM     21  C   UNL     1       4.740  -1.661   3.138  0.00  0.00    +0.008 A 
ATOM     22  C   UNL     1       4.622  -0.913   4.294  0.00  0.00    +0.038 A 
ATOM     23  C   UNL     1       3.390  -0.401   4.664  0.00  0.00    +0.123 A 
ATOM     24  C   UNL     1       2.277  -0.640   3.876  0.00  0.00    +0.038 A 
ATOM     25  C   UNL     1       2.398  -1.383   2.717  0.00  0.00    +0.008 A 
ATOM     26  F   UNL     1       3.273   0.329   5.795  0.00  0.00    -0.205 F 
ENDBRANCH   7  20
BRANCH  16  27
ATOM     27  C   UNL     1       1.709  -7.165   0.766  0.00  0.00    +0.058 A 
ATOM     28  C   UNL     1       1.804  -7.768  -0.480  0.00  0.00    +0.025 A 
ATOM     29  C   UNL     1       1.722  -9.142  -0.593  0.00  0.00    +0.002 A 
ATOM     30  C   UNL     1       1.545  -9.928   0.534  0.00  0.00    +0.001 A 
ATOM     31  C   UNL     1       1.448  -9.346   1.780  0.00  0.00    +0.015 A 
ATOM     32  C   UNL     1       1.535  -7.958   1.910  0.00  0.00    +0.059 A 
BRANCH  32  33
ATOM     33  C   UNL     1       1.438  -7.330   3.241  0.00  0.00    +0.246 C 
ATOM     34  O   UNL     1       1.509  -6.121   3.349  0.00  0.00    -0.270 OA
ATOM     35  N   UNL     1       1.271  -8.096   4.337  0.00  0.00    -0.308 N 
ATOM     36  H   UNL     1       1.215  -9.060   4.251  0.00  0.00    +0.149 HD
BRANCH  35  37
ATOM     37  C   UNL     1       1.175  -7.472   5.659  0.00  0.00    +0.073 C 
ATOM     38  C   UNL     1       2.583  -7.295   6.264  0.00  0.00    +0.022 C 
ATOM     39  C   UNL     1       2.387  -7.577   7.774  0.00  0.00    +0.002 C 
ATOM     40  C   UNL     1       1.359  -8.736   7.774  0.00  0.00    +0.002 C 
ATOM     41  C   UNL     1       0.397  -8.388   6.620  0.00  0.00    +0.022 C 
ENDBRANCH  35  37
ENDBRANCH  32  33
ENDBRANCH  16  27
TORSDOF 4
