REMARK  Name = ZINC11291846
REMARK  11 active torsions:
REMARK  status: ('A' for Active; 'I' for Inactive)
REMARK    1  A    between atoms: C_1  and  C_2
REMARK    2  A    between atoms: C_2  and  O_3
REMARK    3  A    between atoms: O_3  and  C_4
REMARK    4  A    between atoms: C_4  and  C_6
REMARK    5  A    between atoms: C_7  and  C_21
REMARK    6  A    between atoms: C_12  and  C_14
REMARK    7  A    between atoms: C_21  and  N_57
REMARK    8  A    between atoms: C_22  and  N_57
REMARK    9  A    between atoms: C_23  and  C_24
REMARK   10  A    between atoms: C_23  and  N_57
REMARK   11  A    between atoms: N_26  and  C_27
REMARK                            x       y       z     vdW  Elec       q    Type
REMARK                         _______ _______ _______ _____ _____    ______ ____
ROOT
ATOM      1  C   UNL     1      -0.967   1.468   3.911  0.00  0.00    +0.076 C 
ATOM      2  C   UNL     1      -0.493   0.936   5.059  0.00  0.00    +0.008 C 
ATOM      3  N   UNL     1      -1.113   1.170   6.253  0.00  0.00    -0.274 N 
ATOM      4  C   UNL     1      -2.211   1.925   6.384  0.00  0.00    +0.304 C 
ATOM      5  O   UNL     1      -2.692   2.076   7.490  0.00  0.00    -0.252 OA
ATOM      6  N   UNL     1      -2.801   2.522   5.330  0.00  0.00    -0.288 N 
ATOM      7  C   UNL     1      -2.205   2.337   3.996  0.00  0.00    +0.143 C 
ATOM      8  H   UNL     1      -0.736   0.767   7.051  0.00  0.00    +0.156 HD
ATOM      9  H   UNL     1      -3.596   3.065   5.447  0.00  0.00    +0.151 HD
ENDROOT
BRANCH   7  10
ATOM     10  C   UNL     1      -1.857   3.696   3.444  0.00  0.00    -0.022 A 
ATOM     11  C   UNL     1      -1.186   4.611   4.234  0.00  0.00    +0.007 A 
ATOM     12  C   UNL     1      -0.862   5.855   3.726  0.00  0.00    +0.020 A 
ATOM     13  C   UNL     1      -1.219   6.189   2.432  0.00  0.00    +0.041 A 
ATOM     14  C   UNL     1      -1.895   5.274   1.644  0.00  0.00    +0.020 A 
ATOM     15  C   UNL     1      -2.214   4.028   2.151  0.00  0.00    +0.007 A 
ATOM     16 CL   UNL     1      -0.819   7.754   1.797  0.00  0.00    -0.084 Cl
ENDBRANCH   7  10
BRANCH   1  17
ATOM     17  C   UNL     1      -0.326   1.226   2.674  0.00  0.00    +0.339 C 
ATOM     18  O   UNL     1       0.392   2.078   2.184  0.00  0.00    -0.245 OA
BRANCH  17  19
ATOM     19  O   UNL     1      -0.509   0.051   2.037  0.00  0.00    -0.462 OA
BRANCH  19  21
ATOM     20  C   UNL     1      -0.158  -1.507   0.223  0.00  0.00    +0.048 C 
ATOM     21  C   UNL     1       0.169  -0.125   0.791  0.00  0.00    +0.229 C 
ENDBRANCH  19  21
ENDBRANCH  17  19
ENDBRANCH   1  17
BRANCH   2  22
ATOM     22  C   UNL     1       0.740   0.070   5.021  0.00  0.00    -0.026 C 
BRANCH  22  24
ATOM     23  C   UNL     1       2.245   1.964   5.113  0.00  0.00    -0.095 C 
ATOM     24  N   UNL     1       1.810   0.729   5.799  0.00  0.00    +0.387 N 
ATOM     25  H   UNL     1       1.445   0.973   6.727  0.00  0.00    -0.081 HD
BRANCH  24  26
ATOM     26  C   UNL     1       2.956  -0.190   5.960  0.00  0.00    +0.019 C 
BRANCH  26  27
ATOM     27  C   UNL     1       3.932   0.417   6.934  0.00  0.00    +0.201 C 
ATOM     28  O   UNL     1       3.704   1.503   7.425  0.00  0.00    -0.278 OA
ATOM     29  N   UNL     1       5.059  -0.246   7.261  0.00  0.00    -0.286 N 
ATOM     30  H   UNL     1       5.282  -1.076   6.810  0.00  0.00    +0.155 HD
BRANCH  29  31
ATOM     31  C   UNL     1       5.908   0.262   8.252  0.00  0.00    +0.052 A 
ATOM     32  C   UNL     1       5.431   1.190   9.167  0.00  0.00    +0.025 A 
ATOM     33  C   UNL     1       6.270   1.685  10.147  0.00  0.00    +0.002 A 
ATOM     34  C   UNL     1       7.587   1.266  10.209  0.00  0.00    +0.002 A 
ATOM     35  C   UNL     1       8.066   0.346   9.296  0.00  0.00    +0.022 A 
ATOM     36  C   UNL     1       7.231  -0.158   8.317  0.00  0.00    +0.062 A 
ATOM     37 CL   UNL     1       7.834  -1.312   7.169  0.00  0.00    -0.082 Cl
ENDBRANCH  29  31
ENDBRANCH  26  27
ENDBRANCH  24  26
ENDBRANCH  22  24
ENDBRANCH   2  22
TORSDOF 9
