REMARK  Name = ZINC20804099
REMARK  11 active torsions:
REMARK  status: ('A' for Active; 'I' for Inactive)
REMARK    1  A    between atoms: C_1  and  C_2
REMARK    2  A    between atoms: C_5  and  N_9
REMARK    3  A    between atoms: C_6  and  C_8
REMARK    4  A    between atoms: C_10  and  C_12
REMARK    5  A    between atoms: C_14  and  C_37
REMARK    6  A    between atoms: C_22  and  C_24
REMARK    7  A    between atoms: C_27  and  O_32
REMARK    8  A    between atoms: C_28  and  O_30
REMARK    9  A    between atoms: O_30  and  C_31
REMARK   10  A    between atoms: O_32  and  C_33
REMARK   11  A    between atoms: C_33  and  C_34
REMARK                            x       y       z     vdW  Elec       q    Type
REMARK                         _______ _______ _______ _____ _____    ______ ____
ROOT
ATOM      1  C   UNL     1      -1.723   1.748   0.526  0.00  0.00    +0.124 C 
ATOM      2  C   UNL     1      -1.854   1.848  -0.998  0.00  0.00    +0.084 C 
ATOM      3  N   UNL     1      -1.805   0.486  -1.565  0.00  0.00    -0.310 N 
ATOM      4  C   UNL     1      -2.547  -0.482  -0.901  0.00  0.00    +0.214 A 
ATOM      5  N   UNL     1      -2.876  -1.687  -1.281  0.00  0.00    -0.202 NA
ATOM      6  C   UNL     1      -3.602  -2.275  -0.324  0.00  0.00    +0.247 A 
ATOM      7  N   UNL     1      -3.743  -1.446   0.680  0.00  0.00    -0.156 NA
ATOM      8  N   UNL     1      -3.067  -0.275   0.333  0.00  0.00    -0.225 N 
ATOM      9  C   UNL     1      -2.910   0.962   1.097  0.00  0.00    +0.154 C 
ATOM     10  C   UNL     1      -0.698   2.679  -1.559  0.00  0.00    +0.028 C 
ATOM     11  H   UNL     1      -1.205   0.286  -2.464  0.00  0.00    +0.149 HD
ENDROOT
BRANCH   9  12
ATOM     12  C   UNL     1      -2.647   0.632   2.544  0.00  0.00    -0.019 A 
ATOM     13  C   UNL     1      -1.885  -0.473   2.872  0.00  0.00    +0.009 A 
ATOM     14  C   UNL     1      -1.636  -0.777   4.198  0.00  0.00    +0.050 A 
ATOM     15  C   UNL     1      -2.162   0.021   5.201  0.00  0.00    +0.163 A 
ATOM     16  C   UNL     1      -2.935   1.130   4.871  0.00  0.00    +0.162 A 
ATOM     17  C   UNL     1      -3.175   1.432   3.541  0.00  0.00    +0.055 A 
BRANCH  16  18
ATOM     18  O   UNL     1      -3.453   1.916   5.853  0.00  0.00    -0.491 OA
ATOM     19  C   UNL     1      -4.236   3.038   5.440  0.00  0.00    +0.277 C 
ENDBRANCH  16  18
BRANCH  15  20
ATOM     20  O   UNL     1      -1.923  -0.280   6.506  0.00  0.00    -0.479 OA
BRANCH  20  21
ATOM     21  C   UNL     1      -1.122  -1.433   6.770  0.00  0.00    +0.324 C 
BRANCH  21  22
ATOM     22  C   UNL     1      -0.966  -1.606   8.259  0.00  0.00    +0.248 C 
ATOM     23  O   UNL     1      -1.489  -0.820   9.019  0.00  0.00    -0.272 OA
ATOM     24  N   UNL     1      -0.244  -2.635   8.746  0.00  0.00    -0.327 N 
ATOM     25  H   UNL     1      -0.131  -2.762   9.832  0.00  0.00    +0.145 HD
ATOM     26  H   UNL     1       0.230  -3.349   8.056  0.00  0.00    +0.145 HD
ENDBRANCH  21  22
ENDBRANCH  20  21
ENDBRANCH  15  20
ENDBRANCH   9  12
BRANCH   1  28
ATOM     27  N   UNL     1       0.432   1.608   1.732  0.00  0.00    -0.285 N 
ATOM     28  C   UNL     1      -0.439   1.041   0.874  0.00  0.00    +0.224 C 
ATOM     29  O   UNL     1      -0.187  -0.037   0.378  0.00  0.00    -0.275 OA
ATOM     30  H   UNL     1       0.249   2.626   2.108  0.00  0.00    +0.155 HD
BRANCH  27  35
ATOM     31  C   UNL     1       5.039  -1.249   3.403  0.00  0.00    +0.044 C 
ATOM     32  C   UNL     1       3.815  -0.490   2.959  0.00  0.00    -0.050 A 
ATOM     33  C   UNL     1       3.263  -0.738   1.716  0.00  0.00    +0.005 A 
ATOM     34  C   UNL     1       2.142  -0.044   1.306  0.00  0.00    +0.024 A 
ATOM     35  C   UNL     1       1.568   0.903   2.144  0.00  0.00    +0.036 A 
ATOM     36  C   UNL     1       2.128   1.153   3.390  0.00  0.00    -0.029 A 
ATOM     37  C   UNL     1       3.246   0.452   3.796  0.00  0.00    +0.008 A 
ATOM     38  C   UNL     1       1.512   2.184   4.301  0.00  0.00    +0.045 C 
ENDBRANCH  27  35
ENDBRANCH   1  28
TORSDOF 7
