REMARK  Name = ZINC63731319
REMARK  9 active torsions:
REMARK  status: ('A' for Active; 'I' for Inactive)
REMARK    1  A    between atoms: C_1  and  C_2
REMARK    2  A    between atoms: C_2  and  C_3
REMARK    3  A    between atoms: C_2  and  C_4
REMARK    4  A    between atoms: C_7  and  N_10
REMARK    5  A    between atoms: C_11  and  S_16
REMARK    6  A    between atoms: S_16  and  C_17
REMARK    7  A    between atoms: C_17  and  C_18
REMARK    8  A    between atoms: C_18  and  C_20
REMARK    9  A    between atoms: C_23  and  C_25
REMARK                            x       y       z     vdW  Elec       q    Type
REMARK                         _______ _______ _______ _____ _____    ______ ____
ROOT
ATOM      1  N   UNL     1      -5.318  -1.967   0.043  0.00  0.00    -0.254 N 
ATOM      2  C   UNL     1      -5.932  -2.830  -0.981  0.00  0.00    +0.203 C 
ATOM      3  N   UNL     1      -7.309  -3.104  -0.503  0.00  0.00    -0.320 NA
ATOM      4  N   UNL     1      -7.206  -2.848   0.944  0.00  0.00    +0.411 N 
ATOM      5  N   UNL     1      -6.262  -1.728   1.013  0.00  0.00    -0.265 NA
ATOM      6  H   UNL     1      -7.973  -2.479  -0.934  0.00  0.00    +0.106 HD
ATOM      7  H   UNL     1      -8.102  -2.586   1.326  0.00  0.00    -0.031 HD
ATOM      8  H   UNL     1      -5.835  -1.669   1.925  0.00  0.00    +0.125 HD
ATOM      9  H   UNL     1      -6.833  -3.654   1.424  0.00  0.00    -0.031 HD
ENDROOT
BRANCH   1  13
ATOM     10  C   UNL     1      -1.412  -0.526   0.013  0.00  0.00    -0.045 A 
ATOM     11  C   UNL     1      -2.258  -0.203   1.058  0.00  0.00    +0.006 A 
ATOM     12  C   UNL     1      -3.554  -0.679   1.071  0.00  0.00    +0.025 A 
ATOM     13  C   UNL     1      -4.008  -1.483   0.032  0.00  0.00    +0.045 A 
ATOM     14  C   UNL     1      -3.155  -1.805  -1.016  0.00  0.00    +0.025 A 
ATOM     15  C   UNL     1      -1.861  -1.321  -1.025  0.00  0.00    +0.006 A 
BRANCH  10  17
ATOM     16  C   UNL     1      -0.019   1.526   0.010  0.00  0.00    +0.012 C 
ATOM     17  C   UNL     1       0.002  -0.004   0.002  0.00  0.00    +0.013 C 
ATOM     18  C   UNL     1       0.742  -0.511   1.242  0.00  0.00    +0.012 C 
ENDBRANCH  10  17
ENDBRANCH   1  13
BRANCH   2  19
ATOM     19  S   UNL     1      -5.981  -1.969  -2.577  0.00  0.00    -0.115 S 
BRANCH  19  20
ATOM     20  C   UNL     1      -6.983  -0.493  -2.250  0.00  0.00    +0.151 C 
BRANCH  20  21
ATOM     21  C   UNL     1      -7.104   0.322  -3.511  0.00  0.00    +0.171 C 
ATOM     22  O   UNL     1      -6.567  -0.056  -4.532  0.00  0.00    -0.291 OA
BRANCH  21  23
ATOM     23  C   UNL     1      -7.844   1.527  -3.506  0.00  0.00    +0.020 C 
ATOM     24  C   UNL     1      -8.057   2.373  -4.548  0.00  0.00    +0.118 C 
ATOM     25  N   UNL     1      -8.803   3.422  -4.197  0.00  0.00    -0.254 NA
ATOM     26  C   UNL     1      -9.164   3.416  -2.948  0.00  0.00    +0.107 C 
ATOM     27  C   UNL     1      -8.580   2.157  -2.337  0.00  0.00    +0.101 C 
BRANCH  26  28
ATOM     28  C   UNL     1      -9.989   4.433  -2.260  0.00  0.00    +0.261 C 
ATOM     29  O   UNL     1     -10.254   4.304  -1.081  0.00  0.00    -0.269 OA
ATOM     30  N   UNL     1     -10.445   5.503  -2.940  0.00  0.00    -0.297 N 
ATOM     31  C   UNL     1     -10.206   5.779  -4.364  0.00  0.00    +0.108 C 
ATOM     32  C   UNL     1     -10.896   7.120  -4.693  0.00  0.00    +0.020 C 
ATOM     33  C   UNL     1     -11.006   7.804  -3.305  0.00  0.00    +0.020 C 
ATOM     34  C   UNL     1     -11.273   6.588  -2.381  0.00  0.00    +0.108 C 
ENDBRANCH  26  28
ENDBRANCH  21  23
ENDBRANCH  20  21
ENDBRANCH  19  20
ENDBRANCH   2  19
TORSDOF 7
