REMARK  Name = ZINC66385092
REMARK  9 active torsions:
REMARK  status: ('A' for Active; 'I' for Inactive)
REMARK    1  A    between atoms: C_1  and  C_2
REMARK    2  A    between atoms: C_5  and  C_7
REMARK    3  A    between atoms: C_7  and  C_9
REMARK    4  A    between atoms: C_7  and  N_10
REMARK    5  A    between atoms: N_13  and  C_14
REMARK    6  A    between atoms: C_14  and  C_16
REMARK    7  A    between atoms: C_14  and  C_17
REMARK    8  A    between atoms: C_20  and  N_23
REMARK    9  A    between atoms: N_26  and  C_29
REMARK                            x       y       z     vdW  Elec       q    Type
REMARK                         _______ _______ _______ _____ _____    ______ ____
ROOT
ATOM      1  C   UNL     1       3.972  -6.657  -2.929  0.00  0.00    +0.102 C 
ATOM      2  C   UNL     1       4.844  -7.471  -1.970  0.00  0.00    +0.033 C 
ENDROOT
BRANCH   1   6
ATOM      3  N   UNL     1       2.231  -4.131  -0.902  0.00  0.00    -0.292 N 
ATOM      4  C   UNL     1       2.556  -5.306  -1.478  0.00  0.00    +0.301 C 
ATOM      5  O   UNL     1       1.889  -6.298  -1.253  0.00  0.00    -0.253 OA
ATOM      6  N   UNL     1       3.619  -5.380  -2.303  0.00  0.00    -0.293 N 
ATOM      7  H   UNL     1       2.762  -3.340  -1.081  0.00  0.00    +0.151 HD
ATOM      8  H   UNL     1       4.150  -4.589  -2.482  0.00  0.00    +0.151 HD
BRANCH   3   9
ATOM      9  C   UNL     1       1.075  -4.050  -0.005  0.00  0.00    +0.108 C 
ATOM     10  C   UNL     1       1.496  -4.459   1.408  0.00  0.00    +0.033 C 
BRANCH   9  15
ATOM     11  C   UNL     1       0.069   1.524   0.067  0.00  0.00    +0.051 C 
ATOM     12  C   UNL     1       0.075   0.018   0.050  0.00  0.00    -0.013 A 
ATOM     13  C   UNL     1      -0.975  -0.840   0.046  0.00  0.00    +0.011 A 
ATOM     14  C   UNL     1      -0.730  -2.200   0.029  0.00  0.00    +0.013 A 
ATOM     15  C   UNL     1       0.553  -2.636   0.015  0.00  0.00    +0.010 A 
ATOM     16  S   UNL     1       1.465  -1.101   0.020  0.00  0.00    -0.097 S 
ENDBRANCH   9  15
ENDBRANCH   3   9
ENDBRANCH   1   6
BRANCH   1  17
ATOM     17  C   UNL     1       4.734  -6.398  -4.203  0.00  0.00    -0.027 A 
ATOM     18  C   UNL     1       5.678  -5.389  -4.249  0.00  0.00    +0.007 A 
ATOM     19  C   UNL     1       6.378  -5.149  -5.415  0.00  0.00    +0.023 A 
ATOM     20  C   UNL     1       6.132  -5.922  -6.543  0.00  0.00    +0.030 A 
ATOM     21  C   UNL     1       5.183  -6.936  -6.492  0.00  0.00    +0.023 A 
ATOM     22  C   UNL     1       4.491  -7.174  -5.321  0.00  0.00    +0.007 A 
BRANCH  20  23
ATOM     23  N   UNL     1       6.838  -5.682  -7.724  0.00  0.00    -0.333 N 
ATOM     24  C   UNL     1       6.680  -6.562  -8.892  0.00  0.00    +0.086 C 
ATOM     25  C   UNL     1       6.393  -5.693 -10.120  0.00  0.00    -0.060 C 
ATOM     26  N   UNL     1       7.449  -4.683 -10.261  0.00  0.00    +0.380 N 
ATOM     27  C   UNL     1       7.422  -3.767  -9.114  0.00  0.00    -0.060 C 
ATOM     28  C   UNL     1       7.755  -4.538  -7.837  0.00  0.00    +0.086 C 
ATOM     29  C   UNL     1       7.234  -3.921 -11.498  0.00  0.00    -0.096 C 
ATOM     30  H   UNL     1       8.347  -5.140 -10.303  0.00  0.00    -0.082 HD
ENDBRANCH  20  23
ENDBRANCH   1  17
TORSDOF 5
