REMARK  Name = ZINC65610593
REMARK  7 active torsions:
REMARK  status: ('A' for Active; 'I' for Inactive)
REMARK    1  A    between atoms: N_7  and  C_8
REMARK    2  A    between atoms: C_8  and  C_9
REMARK    3  A    between atoms: C_9  and  N_10
REMARK    4  A    between atoms: N_13  and  C_14
REMARK    5  A    between atoms: N_23  and  C_24
REMARK    6  A    between atoms: C_24  and  C_25
REMARK    7  A    between atoms: C_25  and  O_26
REMARK                            x       y       z     vdW  Elec       q    Type
REMARK                         _______ _______ _______ _____ _____    ______ ____
ROOT
ATOM      1  N   UNL     1      -0.925  -5.077  -0.019  0.00  0.00    -0.298 N 
ATOM      2  C   UNL     1      -0.892  -6.424  -0.027  0.00  0.00    +0.300 C 
ATOM      3  O   UNL     1       0.175  -7.006  -0.040  0.00  0.00    -0.253 OA
ATOM      4  N   UNL     1      -2.043  -7.126  -0.020  0.00  0.00    -0.292 N 
ATOM      5  H   UNL     1      -1.776  -4.612  -0.008  0.00  0.00    +0.150 HD
ATOM      6  H   UNL     1      -2.894  -6.662  -0.009  0.00  0.00    +0.151 HD
ENDROOT
BRANCH   4   7
ATOM      7  C   UNL     1      -2.007  -8.591  -0.029  0.00  0.00    +0.108 C 
ATOM      8  C   UNL     1      -3.303  -9.142   0.579  0.00  0.00    +0.027 C 
ATOM      9  C   UNL     1      -3.379 -10.652   0.337  0.00  0.00    +0.008 C 
ATOM     10  C   UNL     1      -3.622 -10.920  -1.154  0.00  0.00    +0.055 C 
ATOM     11  C   UNL     1      -2.618 -10.124  -1.950  0.00  0.00    +0.044 A 
ATOM     12  C   UNL     1      -1.897  -9.088  -1.448  0.00  0.00    +0.013 A 
ATOM     13  C   UNL     1      -1.077  -8.601  -2.464  0.00  0.00    +0.140 A 
ATOM     14  N   UNL     1      -1.295  -9.317  -3.540  0.00  0.00    -0.179 NA
ATOM     15  N   UNL     1      -2.268 -10.284  -3.237  0.00  0.00    -0.266 N 
BRANCH  15  16
ATOM     16  C   UNL     1      -2.803 -11.289  -4.158  0.00  0.00    +0.171 C 
BRANCH  16  17
ATOM     17  C   UNL     1      -4.029 -10.721  -4.876  0.00  0.00    +0.179 C 
BRANCH  17  18
ATOM     18  O   UNL     1      -4.552 -11.702  -5.775  0.00  0.00    -0.393 OA
ATOM     19  H   UNL     1      -5.332 -11.410  -6.265  0.00  0.00    +0.209 HD
ENDBRANCH  17  18
ENDBRANCH  16  17
ENDBRANCH  15  16
ENDBRANCH   4   7
BRANCH   1  20
ATOM     20  C   UNL     1       0.326  -4.314  -0.026  0.00  0.00    +0.124 C 
BRANCH  20  21
ATOM     21  C   UNL     1       0.010  -2.817  -0.015  0.00  0.00    +0.121 C 
BRANCH  21  28
ATOM     22  C   UNL     1      -0.017   1.379   0.010  0.00  0.00    +0.005 A 
ATOM     23  C   UNL     1       1.195   2.058   0.002  0.00  0.00    +0.018 A 
ATOM     24  C   UNL     1       2.373   1.339  -0.013  0.00  0.00    +0.084 A 
ATOM     25  N   UNL     1       2.361   0.020  -0.020  0.00  0.00    -0.350 N 
ATOM     26  C   UNL     1       1.227  -0.664  -0.014  0.00  0.00    +0.096 A 
ATOM     27  C   UNL     1       0.002  -0.004   0.002  0.00  0.00    +0.041 A 
ATOM     28  N   UNL     1       1.260  -2.054  -0.022  0.00  0.00    -0.329 N 
ATOM     29  H   UNL     1       2.112  -2.518  -0.033  0.00  0.00    +0.147 HD
ATOM     30  H   UNL     1       3.203  -0.461  -0.031  0.00  0.00    +0.166 HD
ENDBRANCH  21  28
ENDBRANCH  20  21
ENDBRANCH   1  20
TORSDOF 7
