REMARK  Name = ZINC20075165
REMARK  13 active torsions:
REMARK  status: ('A' for Active; 'I' for Inactive)
REMARK    1  A    between atoms: C_1  and  C_2
REMARK    2  A    between atoms: C_2  and  O_3
REMARK    3  A    between atoms: O_3  and  C_4
REMARK    4  A    between atoms: C_4  and  C_6
REMARK    5  A    between atoms: C_9  and  N_12
REMARK    6  A    between atoms: C_13  and  C_15
REMARK    7  A    between atoms: C_16  and  C_17
REMARK    8  A    between atoms: C_16  and  N_18
REMARK    9  A    between atoms: N_18  and  N_19
REMARK   10  A    between atoms: C_20  and  C_22
REMARK   11  A    between atoms: C_22  and  O_23
REMARK   12  A    between atoms: O_23  and  C_24
REMARK   13  A    between atoms: C_27  and  C_31
REMARK                            x       y       z     vdW  Elec       q    Type
REMARK                         _______ _______ _______ _____ _____    ______ ____
ROOT
ATOM      1  C   UNL     1       0.011   0.873  -0.156  0.00  0.00    +0.087 C 
ATOM      2  C   UNL     1       1.161   1.548  -0.363  0.00  0.00    +0.024 C 
ATOM      3  C   UNL     1       1.125   3.027  -0.652  0.00  0.00    +0.062 C 
ENDROOT
BRANCH   1   5
ATOM      4  N   UNL     1      -2.352   0.913   0.215  0.00  0.00    -0.282 N 
ATOM      5  C   UNL     1      -1.217   1.571  -0.094  0.00  0.00    +0.243 C 
ATOM      6  O   UNL     1      -1.250   2.768  -0.319  0.00  0.00    -0.270 OA
ATOM      7  H   UNL     1      -2.338  -0.180   0.335  0.00  0.00    +0.155 HD
BRANCH   4  11
ATOM      8  C   UNL     1      -5.910   3.018   0.713  0.00  0.00    +0.059 A 
ATOM      9  C   UNL     1      -5.930   1.725   0.180  0.00  0.00    +0.017 A 
ATOM     10  C   UNL     1      -4.752   1.032   0.017  0.00  0.00    +0.024 A 
ATOM     11  C   UNL     1      -3.542   1.617   0.382  0.00  0.00    +0.034 A 
ATOM     12  C   UNL     1      -3.520   2.901   0.918  0.00  0.00    +0.024 A 
ATOM     13  C   UNL     1      -4.694   3.602   1.079  0.00  0.00    +0.017 A 
BRANCH   8  14
ATOM     14  C   UNL     1      -7.170   3.763   0.889  0.00  0.00    +0.339 C 
ATOM     15  O   UNL     1      -8.227   3.254   0.571  0.00  0.00    -0.245 OA
BRANCH  14  16
ATOM     16  O   UNL     1      -7.150   5.009   1.403  0.00  0.00    -0.461 OA
BRANCH  16  18
ATOM     17  C   UNL     1      -8.206   7.075   2.142  0.00  0.00    +0.048 C 
ATOM     18  C   UNL     1      -8.428   5.683   1.547  0.00  0.00    +0.229 C 
ENDBRANCH  16  18
ENDBRANCH  14  16
ENDBRANCH   8  14
ENDBRANCH   4  11
ENDBRANCH   1   5
BRANCH   2  19
ATOM     19  N   UNL     1       2.358   0.891  -0.309  0.00  0.00    -0.269 N 
ATOM     20  H   UNL     1       3.295   1.441  -0.477  0.00  0.00    +0.170 HD
BRANCH  19  21
ATOM     21  N   UNL     1       2.390  -0.484  -0.040  0.00  0.00    -0.234 N 
ATOM     22  C   UNL     1       3.571  -1.132   0.013  0.00  0.00    +0.267 C 
ATOM     23  O   UNL     1       4.605  -0.525  -0.173  0.00  0.00    -0.271 OA
ATOM     24  H   UNL     1       1.453  -1.034   0.128  0.00  0.00    +0.173 HD
BRANCH  22  25
ATOM     25  C   UNL     1       3.606  -2.611   0.302  0.00  0.00    +0.326 C 
BRANCH  25  26
ATOM     26  O   UNL     1       4.962  -3.063   0.305  0.00  0.00    -0.482 OA
BRANCH  26  27
ATOM     27  C   UNL     1       5.171  -4.383   0.552  0.00  0.00    +0.135 A 
ATOM     28  C   UNL     1       4.094  -5.225   0.786  0.00  0.00    +0.047 A 
ATOM     29  C   UNL     1       4.310  -6.567   1.036  0.00  0.00    +0.007 A 
ATOM     30  C   UNL     1       5.597  -7.071   1.053  0.00  0.00    -0.049 A 
ATOM     31  C   UNL     1       6.673  -6.234   0.819  0.00  0.00    +0.022 A 
ATOM     32  C   UNL     1       6.463  -4.892   0.564  0.00  0.00    +0.060 A 
ATOM     33 BR   UNL     1       7.933  -3.749   0.237  0.00  0.00    -0.047 Br
ATOM     34  C   UNL     1       5.829  -8.535   1.326  0.00  0.00    +0.044 C 
ENDBRANCH  26  27
ENDBRANCH  25  26
ENDBRANCH  22  25
ENDBRANCH  19  21
ENDBRANCH   2  19
TORSDOF 10
