REMARK  Name = ZINC28731449
REMARK  14 active torsions:
REMARK  status: ('A' for Active; 'I' for Inactive)
REMARK    1  A    between atoms: C_1  and  C_2
REMARK    2  A    between atoms: C_2  and  C_3
REMARK    3  A    between atoms: C_3  and  C_4
REMARK    4  A    between atoms: C_7  and  C_10
REMARK    5  A    between atoms: C_10  and  C_12
REMARK    6  A    between atoms: C_10  and  N_15
REMARK    7  A    between atoms: C_12  and  C_13
REMARK    8  A    between atoms: C_12  and  C_14
REMARK    9  A    between atoms: N_15  and  C_16
REMARK   10  A    between atoms: C_16  and  C_17
REMARK   11  A    between atoms: N_19  and  N_20
REMARK   12  A    between atoms: C_23  and  C_27
REMARK   13  A    between atoms: C_23  and  C_28
REMARK   14  A    between atoms: C_28  and  C_29
REMARK                            x       y       z     vdW  Elec       q    Type
REMARK                         _______ _______ _______ _____ _____    ______ ____
ROOT
ATOM      1  N   UNL     1      -2.576   0.753   0.020  0.00  0.00    +0.389 N 
ATOM      2  H   UNL     1      -2.466   0.160   0.941  0.00  0.00    -0.084 HD
ATOM      3  H   UNL     1      -2.726   0.078  -0.835  0.00  0.00    -0.084 HD
ENDROOT
BRANCH   1   4
ATOM      4  C   UNL     1      -3.735   1.646   0.148  0.00  0.00    -0.038 C 
BRANCH   4   8
ATOM      5  C   UNL     1      -6.792  -0.303   2.407  0.00  0.00    -0.047 A 
ATOM      6  C   UNL     1      -6.538   1.042   2.604  0.00  0.00    +0.004 A 
ATOM      7  C   UNL     1      -5.548   1.672   1.873  0.00  0.00    +0.002 A 
ATOM      8  C   UNL     1      -4.813   0.959   0.946  0.00  0.00    -0.061 A 
ATOM      9  C   UNL     1      -5.071  -0.385   0.744  0.00  0.00    +0.002 A 
ATOM     10  C   UNL     1      -6.057  -1.016   1.479  0.00  0.00    +0.004 A 
BRANCH   5  11
ATOM     11  C   UNL     1      -7.871  -0.990   3.203  0.00  0.00    +0.035 C 
BRANCH  11  13
ATOM     12  C   UNL     1     -10.296  -1.589   3.261  0.00  0.00    +0.004 C 
ATOM     13  C   UNL     1      -9.201  -0.891   2.453  0.00  0.00    +0.001 C 
ENDBRANCH  11  13
ENDBRANCH   5  11
ENDBRANCH   4   8
BRANCH   4  14
ATOM     14  C   UNL     1      -4.270   1.990  -1.243  0.00  0.00    -0.027 C 
ATOM     15  C   UNL     1      -4.679   0.705  -1.964  0.00  0.00    +0.006 C 
ATOM     16  C   UNL     1      -5.486   2.909  -1.109  0.00  0.00    +0.006 C 
ENDBRANCH   4  14
ENDBRANCH   1   4
BRANCH   1  17
ATOM     17  C   UNL     1      -1.341   1.520  -0.196  0.00  0.00    +0.017 C 
BRANCH  17  18
ATOM     18  C   UNL     1      -0.199   0.571  -0.451  0.00  0.00    +0.213 C 
ATOM     19  O   UNL     1      -0.393  -0.626  -0.452  0.00  0.00    -0.276 OA
ATOM     20  N   UNL     1       1.038   1.052  -0.682  0.00  0.00    -0.225 N 
ATOM     21  H   UNL     1       1.215   2.138  -0.681  0.00  0.00    +0.173 HD
BRANCH  20  22
ATOM     22  N   UNL     1       2.100   0.171  -0.925  0.00  0.00    -0.137 N 
ATOM     23  C   UNL     1       3.067  -0.113  -0.030  0.00  0.00    +0.263 C 
ATOM     24  O   UNL     1       3.179   0.329   1.093  0.00  0.00    -0.271 OA
ATOM     25  C   UNL     1       3.985  -1.103  -0.720  0.00  0.00    +0.111 C 
ATOM     26  N   UNL     1       3.375  -1.272  -2.050  0.00  0.00    -0.284 N 
ATOM     27  C   UNL     1       2.281  -0.490  -2.074  0.00  0.00    +0.326 C 
ATOM     28  O   UNL     1       1.540  -0.393  -3.033  0.00  0.00    -0.251 OA
ATOM     29  C   UNL     1       4.012  -2.434   0.033  0.00  0.00    +0.041 C 
ATOM     30  H   UNL     1       3.838  -1.946  -2.786  0.00  0.00    +0.151 HD
BRANCH  25  31
ATOM     31  C   UNL     1       5.398  -0.529  -0.846  0.00  0.00    +0.032 C 
ATOM     32  C   UNL     1       6.240  -1.437  -1.744  0.00  0.00    +0.006 C 
ENDBRANCH  25  31
ENDBRANCH  20  22
ENDBRANCH  17  18
ENDBRANCH   1  17
TORSDOF 9
