REMARK  Name = ZINC17307683
REMARK  13 active torsions:
REMARK  status: ('A' for Active; 'I' for Inactive)
REMARK    1  A    between atoms: C_1  and  C_2
REMARK    2  A    between atoms: C_2  and  C_3
REMARK    3  A    between atoms: C_2  and  C_4
REMARK    4  A    between atoms: C_4  and  N_5
REMARK    5  A    between atoms: N_5  and  C_6
REMARK    6  A    between atoms: C_7  and  N_22
REMARK    7  A    between atoms: N_8  and  C_15
REMARK    8  A    between atoms: C_15  and  C_16
REMARK    9  A    between atoms: C_23  and  C_25
REMARK   10  A    between atoms: C_25  and  N_61
REMARK   11  A    between atoms: C_26  and  N_61
REMARK   12  A    between atoms: C_27  and  C_28
REMARK   13  A    between atoms: C_27  and  N_61
REMARK                            x       y       z     vdW  Elec       q    Type
REMARK                         _______ _______ _______ _____ _____    ______ ____
ROOT
ATOM      1  C   UNL     1       0.597   2.840  -0.333  0.00  0.00    +0.140 A 
ATOM      2  C   UNL     1       1.806   2.821   0.331  0.00  0.00    +0.128 A 
ATOM      3  N   UNL     1       2.705   3.840   0.118  0.00  0.00    -0.276 N 
ATOM      4  C   UNL     1       2.404   4.849  -0.720  0.00  0.00    +0.331 A 
ATOM      5  O   UNL     1       3.211   5.743  -0.890  0.00  0.00    -0.246 OA
ATOM      6  N   UNL     1       1.229   4.887  -1.371  0.00  0.00    -0.273 N 
ATOM      7  H   UNL     1       1.030   5.648  -1.989  0.00  0.00    +0.173 HD
ATOM      8  C   UNL     1       0.315   3.911  -1.202  0.00  0.00    +0.277 A 
ATOM      9  O   UNL     1      -0.748   3.955  -1.798  0.00  0.00    -0.266 OA
ENDROOT
BRANCH   1  10
ATOM     10  N   UNL     1      -0.344   1.806  -0.140  0.00  0.00    -0.266 N 
ATOM     11  C   UNL     1      -0.025   0.535  -0.461  0.00  0.00    +0.203 C 
ATOM     12  O   UNL     1       1.037   0.292  -0.995  0.00  0.00    -0.277 OA
BRANCH  10  13
ATOM     13  C   UNL     1      -1.669   2.114   0.403  0.00  0.00    +0.117 C 
BRANCH  13  15
ATOM     14  C   UNL     1      -0.732   2.932   2.570  0.00  0.00    +0.009 C 
ATOM     15  C   UNL     1      -1.661   1.905   1.919  0.00  0.00    +0.001 C 
ATOM     16  C   UNL     1      -3.079   2.081   2.466  0.00  0.00    +0.009 C 
ENDBRANCH  13  15
ENDBRANCH  10  13
BRANCH  11  17
ATOM     17  C   UNL     1      -0.988  -0.583  -0.156  0.00  0.00    +0.019 C 
BRANCH  17  19
ATOM     18  C   UNL     1      -0.283  -1.900  -2.062  0.00  0.00    -0.095 C 
ATOM     19  N   UNL     1      -0.386  -1.862  -0.588  0.00  0.00    +0.386 N 
ATOM     20  H   UNL     1       0.555  -1.940  -0.185  0.00  0.00    -0.081 HD
BRANCH  19  21
ATOM     21  C   UNL     1      -1.208  -2.994  -0.110  0.00  0.00    -0.042 C 
BRANCH  21  22
ATOM     22  C   UNL     1      -0.463  -4.279  -0.369  0.00  0.00    -0.057 A 
ATOM     23  C   UNL     1      -0.647  -4.969  -1.553  0.00  0.00    +0.009 A 
ATOM     24  C   UNL     1       0.043  -6.118  -1.757  0.00  0.00    +0.045 A 
ATOM     25  S   UNL     1       0.978  -6.262  -0.243  0.00  0.00    -0.105 S 
ATOM     26  C   UNL     1       0.392  -4.777   0.556  0.00  0.00    +0.047 A 
ENDBRANCH  21  22
ENDBRANCH  19  21
ENDBRANCH  17  19
ENDBRANCH  11  17
ENDBRANCH   1  10
BRANCH   2  27
ATOM     27  N   UNL     1       2.111   1.794   1.191  0.00  0.00    -0.343 N 
ATOM     28  H   UNL     1       1.446   1.117   1.394  0.00  0.00    +0.144 HD
ATOM     29  H   UNL     1       2.991   1.745   1.596  0.00  0.00    +0.144 HD
ENDBRANCH   2  27
BRANCH   3  30
ATOM     30  C   UNL     1       3.995   3.830   0.812  0.00  0.00    +0.163 C 
BRANCH  30  31
ATOM     31  C   UNL     1       3.862   4.550   2.129  0.00  0.00    -0.028 A 
ATOM     32  C   UNL     1       4.102   5.910   2.200  0.00  0.00    +0.005 A 
ATOM     33  C   UNL     1       3.976   6.571   3.408  0.00  0.00    +0.000 A 
ATOM     34  C   UNL     1       3.620   5.872   4.545  0.00  0.00    +0.000 A 
ATOM     35  C   UNL     1       3.385   4.511   4.475  0.00  0.00    +0.000 A 
ATOM     36  C   UNL     1       3.506   3.850   3.267  0.00  0.00    +0.005 A 
ENDBRANCH  30  31
ENDBRANCH   3  30
TORSDOF 10
