REMARK  Name = ZINC47773339
REMARK  8 active torsions:
REMARK  status: ('A' for Active; 'I' for Inactive)
REMARK    1  A    between atoms: C_1  and  C_2
REMARK    2  A    between atoms: C_2  and  C_4
REMARK    3  A    between atoms: C_2  and  N_13
REMARK    4  A    between atoms: N_9  and  C_10
REMARK    5  A    between atoms: C_10  and  C_11
REMARK    6  A    between atoms: C_16  and  C_19
REMARK    7  A    between atoms: C_19  and  N_20
REMARK    8  A    between atoms: C_21  and  C_23
REMARK                            x       y       z     vdW  Elec       q    Type
REMARK                         _______ _______ _______ _____ _____    ______ ____
ROOT
ATOM      1  C   UNL     1      -0.697   1.312  -0.343  0.00  0.00    -0.004 C 
ATOM      2  C   UNL     1       0.002  -0.004   0.002  0.00  0.00    +0.017 C 
ENDROOT
BRANCH   2   3
ATOM      3  C   UNL     1       0.597  -0.600  -1.248  0.00  0.00    +0.207 C 
ATOM      4  O   UNL     1      -0.041  -1.395  -1.904  0.00  0.00    -0.277 OA
ATOM      5  N   UNL     1       1.839  -0.249  -1.637  0.00  0.00    -0.242 N 
ATOM      6  C   UNL     1       2.371  -0.781  -2.754  0.00  0.00    +0.306 C 
ATOM      7  O   UNL     1       1.731  -1.579  -3.412  0.00  0.00    -0.252 OA
ATOM      8  N   UNL     1       3.613  -0.430  -3.143  0.00  0.00    -0.296 N 
ATOM      9  H   UNL     1       2.350   0.388  -1.112  0.00  0.00    +0.159 HD
ATOM     10  H   UNL     1       4.123   0.206  -2.619  0.00  0.00    +0.151 HD
BRANCH   8  11
ATOM     11  C   UNL     1       4.191  -1.009  -4.358  0.00  0.00    +0.132 C 
BRANCH  11  12
ATOM     12  C   UNL     1       5.577  -0.456  -4.568  0.00  0.00    -0.016 C 
ATOM     13  C   UNL     1       6.595  -1.271  -4.698  0.00  0.00    +0.005 C 
ENDBRANCH  11  12
ENDBRANCH   8  11
ENDBRANCH   2   3
BRANCH   2  14
ATOM     14  N   UNL     1      -0.974  -0.941   0.575  0.00  0.00    +0.387 N 
ATOM     15  C   UNL     1      -0.296  -2.194   0.930  0.00  0.00    -0.077 C 
ATOM     16  C   UNL     1      -1.322  -3.202   1.452  0.00  0.00    -0.014 C 
ATOM     17  C   UNL     1      -2.014  -2.625   2.690  0.00  0.00    +0.003 C 
ATOM     18  C   UNL     1      -2.654  -1.282   2.325  0.00  0.00    -0.014 C 
ATOM     19  C   UNL     1      -1.579  -0.345   1.772  0.00  0.00    -0.077 C 
ATOM     20  H   UNL     1      -1.694  -1.132  -0.106  0.00  0.00    -0.081 HD
BRANCH  17  21
ATOM     21  C   UNL     1      -3.096  -3.594   3.170  0.00  0.00    +0.107 C 
BRANCH  21  22
ATOM     22  N   UNL     1      -3.675  -3.098   4.421  0.00  0.00    -0.315 N 
ATOM     23  C   UNL     1      -4.654  -3.794   5.033  0.00  0.00    +0.210 C 
ATOM     24  O   UNL     1      -5.056  -4.830   4.548  0.00  0.00    -0.276 OA
ATOM     25  C   UNL     1      -5.250  -3.284   6.320  0.00  0.00    +0.109 C 
ATOM     26  H   UNL     1      -3.354  -2.269   4.810  0.00  0.00    +0.149 HD
ENDBRANCH  21  22
ENDBRANCH  17  21
ENDBRANCH   2  14
TORSDOF 6
