REMARK  Name = ZINC37020364
REMARK  6 active torsions:
REMARK  status: ('A' for Active; 'I' for Inactive)
REMARK    1  A    between atoms: C_4  and  S_18
REMARK    2  A    between atoms: C_5  and  N_7
REMARK    3  A    between atoms: C_8  and  C_10
REMARK    4  A    between atoms: C_13  and  O_17
REMARK    5  A    between atoms: S_18  and  C_19
REMARK    6  A    between atoms: C_19  and  C_20
REMARK                            x       y       z     vdW  Elec       q    Type
REMARK                         _______ _______ _______ _____ _____    ______ ____
ROOT
ATOM      1  N   UNL     1       1.233  -2.082  -0.021  0.00  0.00    -0.286 N 
ATOM      2  C   UNL     1       0.082  -2.774   0.088  0.00  0.00    +0.203 C 
ATOM      3  O   UNL     1      -0.980  -2.187   0.102  0.00  0.00    -0.277 OA
ATOM      4  H   UNL     1       2.077  -2.554  -0.097  0.00  0.00    +0.155 HD
ENDROOT
BRANCH   2   5
ATOM      5  C   UNL     1       0.113  -4.277   0.194  0.00  0.00    +0.019 C 
ATOM      6  C   UNL     1       0.409  -4.709   1.646  0.00  0.00    +0.023 C 
ATOM      7  C   UNL     1      -0.459  -5.964   1.875  0.00  0.00    +0.097 C 
ATOM      8  C   UNL     1      -1.206  -6.184   0.542  0.00  0.00    -0.050 C 
ATOM      9  N   UNL     1      -1.227  -4.846  -0.103  0.00  0.00    +0.388 N 
ATOM     10  H   UNL     1      -1.951  -4.271   0.301  0.00  0.00    -0.085 HD
ATOM     11  H   UNL     1      -1.360  -4.934  -1.100  0.00  0.00    -0.085 HD
BRANCH   7  12
ATOM     12  O   UNL     1       0.367  -7.091   2.176  0.00  0.00    -0.394 OA
ATOM     13  H   UNL     1      -0.124  -7.909   2.330  0.00  0.00    +0.210 HD
ENDBRANCH   7  12
ENDBRANCH   2   5
BRANCH   1  18
ATOM     14  C   UNL     1       0.135   1.379  -0.616  0.00  0.00    +0.002 A 
ATOM     15  C   UNL     1       1.166   2.090  -0.031  0.00  0.00    +0.001 A 
ATOM     16  C   UNL     1       2.223   1.424   0.559  0.00  0.00    +0.016 A 
ATOM     17  C   UNL     1       2.252   0.037   0.566  0.00  0.00    +0.029 A 
ATOM     18  C   UNL     1       1.211  -0.681  -0.024  0.00  0.00    +0.047 A 
ATOM     19  C   UNL     1       0.155  -0.004  -0.614  0.00  0.00    +0.024 A 
BRANCH  17  20
ATOM     20  S   UNL     1       3.599  -0.816   1.317  0.00  0.00    -0.114 S 
BRANCH  20  21
ATOM     21  C   UNL     1       4.672   0.512   1.928  0.00  0.00    +0.187 C 
BRANCH  21  22
ATOM     22  C   UNL     1       5.898  -0.097   2.613  0.00  0.00    +0.399 C 
ATOM     23  F   UNL     1       6.603  -0.881   1.694  0.00  0.00    -0.170 F 
ATOM     24  F   UNL     1       6.726   0.927   3.084  0.00  0.00    -0.170 F 
ATOM     25  F   UNL     1       5.484  -0.894   3.686  0.00  0.00    -0.170 F 
ENDBRANCH  21  22
ENDBRANCH  20  21
ENDBRANCH  17  20
ENDBRANCH   1  18
TORSDOF 6
