REMARK  Name = ZINC64623058
REMARK  4 active torsions:
REMARK  status: ('A' for Active; 'I' for Inactive)
REMARK    1  A    between atoms: C_1  and  O_2
REMARK    2  A    between atoms: O_2  and  C_3
REMARK    3  A    between atoms: C_6  and  C_9
REMARK    4  A    between atoms: N_26  and  C_27
REMARK                            x       y       z     vdW  Elec       q    Type
REMARK                         _______ _______ _______ _____ _____    ______ ____
ROOT
ATOM      1  C   UNL     1      -4.414  -2.449  -0.386  0.00  0.00    +0.134 C 
ATOM      2  C   UNL     1      -4.789  -2.691   1.080  0.00  0.00    +0.131 C 
ATOM      3  C   UNL     1      -4.140  -4.009   1.483  0.00  0.00    -0.035 C 
ATOM      4  C   UNL     1      -3.387  -3.747   2.545  0.00  0.00    -0.001 A 
ATOM      5  C   UNL     1      -2.580  -4.620   3.412  0.00  0.00    +0.010 A 
ATOM      6  C   UNL     1      -1.912  -4.006   4.425  0.00  0.00    +0.001 A 
ATOM      7  C   UNL     1      -1.965  -2.629   4.658  0.00  0.00    +0.002 A 
ATOM      8  C   UNL     1      -2.685  -1.752   3.913  0.00  0.00    +0.026 A 
ATOM      9  C   UNL     1      -3.434  -2.279   2.821  0.00  0.00    +0.043 A 
ATOM     10  N   UNL     1      -4.229  -1.665   1.962  0.00  0.00    -0.375 N 
ATOM     11  C   UNL     1      -4.331  -5.281   0.694  0.00  0.00    +0.052 C 
ATOM     12  C   UNL     1      -4.026  -4.941  -0.776  0.00  0.00    +0.114 C 
ATOM     13  N   UNL     1      -4.693  -3.684  -1.135  0.00  0.00    -0.276 N 
ATOM     14  C   UNL     1      -5.571  -3.660  -2.157  0.00  0.00    +0.307 C 
ATOM     15  O   UNL     1      -6.057  -2.606  -2.517  0.00  0.00    -0.252 OA
ATOM     16  N   UNL     1      -5.909  -4.806  -2.781  0.00  0.00    -0.269 N 
ATOM     17  H   UNL     1      -5.569  -5.654  -2.455  0.00  0.00    +0.156 HD
ATOM     18  H   UNL     1      -4.410  -0.714   1.912  0.00  0.00    +0.160 HD
ENDROOT
BRANCH  16  19
ATOM     19  C   UNL     1      -6.750  -4.772  -3.900  0.00  0.00    +0.035 A 
ATOM     20  C   UNL     1      -7.595  -3.689  -4.102  0.00  0.00    +0.024 A 
ATOM     21  C   UNL     1      -8.423  -3.658  -5.207  0.00  0.00    +0.017 A 
ATOM     22  C   UNL     1      -8.412  -4.705  -6.111  0.00  0.00    +0.018 A 
ATOM     23  C   UNL     1      -7.571  -5.785  -5.912  0.00  0.00    +0.017 A 
ATOM     24  C   UNL     1      -6.736  -5.819  -4.813  0.00  0.00    +0.024 A 
ATOM     25 BR   UNL     1      -9.548  -4.659  -7.622  0.00  0.00    -0.050 Br
ENDBRANCH  16  19
BRANCH   1  29
ATOM     26  C   UNL     1      -0.260  -1.489  -0.676  0.00  0.00    +0.120 A 
ATOM     27  C   UNL     1      -0.653  -2.765  -0.300  0.00  0.00    +0.046 A 
ATOM     28  C   UNL     1      -1.997  -3.073  -0.207  0.00  0.00    +0.009 A 
ATOM     29  C   UNL     1      -2.949  -2.110  -0.488  0.00  0.00    -0.024 A 
ATOM     30  C   UNL     1      -2.559  -0.838  -0.864  0.00  0.00    +0.009 A 
ATOM     31  C   UNL     1      -1.217  -0.523  -0.952  0.00  0.00    +0.046 A 
BRANCH  26  33
ATOM     32  C   UNL     1       1.991  -2.228  -0.470  0.00  0.00    +0.277 C 
ATOM     33  O   UNL     1       1.062  -1.184  -0.768  0.00  0.00    -0.495 OA
ENDBRANCH  26  33
ENDBRANCH   1  29
TORSDOF 3
