REMARK  Name = ZINC13978300
REMARK  6 active torsions:
REMARK  status: ('A' for Active; 'I' for Inactive)
REMARK    1  A    between atoms: C_3  and  C_6
REMARK    2  A    between atoms: C_12  and  N_15
REMARK    3  A    between atoms: N_16  and  C_17
REMARK    4  A    between atoms: C_17  and  C_18
REMARK    5  A    between atoms: C_23  and  C_24
REMARK    6  A    between atoms: C_23  and  N_51
REMARK                            x       y       z     vdW  Elec       q    Type
REMARK                         _______ _______ _______ _____ _____    ______ ____
ROOT
ATOM      1  C   UNL     1      -1.310   2.216   0.864  0.00  0.00    +0.219 A 
ATOM      2  N   UNL     1      -2.577   1.789   0.909  0.00  0.00    -0.186 NA
ATOM      3  C   UNL     1      -3.399   2.809   0.698  0.00  0.00    +0.257 A 
ATOM      4  N   UNL     1      -4.734   2.892   0.649  0.00  0.00    -0.196 NA
ATOM      5  C   UNL     1      -5.337   4.046   0.412  0.00  0.00    +0.126 A 
ATOM      6  C   UNL     1      -4.581   5.209   0.208  0.00  0.00    +0.087 A 
ATOM      7  C   UNL     1      -3.217   5.132   0.257  0.00  0.00    +0.125 A 
ATOM      8  N   UNL     1      -2.630   3.922   0.504  0.00  0.00    -0.182 N 
ATOM      9  N   UNL     1      -1.295   3.511   0.616  0.00  0.00    -0.139 NA
ATOM     10  N   UNL     1      -6.719   4.106   0.366  0.00  0.00    -0.330 N 
ATOM     11  H   UNL     1      -7.244   3.303   0.508  0.00  0.00    +0.147 HD
ENDROOT
BRANCH   1  14
ATOM     12  C   UNL     1       1.232  -0.362   1.416  0.00  0.00    +0.042 A 
ATOM     13  C   UNL     1      -0.116   0.033   1.313  0.00  0.00    +0.053 A 
ATOM     14  C   UNL     1      -0.115   1.368   1.057  0.00  0.00    +0.173 A 
ATOM     15  O   UNL     1       1.166   1.783   1.003  0.00  0.00    -0.460 OA
ATOM     16  C   UNL     1       1.982   0.740   1.220  0.00  0.00    +0.196 A 
ENDBRANCH   1  14
BRANCH   7  17
ATOM     17  N   UNL     1      -2.445   6.258   0.060  0.00  0.00    -0.343 N 
ATOM     18  H   UNL     1      -1.478   6.195   0.097  0.00  0.00    +0.144 HD
ATOM     19  H   UNL     1      -2.869   7.112  -0.114  0.00  0.00    +0.144 HD
ENDBRANCH   7  17
BRANCH  10  20
ATOM     20  C   UNL     1      -7.389   5.382   0.104  0.00  0.00    +0.088 C 
BRANCH  20  21
ATOM     21  C   UNL     1      -8.893   5.147  -0.048  0.00  0.00    -0.051 C 
ATOM     22  C   UNL     1      -9.609   6.485  -0.308  0.00  0.00    -0.016 C 
ATOM     23  C   UNL     1     -10.309   6.309  -1.675  0.00  0.00    -0.020 C 
ATOM     24  C   UNL     1     -10.423   4.770  -1.811  0.00  0.00    -0.078 C 
ATOM     25  N   UNL     1      -9.158   4.308  -1.218  0.00  0.00    +0.385 N 
ATOM     26  H   UNL     1      -8.397   4.413  -1.899  0.00  0.00    -0.081 HD
BRANCH  25  27
ATOM     27  C   UNL     1      -9.264   2.873  -0.818  0.00  0.00    -0.042 C 
BRANCH  27  28
ATOM     28  C   UNL     1      -9.679   2.044  -2.006  0.00  0.00    -0.060 A 
ATOM     29  C   UNL     1      -8.729   1.482  -2.847  0.00  0.00    +0.021 A 
ATOM     30  C   UNL     1      -9.147   0.728  -3.927  0.00  0.00    +0.112 A 
ATOM     31  N   UNL     1     -10.431   0.540  -4.162  0.00  0.00    -0.244 NA
ATOM     32  C   UNL     1     -11.362   1.059  -3.385  0.00  0.00    +0.129 A 
ATOM     33  C   UNL     1     -11.019   1.820  -2.281  0.00  0.00    +0.042 A 
ATOM     34 CL   UNL     1     -13.037   0.776  -3.745  0.00  0.00    -0.062 Cl
ENDBRANCH  27  28
ENDBRANCH  25  27
ENDBRANCH  20  21
ENDBRANCH  10  20
TORSDOF 6
