REMARK  Name = ZINC35057493
REMARK  13 active torsions:
REMARK  status: ('A' for Active; 'I' for Inactive)
REMARK    1  A    between atoms: C_1  and  C_2
REMARK    2  A    between atoms: N_4  and  C_5
REMARK    3  A    between atoms: C_7  and  O_33
REMARK    4  A    between atoms: C_15  and  C_17
REMARK    5  A    between atoms: C_15  and  C_18
REMARK    6  A    between atoms: C_20  and  O_22
REMARK    7  A    between atoms: O_22  and  C_23
REMARK    8  A    between atoms: C_26  and  C_29
REMARK    9  A    between atoms: C_29  and  C_30
REMARK   10  A    between atoms: C_29  and  C_31
REMARK   11  A    between atoms: C_29  and  C_32
REMARK   12  A    between atoms: O_33  and  C_34
REMARK   13  A    between atoms: C_34  and  C_35
REMARK                            x       y       z     vdW  Elec       q    Type
REMARK                         _______ _______ _______ _____ _____    ______ ____
ROOT
ATOM      1  C   UNL     1       0.020  -2.136  -1.177  0.00  0.00    +0.173 C 
ATOM      2  C   UNL     1      -0.702  -2.652  -2.425  0.00  0.00    +0.176 C 
ATOM      3  C   UNL     1       0.049  -2.184  -3.672  0.00  0.00    +0.183 C 
ATOM      4  C   UNL     1       1.506  -2.653  -3.602  0.00  0.00    +0.179 C 
ATOM      5  C   UNL     1       2.265  -2.071  -4.801  0.00  0.00    +0.197 C 
ATOM      6  O   UNL     1       2.101  -0.649  -4.804  0.00  0.00    -0.347 OA
ATOM      7  C   UNL     1       0.737  -0.225  -4.864  0.00  0.00    +0.165 C 
ATOM      8  O   UNL     1       0.021  -0.757  -3.746  0.00  0.00    -0.341 OA
ATOM      9  C   UNL     1       0.676   1.304  -4.828  0.00  0.00    +0.074 C 
ATOM     10  C   UNL     1       0.103  -0.729  -6.162  0.00  0.00    +0.074 C 
ATOM     11  O   UNL     1       2.098  -2.188  -2.387  0.00  0.00    -0.332 OA
ATOM     12  C   UNL     1       1.470  -2.629  -1.198  0.00  0.00    +0.331 C 
ENDROOT
BRANCH   1  16
ATOM     13  C   UNL     1      -1.067   1.492  -0.622  0.00  0.00    +0.109 C 
ATOM     14  C   UNL     1      -1.046  -0.015  -0.631  0.00  0.00    +0.210 C 
ATOM     15  O   UNL     1      -1.972  -0.636  -0.153  0.00  0.00    -0.276 OA
ATOM     16  N   UNL     1       0.000  -0.672  -1.169  0.00  0.00    -0.304 N 
ATOM     17  H   UNL     1       0.740  -0.174  -1.551  0.00  0.00    +0.149 HD
ENDBRANCH   1  16
BRANCH  12  18
ATOM     18  O   UNL     1       1.488  -4.058  -1.165  0.00  0.00    -0.462 OA
BRANCH  18  19
ATOM     19  C   UNL     1       2.693  -4.654  -0.968  0.00  0.00    +0.124 A 
ATOM     20  C   UNL     1       3.833  -3.881  -0.804  0.00  0.00    +0.046 A 
ATOM     21  C   UNL     1       5.057  -4.490  -0.604  0.00  0.00    +0.008 A 
ATOM     22  C   UNL     1       5.146  -5.869  -0.566  0.00  0.00    -0.042 A 
ATOM     23  C   UNL     1       4.012  -6.642  -0.730  0.00  0.00    +0.008 A 
ATOM     24  C   UNL     1       2.785  -6.038  -0.924  0.00  0.00    +0.046 A 
BRANCH  22  25
ATOM     25  C   UNL     1       6.483  -6.531  -0.348  0.00  0.00    -0.013 C 
ATOM     26  C   UNL     1       7.058  -6.086   0.998  0.00  0.00    +0.015 C 
ATOM     27  C   UNL     1       6.306  -8.050  -0.349  0.00  0.00    +0.015 C 
ATOM     28  C   UNL     1       7.441  -6.128  -1.470  0.00  0.00    +0.015 C 
ENDBRANCH  22  25
ENDBRANCH  18  19
ENDBRANCH  12  18
BRANCH   2  29
ATOM     29  O   UNL     1      -0.741  -4.080  -2.398  0.00  0.00    -0.361 OA
BRANCH  29  30
ATOM     30  C   UNL     1      -1.894  -4.618  -1.747  0.00  0.00    +0.285 C 
BRANCH  30  31
ATOM     31  C   UNL     1      -1.831  -6.124  -1.777  0.00  0.00    +0.381 C 
ATOM     32  O   UNL     1      -0.886  -6.684  -2.307  0.00  0.00    -0.244 OA
ATOM     33  O   UNL     1      -2.724  -6.781  -1.272  0.00  0.00    -0.244 OA
ENDBRANCH  30  31
ENDBRANCH  29  30
ENDBRANCH   2  29
TORSDOF 7
