REMARK  Name = ZINC13065098
REMARK  13 active torsions:
REMARK  status: ('A' for Active; 'I' for Inactive)
REMARK    1  A    between atoms: C_1  and  C_2
REMARK    2  A    between atoms: C_2  and  C_3
REMARK    3  A    between atoms: C_3  and  C_5
REMARK    4  A    between atoms: C_3  and  N_72
REMARK    5  A    between atoms: N_9  and  C_10
REMARK    6  A    between atoms: C_10  and  C_11
REMARK    7  A    between atoms: C_18  and  C_19
REMARK    8  A    between atoms: C_18  and  N_72
REMARK    9  A    between atoms: C_22  and  C_25
REMARK   10  A    between atoms: C_26  and  C_27
REMARK   11  A    between atoms: C_26  and  N_72
REMARK   12  A    between atoms: C_32  and  C_40
REMARK   13  A    between atoms: C_33  and  C_39
REMARK                            x       y       z     vdW  Elec       q    Type
REMARK                         _______ _______ _______ _____ _____    ______ ____
ROOT
ATOM      1  N   UNL     1       0.560   1.514   1.296  0.00  0.00    +0.392 N 
ATOM      2  H   UNL     1       0.022   1.644   2.161  0.00  0.00    -0.080 HD
ENDROOT
BRANCH   1   3
ATOM      3  C   UNL     1       1.522   0.409   1.490  0.00  0.00    +0.003 C 
BRANCH   3   4
ATOM      4  C   UNL     1       2.704   0.911   2.279  0.00  0.00    +0.138 A 
ATOM      5  N   UNL     1       2.668   1.682   3.338  0.00  0.00    -0.115 NA
ATOM      6  N   UNL     1       3.881   1.887   3.723  0.00  0.00    -0.023 NA
ATOM      7  N   UNL     1       4.690   1.274   2.931  0.00  0.00    -0.044 NA
ATOM      8  N   UNL     1       4.003   0.660   2.027  0.00  0.00    -0.226 N 
BRANCH   8   9
ATOM      9  C   UNL     1       4.536  -0.155   0.933  0.00  0.00    +0.182 C 
BRANCH   9  10
ATOM     10  C   UNL     1       4.781   0.718  -0.271  0.00  0.00    -0.026 A 
ATOM     11  C   UNL     1       3.781   0.899  -1.208  0.00  0.00    +0.008 A 
ATOM     12  C   UNL     1       4.003   1.703  -2.310  0.00  0.00    +0.038 A 
ATOM     13  C   UNL     1       5.231   2.319  -2.480  0.00  0.00    +0.123 A 
ATOM     14  C   UNL     1       6.234   2.133  -1.543  0.00  0.00    +0.038 A 
ATOM     15  C   UNL     1       6.008   1.333  -0.440  0.00  0.00    +0.008 A 
ATOM     16  F   UNL     1       5.451   3.102  -3.559  0.00  0.00    -0.205 F 
ENDBRANCH   9  10
ENDBRANCH   8   9
ENDBRANCH   3   4
BRANCH   3  18
ATOM     17  C   UNL     1       1.803  -1.877   2.458  0.00  0.00    +0.002 C 
ATOM     18  C   UNL     1       0.830  -0.712   2.268  0.00  0.00    -0.011 C 
ENDBRANCH   3  18
ENDBRANCH   1   3
BRANCH   1  19
ATOM     19  C   UNL     1       1.284   2.766   0.990  0.00  0.00    -0.042 C 
BRANCH  19  20
ATOM     20  C   UNL     1       0.310   3.915   1.037  0.00  0.00    -0.064 A 
ATOM     21  C   UNL     1      -0.221   4.419  -0.135  0.00  0.00    +0.002 A 
ATOM     22  C   UNL     1      -1.118   5.470  -0.091  0.00  0.00    +0.003 A 
ATOM     23  C   UNL     1      -1.477   6.023   1.124  0.00  0.00    -0.050 A 
ATOM     24  C   UNL     1      -0.942   5.521   2.296  0.00  0.00    +0.003 A 
ATOM     25  C   UNL     1      -0.048   4.468   2.252  0.00  0.00    +0.002 A 
ATOM     26  C   UNL     1      -2.451   7.172   1.172  0.00  0.00    +0.044 C 
ENDBRANCH  19  20
ENDBRANCH   1  19
BRANCH   1  27
ATOM     27  C   UNL     1      -0.371   1.187   0.196  0.00  0.00    -0.036 C 
BRANCH  27  28
ATOM     28  C   UNL     1      -1.421   0.241   0.719  0.00  0.00    +0.001 A 
ATOM     29  C   UNL     1      -2.349   0.683   1.602  0.00  0.00    +0.017 A 
ATOM     30  C   UNL     1      -3.358  -0.260   2.088  0.00  0.00    -0.001 A 
ATOM     31  C   UNL     1      -4.345   0.139   2.995  0.00  0.00    +0.010 A 
ATOM     32  C   UNL     1      -5.270  -0.766   3.432  0.00  0.00    +0.004 A 
ATOM     33  C   UNL     1      -5.239  -2.080   2.984  0.00  0.00    -0.046 A 
ATOM     34  C   UNL     1      -4.276  -2.495   2.089  0.00  0.00    -0.024 A 
ATOM     35  C   UNL     1      -3.324  -1.591   1.630  0.00  0.00    +0.052 A 
ATOM     36  N   UNL     1      -2.350  -1.979   0.735  0.00  0.00    -0.322 N 
ATOM     37  H   UNL     1      -2.328  -2.897   0.421  0.00  0.00    +0.169 HD
ATOM     38  C   UNL     1      -1.431  -1.105   0.291  0.00  0.00    +0.251 A 
ATOM     39  O   UNL     1      -0.584  -1.483  -0.500  0.00  0.00    -0.268 OA
ATOM     40  C   UNL     1      -4.255  -3.924   1.610  0.00  0.00    +0.046 C 
ATOM     41  C   UNL     1      -6.269  -3.062   3.480  0.00  0.00    +0.044 C 
ENDBRANCH  27  28
ENDBRANCH   1  27
TORSDOF 9
