REMARK  Name = ZINC37027177
REMARK  8 active torsions:
REMARK  status: ('A' for Active; 'I' for Inactive)
REMARK    1  A    between atoms: C_1  and  C_2
REMARK    2  A    between atoms: C_4  and  C_20
REMARK    3  A    between atoms: C_7  and  N_8
REMARK    4  A    between atoms: N_8  and  C_9
REMARK    5  A    between atoms: C_9  and  C_11
REMARK    6  A    between atoms: C_9  and  C_12
REMARK    7  A    between atoms: C_14  and  O_19
REMARK    8  A    between atoms: C_17  and  O_18
REMARK                            x       y       z     vdW  Elec       q    Type
REMARK                         _______ _______ _______ _____ _____    ______ ____
ROOT
ATOM      1  N   UNL     1      -0.241  -0.126   2.384  0.00  0.00    -0.337 N 
ATOM      2  H   UNL     1      -0.332   0.837   2.321  0.00  0.00    +0.147 HD
ENDROOT
BRANCH   1   9
ATOM      3  C   UNL     1      -0.799   1.179  -0.076  0.00  0.00    +0.045 C 
ATOM      4  C   UNL     1      -0.658  -0.318   0.019  0.00  0.00    -0.029 A 
ATOM      5  C   UNL     1      -0.795  -1.095  -1.109  0.00  0.00    +0.018 A 
ATOM      6  C   UNL     1      -0.663  -2.483  -1.020  0.00  0.00    +0.037 A 
ATOM      7  C   UNL     1      -0.394  -3.079   0.216  0.00  0.00    +0.015 A 
ATOM      8  C   UNL     1      -0.258  -2.298   1.340  0.00  0.00    +0.024 A 
ATOM      9  C   UNL     1      -0.384  -0.914   1.247  0.00  0.00    +0.031 A 
BRANCH   6  10
ATOM     10  C   UNL     1      -0.810  -3.319  -2.227  0.00  0.00    +0.242 C 
ATOM     11  O   UNL     1      -1.045  -2.799  -3.301  0.00  0.00    -0.270 OA
ATOM     12  N   UNL     1      -0.683  -4.658  -2.139  0.00  0.00    -0.325 N 
ATOM     13  H   UNL     1      -0.495  -5.072  -1.283  0.00  0.00    +0.145 HD
ATOM     14  H   UNL     1      -0.779  -5.207  -2.933  0.00  0.00    +0.145 HD
ENDBRANCH   6  10
ENDBRANCH   1   9
BRANCH   1  15
ATOM     15  C   UNL     1       0.047  -0.752   3.677  0.00  0.00    +0.101 C 
ATOM     16  C   UNL     1       1.556  -0.962   3.817  0.00  0.00    +0.033 C 
BRANCH  15  17
ATOM     17  C   UNL     1      -0.441   0.143   4.787  0.00  0.00    +0.017 A 
ATOM     18  C   UNL     1      -0.525   1.507   4.589  0.00  0.00    +0.054 A 
ATOM     19  C   UNL     1      -0.974   2.330   5.610  0.00  0.00    +0.117 A 
ATOM     20  C   UNL     1      -1.339   1.783   6.832  0.00  0.00    +0.049 A 
ATOM     21  C   UNL     1      -1.255   0.419   7.030  0.00  0.00    +0.049 A 
ATOM     22  C   UNL     1      -0.810  -0.405   6.006  0.00  0.00    +0.122 A 
BRANCH  22  23
ATOM     23  O   UNL     1      -0.733  -1.748   6.200  0.00  0.00    -0.506 OA
ATOM     24  H   UNL     1       0.118  -2.047   6.548  0.00  0.00    +0.292 HD
ENDBRANCH  22  23
BRANCH  19  25
ATOM     25  O   UNL     1      -1.056   3.674   5.415  0.00  0.00    -0.507 OA
ATOM     26  H   UNL     1      -1.909   3.969   5.069  0.00  0.00    +0.292 HD
ENDBRANCH  19  25
ENDBRANCH  15  17
ENDBRANCH   1  15
TORSDOF 6
