REMARK  Name = ZINC29334563
REMARK  5 active torsions:
REMARK  status: ('A' for Active; 'I' for Inactive)
REMARK    1  A    between atoms: C_3  and  C_6
REMARK    2  A    between atoms: C_9  and  C_19
REMARK    3  A    between atoms: C_12  and  C_14
REMARK    4  A    between atoms: C_14  and  S_15
REMARK    5  A    between atoms: S_15  and  C_16
REMARK                            x       y       z     vdW  Elec       q    Type
REMARK                         _______ _______ _______ _____ _____    ______ ____
ROOT
ATOM      1  C   UNL     1       3.602   5.502  -0.009  0.00  0.00    +0.173 C 
ATOM      2  C   UNL     1       5.144   5.483  -0.017  0.00  0.00    +0.090 C 
ATOM      3  C   UNL     1       5.490   4.011  -0.029  0.00  0.00    +0.069 C 
ATOM      4  N   UNL     1       4.406   3.314  -0.023  0.00  0.00    -0.181 NA
ATOM      5  N   UNL     1       3.240   4.076  -0.007  0.00  0.00    -0.181 N 
ATOM      6  C   UNL     1       1.984   3.586   0.002  0.00  0.00    +0.246 C 
ATOM      7  O   UNL     1       1.037   4.344   0.015  0.00  0.00    -0.273 OA
ENDROOT
BRANCH   3   8
ATOM      8  C   UNL     1       6.857   3.459  -0.046  0.00  0.00    -0.002 A 
ATOM      9  C   UNL     1       7.960   4.316  -0.058  0.00  0.00    +0.011 A 
ATOM     10  C   UNL     1       9.236   3.793  -0.066  0.00  0.00    +0.020 A 
ATOM     11  C   UNL     1       9.425   2.421  -0.076  0.00  0.00    +0.041 A 
ATOM     12  C   UNL     1       8.336   1.566  -0.070  0.00  0.00    +0.020 A 
ATOM     13  C   UNL     1       7.055   2.076  -0.055  0.00  0.00    +0.011 A 
ATOM     14 CL   UNL     1      11.034   1.771  -0.095  0.00  0.00    -0.084 Cl
ENDBRANCH   3   8
BRANCH   1  17
ATOM     15  C   UNL     1       2.183   7.655  -2.641  0.00  0.00    +0.041 A 
ATOM     16  C   UNL     1       2.554   7.424  -1.297  0.00  0.00    +0.046 A 
ATOM     17  C   UNL     1       3.070   6.183  -1.244  0.00  0.00    +0.128 A 
ATOM     18  O   UNL     1       3.037   5.656  -2.478  0.00  0.00    -0.466 OA
ATOM     19  C   UNL     1       2.494   6.542  -3.329  0.00  0.00    +0.195 A 
ENDBRANCH   1  17
BRANCH   6  20
ATOM     20  C   UNL     1       1.756   2.096  -0.004  0.00  0.00    +0.174 C 
BRANCH  20  21
ATOM     21  S   UNL     1      -0.022   1.758   0.012  0.00  0.00    -0.084 S 
BRANCH  21  22
ATOM     22  C   UNL     1       0.002  -0.004   0.002  0.00  0.00    +0.123 C 
ATOM     23  N   UNL     1       1.140  -0.641  -0.012  0.00  0.00    -0.382 N 
ATOM     24  N   UNL     1      -1.180  -0.708   0.009  0.00  0.00    -0.340 N 
ATOM     25  H   UNL     1       1.155  -1.741  -0.018  0.00  0.00    +0.158 HD
ATOM     26  H   UNL     1      -1.165  -1.808   0.003  0.00  0.00    +0.144 HD
ATOM     27  H   UNL     1      -2.140  -0.171   0.022  0.00  0.00    +0.144 HD
ATOM     28  H   UNL     1       2.085  -0.078  -0.018  0.00  0.00    +0.158 HD
ENDBRANCH  21  22
ENDBRANCH  20  21
ENDBRANCH   6  20
TORSDOF 5
