REMARK  Name = ZINC51036257
REMARK  6 active torsions:
REMARK  status: ('A' for Active; 'I' for Inactive)
REMARK    1  A    between atoms: C_1  and  C_2
REMARK    2  A    between atoms: C_2  and  C_4
REMARK    3  A    between atoms: C_2  and  N_23
REMARK    4  A    between atoms: C_4  and  C_6
REMARK    5  A    between atoms: C_4  and  S_12
REMARK    6  A    between atoms: S_12  and  C_13
REMARK                            x       y       z     vdW  Elec       q    Type
REMARK                         _______ _______ _______ _____ _____    ______ ____
ROOT
ATOM      1  C   UNL     1       0.663  -0.621   1.239  0.00  0.00    +0.075 C 
ENDROOT
BRANCH   1   2
ATOM      2  C   UNL     1       0.706  -2.124   1.132  0.00  0.00    +0.003 A 
ATOM      3  C   UNL     1       1.782  -2.948   1.123  0.00  0.00    +0.013 A 
ATOM      4  C   UNL     1       1.582  -4.311   1.016  0.00  0.00    +0.023 A 
ATOM      5  C   UNL     1       0.314  -4.784   0.922  0.00  0.00    +0.055 A 
ATOM      6  S   UNL     1      -0.646  -3.280   0.993  0.00  0.00    -0.085 S 
ATOM      7 BR   UNL     1      -0.282  -6.571   0.764  0.00  0.00    -0.043 Br
ENDBRANCH   1   2
BRANCH   1   9
ATOM      8  C   UNL     1       0.826  -0.347  -1.240  0.00  0.00    -0.013 C 
ATOM      9  C   UNL     1      -0.020  -0.042  -0.002  0.00  0.00    -0.060 C 
BRANCH   9  10
ATOM     10  N   UNL     1      -0.159   1.413   0.150  0.00  0.00    +0.381 N 
ATOM     11  H   UNL     1       0.755   1.829   0.256  0.00  0.00    -0.090 HD
ATOM     12  H   UNL     1      -0.609   1.795  -0.668  0.00  0.00    -0.090 HD
ATOM     13  H   UNL     1      -0.717   1.615   0.966  0.00  0.00    -0.090 HD
ENDBRANCH   9  10
ENDBRANCH   1   9
BRANCH   1  14
ATOM     14  S   UNL     1      -0.271  -0.146   2.720  0.00  0.00    -0.097 S 
BRANCH  14  15
ATOM     15  C   UNL     1       0.761  -0.656   4.055  0.00  0.00    +0.126 A 
ATOM     16  C   UNL     1       0.410  -0.371   5.377  0.00  0.00    +0.117 A 
ATOM     17  C   UNL     1       1.264  -0.799   6.406  0.00  0.00    +0.182 A 
ATOM     18  N   UNL     1       0.706  -0.404   7.566  0.00  0.00    -0.216 NA
ATOM     19  H   UNL     1      -1.402   0.683   5.556  0.00  0.00    +0.167 HD
ATOM     20  C   UNL     1      -0.411   0.224   7.326  0.00  0.00    +0.199 A 
ATOM     21  N   UNL     1      -0.640   0.273   5.995  0.00  0.00    -0.341 N 
ATOM     22  N   UNL     1       2.380  -1.462   6.080  0.00  0.00    -0.214 NA
ATOM     23  C   UNL     1       2.668  -1.707   4.822  0.00  0.00    +0.224 A 
ATOM     24  N   UNL     1       1.888  -1.326   3.826  0.00  0.00    -0.227 NA
ENDBRANCH  14  15
ENDBRANCH   1  14
TORSDOF 5
