REMARK  Name = ZINC39232714
REMARK  11 active torsions:
REMARK  status: ('A' for Active; 'I' for Inactive)
REMARK    1  A    between atoms: C_1  and  C_2
REMARK    2  A    between atoms: C_2  and  C_3
REMARK    3  A    between atoms: C_3  and  C_4
REMARK    4  A    between atoms: C_4  and  C_5
REMARK    5  A    between atoms: C_8  and  S_21
REMARK    6  A    between atoms: N_10  and  C_13
REMARK    7  A    between atoms: C_16  and  C_20
REMARK    8  A    between atoms: C_17  and  C_19
REMARK    9  A    between atoms: S_21  and  C_22
REMARK   10  A    between atoms: C_22  and  C_23
REMARK   11  A    between atoms: C_23  and  N_25
REMARK                            x       y       z     vdW  Elec       q    Type
REMARK                         _______ _______ _______ _____ _____    ______ ____
ROOT
ATOM      1  C   UNL     1      -2.539  -2.701   0.588  0.00  0.00    +0.161 C 
ATOM      2  C   UNL     1      -3.831  -2.327   1.255  0.00  0.00    +0.227 C 
ATOM      3  N   UNL     1      -4.865  -3.171   1.329  0.00  0.00    -0.287 N 
ATOM      4  C   UNL     1      -4.845  -4.511   0.764  0.00  0.00    +0.229 C 
ATOM      5  N   UNL     1      -3.490  -4.997   0.552  0.00  0.00    -0.242 N 
ATOM      6  C   UNL     1      -2.427  -4.193   0.462  0.00  0.00    +0.234 C 
ATOM      7  O   UNL     1      -1.334  -4.684   0.271  0.00  0.00    -0.274 OA
ATOM      8  O   UNL     1      -3.941  -1.222   1.743  0.00  0.00    -0.275 OA
ATOM      9  H   UNL     1      -5.669  -2.875   1.783  0.00  0.00    +0.151 HD
ENDROOT
BRANCH   5  10
ATOM     10  C   UNL     1      -3.291  -6.378   0.439  0.00  0.00    +0.039 A 
ATOM     11  C   UNL     1      -3.103  -7.150   1.577  0.00  0.00    +0.024 A 
ATOM     12  C   UNL     1      -2.907  -8.512   1.462  0.00  0.00    +0.005 A 
ATOM     13  C   UNL     1      -2.896  -9.107   0.213  0.00  0.00    -0.047 A 
ATOM     14  C   UNL     1      -3.082  -8.341  -0.923  0.00  0.00    -0.046 A 
ATOM     15  C   UNL     1      -3.285  -6.979  -0.813  0.00  0.00    +0.027 A 
ATOM     16  C   UNL     1      -3.069  -8.993  -2.281  0.00  0.00    +0.044 C 
ATOM     17  C   UNL     1      -2.680 -10.593   0.090  0.00  0.00    +0.044 C 
ENDBRANCH   5  10
BRANCH   1  18
ATOM     18  C   UNL     1      -1.369  -2.174   1.421  0.00  0.00    +0.022 C 
BRANCH  18  19
ATOM     19  C   UNL     1      -1.427  -2.783   2.824  0.00  0.00    +0.001 C 
BRANCH  19  21
ATOM     20  C   UNL     1      -0.272  -2.925   5.035  0.00  0.00    +0.004 C 
ATOM     21  C   UNL     1      -0.214  -2.316   3.632  0.00  0.00    -0.003 C 
ENDBRANCH  19  21
ENDBRANCH  18  19
ENDBRANCH   1  18
BRANCH   4  22
ATOM     22  S   UNL     1      -5.716  -4.492  -0.827  0.00  0.00    -0.109 S 
BRANCH  22  23
ATOM     23  C   UNL     1      -4.776  -3.306  -1.828  0.00  0.00    +0.170 C 
BRANCH  23  24
ATOM     24  C   UNL     1      -5.402  -3.194  -3.194  0.00  0.00    +0.248 C 
ATOM     25  O   UNL     1      -6.388  -3.851  -3.467  0.00  0.00    -0.273 OA
BRANCH  24  26
ATOM     26  N   UNL     1      -4.877  -2.377  -4.101  0.00  0.00    -0.156 NA
ATOM     27  C   UNL     1      -5.430  -2.278  -5.308  0.00  0.00    +0.164 A 
ATOM     28  N   UNL     1      -5.026  -1.505  -6.348  0.00  0.00    -0.335 N 
ATOM     29  H   UNL     1      -4.245  -0.936  -6.256  0.00  0.00    +0.168 HD
ATOM     30  C   UNL     1      -5.729  -1.531  -7.537  0.00  0.00    +0.055 A 
ATOM     31  C   UNL     1      -5.489  -0.822  -8.723  0.00  0.00    +0.027 A 
ATOM     32  C   UNL     1      -6.312  -0.984  -9.813  0.00  0.00    +0.002 A 
ATOM     33  C   UNL     1      -7.395  -1.846  -9.774  0.00  0.00    +0.001 A 
ATOM     34  C   UNL     1      -7.653  -2.558  -8.615  0.00  0.00    +0.017 A 
ATOM     35  C   UNL     1      -6.832  -2.397  -7.524  0.00  0.00    +0.039 A 
ATOM     36  S   UNL     1      -6.783  -3.087  -5.891  0.00  0.00    -0.052 S 
ENDBRANCH  24  26
ENDBRANCH  23  24
ENDBRANCH  22  23
ENDBRANCH   4  22
TORSDOF 8
