REMARK  Name = ZINC55135585
REMARK  5 active torsions:
REMARK  status: ('A' for Active; 'I' for Inactive)
REMARK    1  A    between atoms: C_1  and  C_2
REMARK    2  A    between atoms: C_7  and  C_12
REMARK    3  A    between atoms: C_9  and  N_11
REMARK    4  A    between atoms: N_14  and  C_15
REMARK    5  A    between atoms: C_15  and  C_16
REMARK                            x       y       z     vdW  Elec       q    Type
REMARK                         _______ _______ _______ _____ _____    ______ ____
ROOT
ATOM      1  C   UNL     1      -0.118   1.669   0.490  0.00  0.00    +0.006 C 
ATOM      2  C   UNL     1      -0.228   0.177   0.169  0.00  0.00    -0.028 C 
ATOM      3  C   UNL     1      -1.660  -0.295   0.428  0.00  0.00    +0.002 C 
ATOM      4  C   UNL     1      -2.016  -0.062   1.898  0.00  0.00    +0.001 C 
ATOM      5  C   UNL     1      -1.051  -0.848   2.787  0.00  0.00    +0.011 C 
ATOM      6  C   UNL     1       0.381  -0.376   2.528  0.00  0.00    +0.061 C 
ATOM      7  C   UNL     1       0.737  -0.609   1.058  0.00  0.00    -0.060 C 
ENDROOT
BRANCH   7   8
ATOM      8  N   UNL     1       2.112  -0.155   0.810  0.00  0.00    +0.381 N 
ATOM      9  H   UNL     1       2.153   0.851   0.885  0.00  0.00    -0.090 HD
ATOM     10  H   UNL     1       2.731  -0.569   1.490  0.00  0.00    -0.090 HD
ATOM     11  H   UNL     1       2.396  -0.434  -0.117  0.00  0.00    -0.090 HD
ENDBRANCH   7   8
BRANCH   6  12
ATOM     12  C   UNL     1       0.490   1.094   2.844  0.00  0.00    +0.215 C 
ATOM     13  O   UNL     1      -0.482   1.703   3.238  0.00  0.00    -0.276 OA
ATOM     14  N   UNL     1       1.667   1.731   2.690  0.00  0.00    -0.315 N 
ATOM     15  H   UNL     1       2.462   1.230   2.449  0.00  0.00    +0.149 HD
BRANCH  14  16
ATOM     16  C   UNL     1       1.747   3.181   2.885  0.00  0.00    +0.110 C 
BRANCH  16  17
ATOM     17  C   UNL     1       3.185   3.649   2.651  0.00  0.00    +0.032 C 
ATOM     18  C   UNL     1       3.296   5.142   2.973  0.00  0.00    +0.009 C 
ATOM     19  C   UNL     1       4.719   5.616   2.660  0.00  0.00    +0.028 C 
ATOM     20  C   UNL     1       5.039   5.313   1.194  0.00  0.00    +0.160 C 
ATOM     21  O   UNL     1       4.887   3.912   0.955  0.00  0.00    -0.379 OA
ATOM     22  C   UNL     1       3.565   3.420   1.186  0.00  0.00    +0.164 C 
ENDBRANCH  16  17
ENDBRANCH  14  16
ENDBRANCH   6  12
TORSDOF 4
