REMARK  Name = ZINC44170276
REMARK  13 active torsions:
REMARK  status: ('A' for Active; 'I' for Inactive)
REMARK    1  A    between atoms: C_1  and  C_2
REMARK    2  A    between atoms: C_2  and  C_3
REMARK    3  A    between atoms: C_2  and  C_4
REMARK    4  A    between atoms: C_2  and  C_5
REMARK    5  A    between atoms: C_7  and  C_16
REMARK    6  A    between atoms: C_9  and  C_12
REMARK    7  A    between atoms: C_10  and  O_11
REMARK    8  A    between atoms: C_12  and  C_13
REMARK    9  A    between atoms: C_12  and  C_14
REMARK   10  A    between atoms: C_12  and  C_15
REMARK   11  A    between atoms: C_21  and  C_24
REMARK   12  A    between atoms: N_26  and  C_27
REMARK   13  A    between atoms: C_27  and  C_28
REMARK                            x       y       z     vdW  Elec       q    Type
REMARK                         _______ _______ _______ _____ _____    ______ ____
ROOT
ATOM      1  C   UNL     1       2.418   0.968  -4.270  0.00  0.00    -0.030 C 
ATOM      2  C   UNL     1       3.926   1.125  -4.043  0.00  0.00    +0.058 C 
ATOM      3  S   UNL     1       4.550   2.380  -5.205  0.00  0.00    -0.163 S 
ATOM      4  C   UNL     1       3.868   1.822  -6.798  0.00  0.00    +0.062 C 
ATOM      5  C   UNL     1       2.368   1.561  -6.613  0.00  0.00    +0.027 C 
ATOM      6  N   UNL     1       2.169   0.491  -5.632  0.00  0.00    +0.392 N 
ATOM      7  H   UNL     1       2.800  -0.269  -5.837  0.00  0.00    -0.084 HD
ATOM      8  H   UNL     1       1.219   0.157  -5.697  0.00  0.00    -0.084 HD
ENDROOT
BRANCH   1  11
ATOM      9  C   UNL     1       0.707  -0.490  -1.238  0.00  0.00    -0.000 A 
ATOM     10  C   UNL     1       1.217   0.419  -2.145  0.00  0.00    +0.009 A 
ATOM     11  C   UNL     1       1.864  -0.026  -3.283  0.00  0.00    -0.060 A 
ATOM     12  C   UNL     1       2.003  -1.382  -3.516  0.00  0.00    +0.009 A 
ATOM     13  C   UNL     1       1.496  -2.295  -2.612  0.00  0.00    -0.000 A 
ATOM     14  C   UNL     1       0.851  -1.851  -1.467  0.00  0.00    +0.124 A 
BRANCH   9  16
ATOM     15  C   UNL     1      -0.019   1.526   0.010  0.00  0.00    +0.015 C 
ATOM     16  C   UNL     1       0.002  -0.004   0.002  0.00  0.00    -0.009 C 
ATOM     17  C   UNL     1       0.742  -0.511   1.242  0.00  0.00    +0.015 C 
ATOM     18  C   UNL     1      -1.433  -0.534   0.013  0.00  0.00    +0.015 C 
ENDBRANCH   9  16
BRANCH  13  19
ATOM     19  C   UNL     1       1.648  -3.773  -2.867  0.00  0.00    -0.009 C 
ATOM     20  C   UNL     1       2.396  -3.989  -4.184  0.00  0.00    +0.015 C 
ATOM     21  C   UNL     1       2.438  -4.409  -1.722  0.00  0.00    +0.015 C 
ATOM     22  C   UNL     1       0.264  -4.420  -2.953  0.00  0.00    +0.015 C 
ENDBRANCH  13  19
BRANCH  14  23
ATOM     23  O   UNL     1       0.356  -2.747  -0.573  0.00  0.00    -0.506 OA
ATOM     24  H   UNL     1      -0.556  -3.015  -0.749  0.00  0.00    +0.292 HD
ENDBRANCH  14  23
ENDBRANCH   1  11
BRANCH   5  25
ATOM     25  C   UNL     1       1.766   1.149  -7.931  0.00  0.00    +0.200 C 
ATOM     26  O   UNL     1       1.228   0.067  -8.040  0.00  0.00    -0.278 OA
ATOM     27  N   UNL     1       1.824   1.982  -8.989  0.00  0.00    -0.313 N 
ATOM     28  H   UNL     1       2.253   2.848  -8.901  0.00  0.00    +0.149 HD
BRANCH  27  29
ATOM     29  C   UNL     1       1.238   1.582 -10.270  0.00  0.00    +0.139 C 
BRANCH  29  30
ATOM     30  C   UNL     1       1.435   2.683 -11.279  0.00  0.00    -0.029 A 
ATOM     31  C   UNL     1       0.484   3.678 -11.412  0.00  0.00    +0.005 A 
ATOM     32  C   UNL     1       0.665   4.689 -12.337  0.00  0.00    +0.002 A 
ATOM     33  C   UNL     1       1.797   4.706 -13.131  0.00  0.00    +0.020 A 
ATOM     34  C   UNL     1       2.749   3.711 -12.998  0.00  0.00    +0.041 A 
ATOM     35  C   UNL     1       2.570   2.703 -12.067  0.00  0.00    +0.025 A 
ATOM     36 CL   UNL     1       4.171   3.732 -13.994  0.00  0.00    -0.084 Cl
ENDBRANCH  29  30
ENDBRANCH  27  29
ENDBRANCH   5  25
TORSDOF 7
