REMARK  Name = ZINC55392985
REMARK  11 active torsions:
REMARK  status: ('A' for Active; 'I' for Inactive)
REMARK    1  A    between atoms: C_1  and  C_2
REMARK    2  A    between atoms: C_2  and  C_3
REMARK    3  A    between atoms: C_3  and  C_4
REMARK    4  A    between atoms: N_6  and  C_7
REMARK    5  A    between atoms: C_9  and  C_14
REMARK    6  A    between atoms: C_12  and  C_13
REMARK    7  A    between atoms: N_16  and  C_17
REMARK    8  A    between atoms: C_17  and  C_18
REMARK    9  A    between atoms: C_18  and  C_19
REMARK   10  A    between atoms: C_19  and  N_20
REMARK   11  A    between atoms: C_24  and  C_27
REMARK                            x       y       z     vdW  Elec       q    Type
REMARK                         _______ _______ _______ _____ _____    ______ ____
ROOT
ATOM      1  C   UNL     1       0.106  -6.833  -0.193  0.00  0.00    +0.244 C 
ATOM      2  O   UNL     1       1.130  -6.184  -0.108  0.00  0.00    -0.270 OA
ATOM      3  N   UNL     1       0.165  -8.176  -0.289  0.00  0.00    -0.311 N 
ATOM      4  H   UNL     1      -0.653  -8.693  -0.357  0.00  0.00    +0.149 HD
ENDROOT
BRANCH   1   7
ATOM      5  C   UNL     1      -2.502  -4.124  -0.089  0.00  0.00    +0.037 A 
ATOM      6  C   UNL     1      -1.269  -4.759  -0.090  0.00  0.00    +0.036 A 
ATOM      7  C   UNL     1      -1.205  -6.148  -0.190  0.00  0.00    +0.038 A 
ATOM      8  C   UNL     1      -2.383  -6.891  -0.288  0.00  0.00    +0.013 A 
ATOM      9  C   UNL     1      -3.605  -6.250  -0.286  0.00  0.00    +0.006 A 
ATOM     10  C   UNL     1      -3.668  -4.873  -0.181  0.00  0.00    -0.029 A 
ATOM     11  C   UNL     1      -5.007  -4.181  -0.173  0.00  0.00    +0.045 C 
BRANCH   5  14
ATOM     12  C   UNL     1      -1.565  -2.046   0.592  0.00  0.00    +0.217 C 
ATOM     13  O   UNL     1      -0.648  -2.642   1.115  0.00  0.00    -0.275 OA
ATOM     14  N   UNL     1      -2.571  -2.730   0.012  0.00  0.00    -0.285 N 
ATOM     15  H   UNL     1      -3.343  -2.257  -0.336  0.00  0.00    +0.155 HD
BRANCH  12  16
ATOM     16  C   UNL     1      -1.580  -0.539   0.590  0.00  0.00    +0.096 C 
BRANCH  16  18
ATOM     17  C   UNL     1      -0.349   1.515   1.305  0.00  0.00    +0.004 C 
ATOM     18  C   UNL     1      -0.334  -0.015   1.307  0.00  0.00    +0.006 C 
ENDBRANCH  16  18
ENDBRANCH  12  16
ENDBRANCH   5  14
ENDBRANCH   1   7
BRANCH   3  19
ATOM     19  C   UNL     1       1.463  -8.854  -0.292  0.00  0.00    +0.106 C 
BRANCH  19  20
ATOM     20  C   UNL     1       1.250 -10.364  -0.411  0.00  0.00    +0.037 C 
BRANCH  20  21
ATOM     21  C   UNL     1       2.606 -11.072  -0.414  0.00  0.00    +0.104 C 
BRANCH  21  22
ATOM     22  N   UNL     1       2.402 -12.518  -0.528  0.00  0.00    -0.330 N 
ATOM     23  C   UNL     1       3.496 -13.375  -0.551  0.00  0.00    +0.096 A 
ATOM     24  C   UNL     1       4.783 -12.853  -0.460  0.00  0.00    +0.042 A 
ATOM     25  C   UNL     1       5.863 -13.717  -0.485  0.00  0.00    +0.008 A 
ATOM     26  C   UNL     1       5.619 -15.079  -0.600  0.00  0.00    -0.034 A 
ATOM     27  C   UNL     1       4.316 -15.528  -0.685  0.00  0.00    +0.087 A 
ATOM     28  N   UNL     1       3.305 -14.681  -0.654  0.00  0.00    -0.350 N 
ATOM     29  C   UNL     1       6.765 -16.057  -0.631  0.00  0.00    +0.045 C 
ATOM     30  H   UNL     1       1.503 -12.878  -0.587  0.00  0.00    +0.147 HD
ATOM     31  H   UNL     1       2.399 -15.023  -0.712  0.00  0.00    +0.167 HD
ENDBRANCH  21  22
ENDBRANCH  20  21
ENDBRANCH  19  20
ENDBRANCH   3  19
TORSDOF 8
