REMARK  Name = ZINC53607773
REMARK  12 active torsions:
REMARK  status: ('A' for Active; 'I' for Inactive)
REMARK    1  A    between atoms: C_1  and  C_2
REMARK    2  A    between atoms: C_2  and  C_3
REMARK    3  A    between atoms: C_3  and  C_5
REMARK    4  A    between atoms: C_3  and  C_6
REMARK    5  A    between atoms: C_6  and  C_8
REMARK    6  A    between atoms: C_6  and  N_29
REMARK    7  A    between atoms: N_10  and  C_11
REMARK    8  A    between atoms: C_11  and  C_12
REMARK    9  A    between atoms: C_17  and  C_18
REMARK   10  A    between atoms: C_18  and  N_19
REMARK   11  A    between atoms: C_21  and  C_28
REMARK   12  A    between atoms: C_24  and  C_27
REMARK                            x       y       z     vdW  Elec       q    Type
REMARK                         _______ _______ _______ _____ _____    ______ ____
ROOT
ATOM      1  C   UNL     1      -2.975  -3.819  -2.549  0.00  0.00    +0.139 C 
ENDROOT
BRANCH   1   2
ATOM      2  C   UNL     1      -3.331  -3.273  -3.908  0.00  0.00    -0.029 A 
ATOM      3  C   UNL     1      -4.252  -2.248  -4.022  0.00  0.00    +0.005 A 
ATOM      4  C   UNL     1      -4.578  -1.747  -5.268  0.00  0.00    +0.000 A 
ATOM      5  C   UNL     1      -3.983  -2.271  -6.401  0.00  0.00    +0.000 A 
ATOM      6  C   UNL     1      -3.063  -3.296  -6.287  0.00  0.00    +0.002 A 
ATOM      7  C   UNL     1      -2.733  -3.793  -5.040  0.00  0.00    -0.059 A 
BRANCH   7   8
ATOM      8  C   UNL     1      -1.725  -4.907  -4.915  0.00  0.00    -0.043 C 
BRANCH   8   9
ATOM      9  N   UNL     1      -0.406  -4.340  -4.602  0.00  0.00    +0.383 N 
ATOM     10  C   UNL     1       0.062  -3.536  -5.737  0.00  0.00    -0.075 C 
ATOM     11  C   UNL     1       1.398  -2.878  -5.384  0.00  0.00    -0.031 C 
ATOM     12  C   UNL     1       2.428  -3.966  -5.067  0.00  0.00    +0.003 C 
ATOM     13  C   UNL     1       1.896  -4.844  -3.931  0.00  0.00    -0.031 C 
ATOM     14  C   UNL     1       0.542  -5.429  -4.338  0.00  0.00    -0.075 C 
ATOM     15  C   UNL     1       2.884  -5.980  -3.659  0.00  0.00    +0.005 C 
ATOM     16  C   UNL     1       1.884  -2.042  -6.569  0.00  0.00    +0.005 C 
ATOM     17  H   UNL     1      -0.479  -3.754  -3.784  0.00  0.00    -0.081 HD
ENDBRANCH   8   9
ENDBRANCH   7   8
ENDBRANCH   1   2
BRANCH   1  20
ATOM     18  C   UNL     1      -1.151  -3.631  -0.945  0.00  0.00    +0.234 C 
ATOM     19  O   UNL     1      -1.721  -4.439  -0.243  0.00  0.00    -0.274 OA
ATOM     20  N   UNL     1      -1.721  -3.214  -2.093  0.00  0.00    -0.310 N 
ATOM     21  H   UNL     1      -1.302  -2.514  -2.617  0.00  0.00    +0.149 HD
BRANCH  18  22
ATOM     22  C   UNL     1       0.196  -3.093  -0.535  0.00  0.00    +0.163 C 
BRANCH  22  23
ATOM     23  N   UNL     1       0.714  -3.878   0.589  0.00  0.00    -0.288 N 
ATOM     24  C   UNL     1       2.042  -3.946   0.808  0.00  0.00    +0.298 C 
ATOM     25  O   UNL     1       2.810  -3.357   0.073  0.00  0.00    -0.253 OA
ATOM     26  N   UNL     1       2.518  -4.668   1.842  0.00  0.00    -0.313 N 
ATOM     27  H   UNL     1       0.100  -4.349   1.175  0.00  0.00    +0.151 HD
ATOM     28  H   UNL     1       1.904  -5.139   2.428  0.00  0.00    +0.146 HD
ATOM     29  H   UNL     1       3.473  -4.718   1.999  0.00  0.00    +0.146 HD
ENDBRANCH  22  23
BRANCH  22  30
ATOM     30  C   UNL     1       0.053  -1.630  -0.112  0.00  0.00    +0.015 C 
ATOM     31  C   UNL     1      -0.907  -1.534   1.075  0.00  0.00    +0.010 C 
BRANCH  30  33
ATOM     32  C   UNL     1       1.302   0.414   0.598  0.00  0.00    +0.004 C 
ATOM     33  C   UNL     1       1.422  -1.080   0.294  0.00  0.00    +0.002 C 
ENDBRANCH  30  33
ENDBRANCH  22  30
ENDBRANCH  18  22
ENDBRANCH   1  20
TORSDOF 8
