REMARK  Name = ZINC22362999
REMARK  7 active torsions:
REMARK  status: ('A' for Active; 'I' for Inactive)
REMARK    1  A    between atoms: C_1  and  C_2
REMARK    2  A    between atoms: C_6  and  C_27
REMARK    3  A    between atoms: C_7  and  N_8
REMARK    4  A    between atoms: N_8  and  C_9
REMARK    5  A    between atoms: C_9  and  N_11
REMARK    6  A    between atoms: N_17  and  C_20
REMARK    7  A    between atoms: C_20  and  C_21
REMARK                            x       y       z     vdW  Elec       q    Type
REMARK                         _______ _______ _______ _____ _____    ______ ____
ROOT
ATOM      1  N   UNL     1      -2.759  -1.721   0.269  0.00  0.00    -0.271 N 
ATOM      2  C   UNL     1      -1.500  -2.157  -0.090  0.00  0.00    +0.159 C 
ATOM      3  N   UNL     1      -0.493  -1.331  -0.067  0.00  0.00    -0.375 N 
ATOM      4  N   UNL     1      -1.308  -3.463  -0.473  0.00  0.00    -0.302 N 
ATOM      5  C   UNL     1       0.042  -3.980  -0.744  0.00  0.00    +0.123 C 
ATOM      6  C   UNL     1       0.233  -5.274   0.063  0.00  0.00    +0.103 C 
ATOM      7  N   UNL     1      -0.861  -6.204  -0.246  0.00  0.00    -0.295 NA
ATOM      8  C   UNL     1      -2.159  -5.656   0.168  0.00  0.00    +0.103 C 
ATOM      9  C   UNL     1      -2.448  -4.379  -0.629  0.00  0.00    +0.123 C 
ATOM     10  H   UNL     1      -3.590  -2.438   0.341  0.00  0.00    +0.156 HD
ATOM     11  H   UNL     1       0.510  -1.678  -0.354  0.00  0.00    +0.158 HD
ATOM     12  H   UNL     1      -0.646  -0.285   0.239  0.00  0.00    +0.158 HD
ENDROOT
BRANCH   1  13
ATOM     13  C   UNL     1      -2.970  -0.416   0.533  0.00  0.00    +0.141 C 
ATOM     14  S   UNL     1      -1.677   0.700   0.422  0.00  0.00    -0.018 S 
BRANCH  13  15
ATOM     15  N   UNL     1      -4.199   0.010   0.885  0.00  0.00    -0.296 N 
ATOM     16  H   UNL     1      -5.009  -0.718   1.044  0.00  0.00    +0.154 HD
BRANCH  15  23
ATOM     17  C   UNL     1      -6.126   1.239  -0.811  0.00  0.00    +0.045 C 
ATOM     18  C   UNL     1      -5.378   2.017   0.241  0.00  0.00    -0.029 A 
ATOM     19  C   UNL     1      -5.624   3.366   0.409  0.00  0.00    +0.005 A 
ATOM     20  C   UNL     1      -4.934   4.082   1.370  0.00  0.00    +0.001 A 
ATOM     21  C   UNL     1      -4.001   3.449   2.170  0.00  0.00    +0.005 A 
ATOM     22  C   UNL     1      -3.755   2.099   2.012  0.00  0.00    -0.029 A 
ATOM     23  C   UNL     1      -4.446   1.377   1.048  0.00  0.00    +0.038 A 
ATOM     24  C   UNL     1      -2.738   1.410   2.886  0.00  0.00    +0.045 C 
ENDBRANCH  15  23
ENDBRANCH  13  15
ENDBRANCH   1  13
BRANCH   7  25
ATOM     25  C   UNL     1      -0.625  -7.518   0.368  0.00  0.00    +0.119 C 
BRANCH  25  26
ATOM     26  C   UNL     1       0.802  -7.937   0.124  0.00  0.00    -0.033 A 
ATOM     27  C   UNL     1       1.125  -8.669  -1.003  0.00  0.00    +0.005 A 
ATOM     28  C   UNL     1       2.434  -9.049  -1.229  0.00  0.00    +0.000 A 
ATOM     29  C   UNL     1       3.420  -8.706  -0.322  0.00  0.00    +0.000 A 
ATOM     30  C   UNL     1       3.096  -7.978   0.808  0.00  0.00    +0.000 A 
ATOM     31  C   UNL     1       1.788  -7.593   1.031  0.00  0.00    +0.005 A 
ENDBRANCH  25  26
ENDBRANCH   7  25
TORSDOF 5
