REMARK  Name = ZINC58790767
REMARK  15 active torsions:
REMARK  status: ('A' for Active; 'I' for Inactive)
REMARK    1  A    between atoms: C_1  and  C_2
REMARK    2  A    between atoms: C_2  and  C_3
REMARK    3  A    between atoms: C_3  and  C_4
REMARK    4  A    between atoms: C_4  and  N_5
REMARK    5  A    between atoms: C_6  and  N_33
REMARK    6  A    between atoms: C_7  and  N_14
REMARK    7  A    between atoms: N_14  and  C_15
REMARK    8  A    between atoms: C_15  and  C_16
REMARK    9  A    between atoms: C_17  and  C_19
REMARK   10  A    between atoms: C_19  and  N_20
REMARK   11  A    between atoms: N_20  and  C_21
REMARK   12  A    between atoms: N_20  and  C_30
REMARK   13  A    between atoms: C_21  and  C_22
REMARK   14  A    between atoms: C_25  and  C_28
REMARK   15  A    between atoms: C_28  and  C_29
REMARK                            x       y       z     vdW  Elec       q    Type
REMARK                         _______ _______ _______ _____ _____    ______ ____
ROOT
ATOM      1  N   UNL     1      -5.331  -3.516   2.467  0.00  0.00    -0.266 N 
ATOM      2  C   UNL     1      -4.702  -3.256   3.632  0.00  0.00    +0.203 C 
ATOM      3  O   UNL     1      -3.585  -2.782   3.626  0.00  0.00    -0.277 OA
ENDROOT
BRANCH   1   6
ATOM      4  N   UNL     1      -4.711  -1.829  -0.738  0.00  0.00    -0.280 N 
ATOM      5  C   UNL     1      -5.316  -2.174   0.448  0.00  0.00    +0.127 A 
ATOM      6  C   UNL     1      -4.735  -3.141   1.244  0.00  0.00    +0.140 A 
ATOM      7  C   UNL     1      -3.538  -3.745   0.816  0.00  0.00    +0.277 A 
ATOM      8  O   UNL     1      -3.005  -4.602   1.499  0.00  0.00    -0.266 OA
ATOM      9  N   UNL     1      -2.987  -3.371  -0.355  0.00  0.00    -0.273 N 
ATOM     10  H   UNL     1      -2.163  -3.787  -0.652  0.00  0.00    +0.173 HD
ATOM     11  C   UNL     1      -3.570  -2.431  -1.121  0.00  0.00    +0.331 A 
ATOM     12  O   UNL     1      -3.054  -2.115  -2.175  0.00  0.00    -0.246 OA
BRANCH   5  13
ATOM     13  N   UNL     1      -6.484  -1.563   0.837  0.00  0.00    -0.343 N 
ATOM     14  H   UNL     1      -6.850  -0.837   0.308  0.00  0.00    +0.144 HD
ATOM     15  H   UNL     1      -6.942  -1.859   1.639  0.00  0.00    +0.144 HD
ENDBRANCH   5  13
BRANCH   4  16
ATOM     16  C   UNL     1      -5.316  -0.805  -1.593  0.00  0.00    +0.128 C 
BRANCH  16  17
ATOM     17  C   UNL     1      -6.291  -1.466  -2.569  0.00  0.00    +0.021 C 
BRANCH  17  19
ATOM     18  C   UNL     1      -7.898  -1.058  -4.438  0.00  0.00    +0.004 C 
ATOM     19  C   UNL     1      -6.923  -0.397  -3.462  0.00  0.00    -0.002 C 
ENDBRANCH  17  19
ENDBRANCH  16  17
ENDBRANCH   4  16
ENDBRANCH   1   6
BRANCH   1  20
ATOM     20  C   UNL     1      -6.632  -4.189   2.472  0.00  0.00    +0.110 C 
ATOM     21  C   UNL     1      -6.423  -5.704   2.526  0.00  0.00    +0.025 C 
ENDBRANCH   1  20
BRANCH   2  22
ATOM     22  C   UNL     1      -5.387  -3.554   4.941  0.00  0.00    +0.020 C 
BRANCH  22  23
ATOM     23  N   UNL     1      -4.565  -3.050   6.049  0.00  0.00    +0.390 N 
ATOM     24  H   UNL     1      -3.629  -3.417   5.968  0.00  0.00    -0.080 HD
BRANCH  23  25
ATOM     25  C   UNL     1      -5.150  -3.478   7.327  0.00  0.00    -0.068 C 
ATOM     26  C   UNL     1      -4.203  -4.063   8.377  0.00  0.00    -0.017 C 
ATOM     27  C   UNL     1      -5.173  -4.978   7.626  0.00  0.00    -0.017 C 
ENDBRANCH  23  25
BRANCH  23  28
ATOM     28  C   UNL     1      -4.520  -1.582   5.998  0.00  0.00    -0.042 C 
BRANCH  28  29
ATOM     29  C   UNL     1      -3.580  -1.071   7.059  0.00  0.00    -0.064 A 
ATOM     30  C   UNL     1      -4.055  -0.787   8.325  0.00  0.00    +0.002 A 
ATOM     31  C   UNL     1      -3.192  -0.318   9.298  0.00  0.00    +0.004 A 
ATOM     32  C   UNL     1      -1.854  -0.133   9.005  0.00  0.00    -0.048 A 
ATOM     33  C   UNL     1      -1.379  -0.418   7.738  0.00  0.00    +0.004 A 
ATOM     34  C   UNL     1      -2.241  -0.891   6.766  0.00  0.00    +0.002 A 
BRANCH  32  35
ATOM     35  C   UNL     1      -0.913   0.379  10.065  0.00  0.00    +0.032 C 
ATOM     36  C   UNL     1      -0.318  -0.803  10.833  0.00  0.00    +0.009 C 
ENDBRANCH  32  35
ENDBRANCH  28  29
ENDBRANCH  23  28
ENDBRANCH  22  23
ENDBRANCH   2  22
TORSDOF 12
