REMARK  Name = ZINC64888394
REMARK  7 active torsions:
REMARK  status: ('A' for Active; 'I' for Inactive)
REMARK    1  A    between atoms: C_1  and  N_2
REMARK    2  A    between atoms: C_5  and  C_17
REMARK    3  A    between atoms: N_7  and  C_10
REMARK    4  A    between atoms: C_19  and  C_22
REMARK    5  A    between atoms: C_22  and  C_23
REMARK    6  A    between atoms: C_23  and  C_24
REMARK    7  A    between atoms: N_26  and  C_27
REMARK                            x       y       z     vdW  Elec       q    Type
REMARK                         _______ _______ _______ _____ _____    ______ ____
ROOT
ATOM      1  C   UNL     1      -1.010  -2.743  -2.311  0.00  0.00    +0.228 A 
ATOM      2  N   UNL     1      -1.499  -3.994  -2.398  0.00  0.00    -0.190 NA
ATOM      3  C   UNL     1      -1.824  -4.261  -3.631  0.00  0.00    +0.228 A 
ATOM      4  O   UNL     1      -1.554  -3.187  -4.384  0.00  0.00    -0.338 OA
ATOM      5  N   UNL     1      -1.029  -2.203  -3.506  0.00  0.00    -0.054 NA
ENDROOT
BRANCH   1  10
ATOM      6  C   UNL     1       0.907   1.241   0.029  0.00  0.00    +0.157 C 
ATOM      7  N   UNL     1       0.397  -0.132   0.042  0.00  0.00    -0.261 N 
ATOM      8  C   UNL     1      -0.027  -0.703  -1.105  0.00  0.00    +0.286 A 
ATOM      9  O   UNL     1       0.012  -0.086  -2.153  0.00  0.00    -0.265 OA
ATOM     10  C   UNL     1      -0.536  -2.084  -1.072  0.00  0.00    +0.196 A 
ATOM     11  N   UNL     1      -0.564  -2.722   0.076  0.00  0.00    -0.153 NA
ATOM     12  N   UNL     1      -0.112  -2.083   1.237  0.00  0.00    -0.181 N 
ATOM     13  C   UNL     1       0.356  -0.824   1.196  0.00  0.00    +0.353 A 
ATOM     14  O   UNL     1       0.746  -0.298   2.220  0.00  0.00    -0.244 OA
BRANCH  12  15
ATOM     15  C   UNL     1      -0.144  -2.767   2.458  0.00  0.00    +0.071 A 
ATOM     16  C   UNL     1       0.371  -4.053   2.548  0.00  0.00    +0.029 A 
ATOM     17  C   UNL     1       0.338  -4.726   3.754  0.00  0.00    +0.022 A 
ATOM     18  C   UNL     1      -0.207  -4.119   4.872  0.00  0.00    +0.041 A 
ATOM     19  C   UNL     1      -0.722  -2.837   4.784  0.00  0.00    +0.022 A 
ATOM     20  C   UNL     1      -0.686  -2.158   3.583  0.00  0.00    +0.029 A 
ATOM     21 CL   UNL     1      -0.247  -4.967   6.386  0.00  0.00    -0.084 Cl
ENDBRANCH  12  15
ENDBRANCH   1  10
BRANCH   3  22
ATOM     22  C   UNL     1      -2.405  -5.560  -4.126  0.00  0.00    +0.108 C 
BRANCH  22  23
ATOM     23  C   UNL     1      -3.932  -5.497  -4.053  0.00  0.00    +0.105 C 
BRANCH  23  24
ATOM     24  C   UNL     1      -4.513  -6.796  -4.548  0.00  0.00    +0.218 C 
ATOM     25  O   UNL     1      -3.778  -7.685  -4.923  0.00  0.00    -0.275 OA
ATOM     26  N   UNL     1      -5.849  -6.971  -4.575  0.00  0.00    -0.285 N 
ATOM     27  H   UNL     1      -6.438  -6.236  -4.344  0.00  0.00    +0.155 HD
BRANCH  26  28
ATOM     28  C   UNL     1      -6.386  -8.212  -4.935  0.00  0.00    +0.036 A 
ATOM     29  C   UNL     1      -7.590  -8.275  -5.625  0.00  0.00    +0.023 A 
ATOM     30  C   UNL     1      -8.118  -9.501  -5.980  0.00  0.00    +0.005 A 
ATOM     31  C   UNL     1      -7.450 -10.665  -5.650  0.00  0.00    +0.038 A 
ATOM     32  C   UNL     1      -6.249 -10.607  -4.962  0.00  0.00    +0.125 A 
ATOM     33  C   UNL     1      -5.713  -9.381  -4.609  0.00  0.00    +0.061 A 
ATOM     34  F   UNL     1      -5.599 -11.746  -4.640  0.00  0.00    -0.205 F 
ENDBRANCH  26  28
ENDBRANCH  23  24
ENDBRANCH  22  23
ENDBRANCH   3  22
TORSDOF 6
