REMARK  Name = ZINC67411635
REMARK  8 active torsions:
REMARK  status: ('A' for Active; 'I' for Inactive)
REMARK    1  A    between atoms: C_1  and  C_2
REMARK    2  A    between atoms: C_6  and  C_7
REMARK    3  A    between atoms: N_9  and  N_10
REMARK    4  A    between atoms: N_13  and  C_14
REMARK    5  A    between atoms: C_14  and  C_15
REMARK    6  A    between atoms: C_15  and  C_17
REMARK    7  A    between atoms: C_15  and  N_18
REMARK    8  A    between atoms: C_21  and  C_24
REMARK                            x       y       z     vdW  Elec       q    Type
REMARK                         _______ _______ _______ _____ _____    ______ ____
ROOT
ATOM      1  N   UNL     1       0.688  -0.716   5.166  0.00  0.00    -0.218 N 
ATOM      2  C   UNL     1       0.572  -1.659   6.123  0.00  0.00    +0.316 C 
ATOM      3  O   UNL     1       0.709  -1.358   7.293  0.00  0.00    -0.251 OA
ATOM      4  N   UNL     1       0.303  -2.935   5.782  0.00  0.00    -0.300 N 
ATOM      5  H   UNL     1       0.880   0.202   5.411  0.00  0.00    +0.174 HD
ATOM      6  H   UNL     1       0.194  -3.175   4.849  0.00  0.00    +0.150 HD
ENDROOT
BRANCH   1   9
ATOM      7  C   UNL     1       0.645  -0.121   2.862  0.00  0.00    +0.267 C 
ATOM      8  O   UNL     1       0.887   1.032   3.169  0.00  0.00    -0.268 OA
ATOM      9  N   UNL     1       0.529  -1.063   3.818  0.00  0.00    -0.229 N 
ATOM     10  H   UNL     1       0.337  -1.982   3.573  0.00  0.00    +0.173 HD
BRANCH   7  16
ATOM     11  C   UNL     1       0.848   1.799   0.417  0.00  0.00    +0.045 C 
ATOM     12  C   UNL     1       0.558   0.323   0.326  0.00  0.00    -0.031 A 
ATOM     13  C   UNL     1       0.361  -0.310  -0.877  0.00  0.00    +0.011 A 
ATOM     14  C   UNL     1       0.105  -1.642  -0.887  0.00  0.00    +0.046 A 
ATOM     15  S   UNL     1       0.124  -2.077   0.735  0.00  0.00    -0.092 S 
ATOM     16  C   UNL     1       0.480  -0.484   1.451  0.00  0.00    +0.078 A 
ENDBRANCH   7  16
ENDBRANCH   1   9
BRANCH   4  17
ATOM     17  C   UNL     1       0.177  -3.959   6.822  0.00  0.00    +0.090 C 
BRANCH  17  18
ATOM     18  C   UNL     1       0.007  -5.332   6.168  0.00  0.00    -0.054 C 
ATOM     19  C   UNL     1      -0.033  -6.412   7.251  0.00  0.00    -0.012 C 
BRANCH  18  20
ATOM     20  N   UNL     1       1.137  -5.587   5.264  0.00  0.00    +0.382 N 
ATOM     21  C   UNL     1       0.903  -6.837   4.531  0.00  0.00    -0.078 C 
ATOM     22  C   UNL     1       2.037  -7.066   3.529  0.00  0.00    -0.016 C 
ATOM     23  C   UNL     1       3.366  -7.156   4.284  0.00  0.00    -0.018 C 
ATOM     24  C   UNL     1       3.565  -5.878   5.104  0.00  0.00    -0.016 C 
ATOM     25  C   UNL     1       2.374  -5.693   6.047  0.00  0.00    -0.078 C 
ATOM     26  C   UNL     1       4.514  -7.305   3.283  0.00  0.00    +0.007 C 
ATOM     27  H   UNL     1       1.220  -4.825   4.607  0.00  0.00    -0.081 HD
ENDBRANCH  18  20
ENDBRANCH  17  18
ENDBRANCH   4  17
TORSDOF 5
