REMARK  Name = ZINC37425215
REMARK  3 active torsions:
REMARK  status: ('A' for Active; 'I' for Inactive)
REMARK    1  A    between atoms: C_3  and  N_8
REMARK    2  A    between atoms: C_6  and  N_7
REMARK    3  A    between atoms: C_11  and  C_13
REMARK                            x       y       z     vdW  Elec       q    Type
REMARK                         _______ _______ _______ _____ _____    ______ ____
ROOT
ATOM      1  N   UNL     1       3.585   2.131  -0.021  0.00  0.00    -0.239 N 
ATOM      2  C   UNL     1       4.824   1.573  -0.041  0.00  0.00    +0.115 A 
ATOM      3  C   UNL     1       5.719   2.588  -0.043  0.00  0.00    +0.054 A 
ATOM      4  C   UNL     1       4.947   3.775  -0.022  0.00  0.00    +0.148 A 
ATOM      5  N   UNL     1       3.679   3.412  -0.015  0.00  0.00    -0.162 NA
ENDROOT
BRANCH   4   6
ATOM      6  C   UNL     1       5.464   5.157  -0.016  0.00  0.00    +0.270 C 
ATOM      7  O   UNL     1       6.663   5.357  -0.029  0.00  0.00    -0.268 OA
ATOM      8  N   UNL     1       4.607   6.197   0.004  0.00  0.00    -0.259 N 
ATOM      9  C   UNL     1       5.094   7.498   0.010  0.00  0.00    +0.166 A 
ATOM     10  N   UNL     1       6.345   7.902  -0.007  0.00  0.00    -0.232 NA
ATOM     11  C   UNL     1       6.647   9.188   0.002  0.00  0.00    +0.136 A 
ATOM     12  C   UNL     1       5.612  10.064   0.030  0.00  0.00    +0.076 A 
ATOM     13  S   UNL     1       4.225   8.939   0.034  0.00  0.00    -0.045 S 
ATOM     14 BR   UNL     1       5.632  11.955   0.052  0.00  0.00    -0.041 Br
ATOM     15  H   UNL     1       3.651   6.037   0.014  0.00  0.00    +0.157 HD
ENDBRANCH   4   6
BRANCH   1  18
ATOM     16  C   UNL     1      -0.017   1.385   0.010  0.00  0.00    +0.025 A 
ATOM     17  C   UNL     1       1.169   2.091   0.002  0.00  0.00    +0.029 A 
ATOM     18  C   UNL     1       2.381   1.413  -0.013  0.00  0.00    +0.065 A 
ATOM     19  C   UNL     1       2.400   0.025  -0.021  0.00  0.00    +0.029 A 
ATOM     20  C   UNL     1       1.215  -0.682  -0.014  0.00  0.00    +0.025 A 
ATOM     21  C   UNL     1       0.002  -0.004   0.002  0.00  0.00    +0.025 A 
BRANCH  21  22
ATOM     22  N   UNL     1      -1.198  -0.719   0.010  0.00  0.00    -0.358 N 
ATOM     23  H   UNL     1      -2.045  -0.246   0.021  0.00  0.00    +0.142 HD
ATOM     24  H   UNL     1      -1.185  -1.689   0.005  0.00  0.00    +0.142 HD
ENDBRANCH  21  22
ENDBRANCH   1  18
TORSDOF 3
