REMARK  Name = ZINC32542045
REMARK  9 active torsions:
REMARK  status: ('A' for Active; 'I' for Inactive)
REMARK    1  A    between atoms: C_1  and  C_2
REMARK    2  A    between atoms: C_2  and  C_4
REMARK    3  A    between atoms: C_2  and  N_14
REMARK    4  A    between atoms: C_7  and  S_10
REMARK    5  A    between atoms: S_10  and  N_13
REMARK    6  A    between atoms: N_14  and  C_15
REMARK    7  A    between atoms: N_14  and  C_16
REMARK    8  A    between atoms: C_16  and  C_17
REMARK    9  A    between atoms: N_19  and  C_20
REMARK                            x       y       z     vdW  Elec       q    Type
REMARK                         _______ _______ _______ _____ _____    ______ ____
ROOT
ATOM      1  N   UNL     1      -3.474   4.351   4.611  0.00  0.00    +0.388 N 
ATOM      2  C   UNL     1      -2.278   5.193   4.478  0.00  0.00    -0.095 C 
ATOM      3  H   UNL     1      -4.038   4.415   3.669  0.00  0.00    -0.081 HD
ENDROOT
BRANCH   1   5
ATOM      4  C   UNL     1      -2.107   2.511   3.747  0.00  0.00    -0.008 C 
ATOM      5  C   UNL     1      -3.106   2.944   4.821  0.00  0.00    -0.041 C 
BRANCH   5   6
ATOM      6  C   UNL     1      -4.341   2.084   4.734  0.00  0.00    -0.061 A 
ATOM      7  C   UNL     1      -4.471   0.977   5.553  0.00  0.00    +0.004 A 
ATOM      8  C   UNL     1      -5.603   0.188   5.473  0.00  0.00    +0.029 A 
ATOM      9  C   UNL     1      -6.605   0.505   4.574  0.00  0.00    +0.105 A 
ATOM     10  C   UNL     1      -6.472   1.609   3.752  0.00  0.00    +0.029 A 
ATOM     11  C   UNL     1      -5.342   2.401   3.836  0.00  0.00    +0.004 A 
BRANCH   9  12
ATOM     12  S   UNL     1      -8.048  -0.501   4.472  0.00  0.00    +0.056 S 
ATOM     13  O   UNL     1      -7.682  -1.785   4.958  0.00  0.00    -0.153 OA
ATOM     14  O   UNL     1      -8.589  -0.304   3.173  0.00  0.00    -0.153 OA
BRANCH  12  15
ATOM     15  N   UNL     1      -9.151   0.115   5.542  0.00  0.00    -0.204 NA
ATOM     16  H   UNL     1     -10.070  -0.488   5.509  0.00  0.00    +0.144 HD
ATOM     17  H   UNL     1      -9.384   1.155   5.271  0.00  0.00    +0.144 HD
ENDBRANCH  12  15
ENDBRANCH   9  12
ENDBRANCH   5   6
ENDBRANCH   1   5
BRANCH   1  18
ATOM     18  C   UNL     1      -4.342   4.836   5.692  0.00  0.00    +0.019 C 
BRANCH  18  19
ATOM     19  C   UNL     1      -4.895   6.188   5.323  0.00  0.00    +0.201 C 
ATOM     20  O   UNL     1      -4.596   6.698   4.264  0.00  0.00    -0.278 OA
ATOM     21  N   UNL     1      -5.723   6.831   6.170  0.00  0.00    -0.285 N 
ATOM     22  H   UNL     1      -6.048   6.341   7.100  0.00  0.00    +0.155 HD
BRANCH  21  23
ATOM     23  C   UNL     1      -6.169   8.124   5.867  0.00  0.00    +0.069 A 
ATOM     24  C   UNL     1      -6.405   8.487   4.548  0.00  0.00    +0.027 A 
ATOM     25  C   UNL     1      -6.845   9.762   4.252  0.00  0.00    +0.017 A 
ATOM     26  C   UNL     1      -7.051  10.679   5.268  0.00  0.00    +0.021 A 
ATOM     27  C   UNL     1      -6.817  10.322   6.584  0.00  0.00    +0.055 A 
ATOM     28  C   UNL     1      -6.381   9.045   6.887  0.00  0.00    +0.146 A 
ATOM     29  F   UNL     1      -6.158   8.694   8.173  0.00  0.00    -0.204 F 
ATOM     30 BR   UNL     1      -7.653  12.424   4.856  0.00  0.00    -0.050 Br
ENDBRANCH  21  23
ENDBRANCH  18  19
ENDBRANCH   1  18
TORSDOF 7
