REMARK  Name = ZINC43284254
REMARK  8 active torsions:
REMARK  status: ('A' for Active; 'I' for Inactive)
REMARK    1  A    between atoms: C_1  and  C_2
REMARK    2  A    between atoms: C_2  and  C_4
REMARK    3  A    between atoms: C_2  and  N_21
REMARK    4  A    between atoms: C_4  and  C_6
REMARK    5  A    between atoms: C_4  and  S_12
REMARK    6  A    between atoms: S_12  and  C_13
REMARK    7  A    between atoms: C_18  and  O_19
REMARK    8  A    between atoms: O_19  and  C_20
REMARK                            x       y       z     vdW  Elec       q    Type
REMARK                         _______ _______ _______ _____ _____    ______ ____
ROOT
ATOM      1  C   UNL     1       1.019  -0.528  -1.078  0.00  0.00    +0.073 C 
ENDROOT
BRANCH   1   2
ATOM      2  C   UNL     1       2.465  -0.278  -0.736  0.00  0.00    +0.002 A 
ATOM      3  C   UNL     1       3.387   0.450  -1.412  0.00  0.00    +0.013 A 
ATOM      4  C   UNL     1       4.670   0.543  -0.905  0.00  0.00    +0.023 A 
ATOM      5  C   UNL     1       4.968  -0.097   0.253  0.00  0.00    +0.055 A 
ATOM      6  S   UNL     1       3.406  -0.855   0.667  0.00  0.00    -0.085 S 
ATOM      7 BR   UNL     1       6.609  -0.162   1.190  0.00  0.00    -0.043 Br
ENDBRANCH   1   2
BRANCH   1   9
ATOM      8  C   UNL     1       0.354   1.515   0.197  0.00  0.00    -0.013 C 
ATOM      9  C   UNL     1       0.129   0.009   0.045  0.00  0.00    -0.060 C 
BRANCH   9  10
ATOM     10  N   UNL     1       0.468  -0.666   1.305  0.00  0.00    +0.381 N 
ATOM     11  H   UNL     1      -0.118  -0.312   2.045  0.00  0.00    -0.090 HD
ATOM     12  H   UNL     1       0.320  -1.659   1.204  0.00  0.00    -0.090 HD
ATOM     13  H   UNL     1       1.436  -0.492   1.530  0.00  0.00    -0.090 HD
ENDBRANCH   9  10
ENDBRANCH   1   9
BRANCH   1  14
ATOM     14  S   UNL     1       0.743  -2.311  -1.267  0.00  0.00    -0.115 S 
BRANCH  14  15
ATOM     15  C   UNL     1       1.589  -2.718  -2.758  0.00  0.00    +0.050 A 
ATOM     16  C   UNL     1       2.146  -1.714  -3.538  0.00  0.00    +0.018 A 
ATOM     17  C   UNL     1       2.809  -2.036  -4.707  0.00  0.00    +0.001 A 
ATOM     18  C   UNL     1       2.920  -3.356  -5.102  0.00  0.00    +0.004 A 
ATOM     19  C   UNL     1       2.367  -4.362  -4.330  0.00  0.00    +0.047 A 
ATOM     20  C   UNL     1       1.706  -4.049  -3.154  0.00  0.00    +0.133 A 
BRANCH  20  21
ATOM     21  O   UNL     1       1.167  -5.037  -2.391  0.00  0.00    -0.494 OA
ATOM     22  C   UNL     1       1.326  -6.378  -2.859  0.00  0.00    +0.277 C 
ENDBRANCH  20  21
ENDBRANCH  14  15
ENDBRANCH   1  14
TORSDOF 6
