REMARK  Name = ZINC67151639
REMARK  10 active torsions:
REMARK  status: ('A' for Active; 'I' for Inactive)
REMARK    1  A    between atoms: C_4  and  N_17
REMARK    2  A    between atoms: C_5  and  C_7
REMARK    3  A    between atoms: C_7  and  N_8
REMARK    4  A    between atoms: C_12  and  C_14
REMARK    5  A    between atoms: C_18  and  C_20
REMARK    6  A    between atoms: C_20  and  C_21
REMARK    7  A    between atoms: C_21  and  C_22
REMARK    8  A    between atoms: C_22  and  C_23
REMARK    9  A    between atoms: C_23  and  C_24
REMARK   10  A    between atoms: C_24  and  C_25
REMARK                            x       y       z     vdW  Elec       q    Type
REMARK                         _______ _______ _______ _____ _____    ______ ____
ROOT
ATOM      1  C   UNL     1      -0.010   1.391  -0.020  0.00  0.00    +0.000 A 
ATOM      2  C   UNL     1       1.179   2.097  -0.025  0.00  0.00    +0.002 A 
ATOM      3  C   UNL     1       2.384   1.424  -0.031  0.00  0.00    +0.023 A 
ATOM      4  C   UNL     1       2.402   0.035  -0.031  0.00  0.00    +0.035 A 
ATOM      5  C   UNL     1       1.206  -0.672  -0.026  0.00  0.00    -0.043 A 
ATOM      6  C   UNL     1       0.004   0.008  -0.021  0.00  0.00    +0.003 A 
ENDROOT
BRANCH   4   7
ATOM      7  N   UNL     1       3.622  -0.651  -0.037  0.00  0.00    -0.285 N 
ATOM      8  C   UNL     1       4.730  -0.058   0.448  0.00  0.00    +0.217 C 
ATOM      9  O   UNL     1       4.653   1.029   0.980  0.00  0.00    -0.275 OA
ATOM     10  H   UNL     1       3.669  -1.553  -0.391  0.00  0.00    +0.155 HD
BRANCH   8  11
ATOM     11  C   UNL     1       6.066  -0.745   0.328  0.00  0.00    +0.096 C 
BRANCH  11  12
ATOM     12  C   UNL     1       7.150   0.135   0.953  0.00  0.00    +0.009 C 
BRANCH  12  13
ATOM     13  C   UNL     1       8.507  -0.563   0.832  0.00  0.00    +0.001 C 
BRANCH  13  14
ATOM     14  C   UNL     1       9.591   0.317   1.457  0.00  0.00    +0.005 C 
BRANCH  14  15
ATOM     15  C   UNL     1      10.947  -0.381   1.335  0.00  0.00    +0.042 C 
BRANCH  15  16
ATOM     16  C   UNL     1      12.015   0.486   1.951  0.00  0.00    -0.010 A 
ATOM     17  C   UNL     1      12.466   0.506   3.229  0.00  0.00    +0.011 A 
ATOM     18  C   UNL     1      13.467   1.396   3.573  0.00  0.00    +0.008 A 
ATOM     19  C   UNL     1      13.966   2.223   2.622  0.00  0.00    +0.045 A 
ATOM     20  S   UNL     1      13.019   1.748   1.185  0.00  0.00    -0.102 S 
ENDBRANCH  15  16
ENDBRANCH  14  15
ENDBRANCH  13  14
ENDBRANCH  12  13
ENDBRANCH  11  12
ENDBRANCH   8  11
ENDBRANCH   4   7
BRANCH   5  21
ATOM     21  C   UNL     1       1.221  -2.179  -0.027  0.00  0.00    -0.040 C 
BRANCH  21  22
ATOM     22  N   UNL     1       1.472  -2.667   1.336  0.00  0.00    +0.390 N 
ATOM     23  C   UNL     1       0.308  -2.369   2.209  0.00  0.00    -0.077 C 
ATOM     24  C   UNL     1       0.463  -3.389   3.365  0.00  0.00    -0.020 C 
ATOM     25  C   UNL     1       0.985  -4.653   2.644  0.00  0.00    -0.008 C 
ATOM     26  C   UNL     1       1.609  -4.139   1.333  0.00  0.00    +0.019 C 
ATOM     27  H   UNL     1       2.307  -2.240   1.710  0.00  0.00    -0.080 HD
BRANCH  26  28
ATOM     28  C   UNL     1       3.066  -4.519   1.275  0.00  0.00    +0.197 C 
ATOM     29  O   UNL     1       3.917  -3.656   1.239  0.00  0.00    -0.278 OA
ATOM     30  N   UNL     1       3.424  -5.819   1.263  0.00  0.00    -0.331 N 
ATOM     31  H   UNL     1       2.743  -6.509   1.292  0.00  0.00    +0.145 HD
ATOM     32  H   UNL     1       4.362  -6.063   1.226  0.00  0.00    +0.145 HD
ENDBRANCH  26  28
ENDBRANCH  21  22
ENDBRANCH   5  21
TORSDOF 10
