REMARK  Name = ZINC63624989
REMARK  6 active torsions:
REMARK  status: ('A' for Active; 'I' for Inactive)
REMARK    1  A    between atoms: C_1  and  C_2
REMARK    2  A    between atoms: C_5  and  C_8
REMARK    3  A    between atoms: N_22  and  S_23
REMARK    4  A    between atoms: S_23  and  C_26
REMARK    5  A    between atoms: C_29  and  O_33
REMARK    6  A    between atoms: O_33  and  C_34
REMARK                            x       y       z     vdW  Elec       q    Type
REMARK                         _______ _______ _______ _____ _____    ______ ____
ROOT
ATOM      1  C   UNL     1       0.013  -4.453   0.093  0.00  0.00    +0.136 C 
ATOM      2  C   UNL     1      -1.277  -5.129   0.570  0.00  0.00    +0.129 C 
ATOM      3  C   UNL     1      -0.941  -6.598   0.795  0.00  0.00    -0.035 C 
ATOM      4  C   UNL     1      -1.790  -7.295   0.049  0.00  0.00    -0.001 A 
ATOM      5  C   UNL     1      -2.001  -8.744  -0.100  0.00  0.00    +0.010 A 
ATOM      6  C   UNL     1      -2.968  -9.122  -0.977  0.00  0.00    +0.001 A 
ATOM      7  C   UNL     1      -3.736  -8.214  -1.713  0.00  0.00    +0.002 A 
ATOM      8  C   UNL     1      -3.613  -6.865  -1.636  0.00  0.00    +0.026 A 
ATOM      9  C   UNL     1      -2.631  -6.346  -0.742  0.00  0.00    +0.043 A 
ATOM     10  N   UNL     1      -2.321  -5.094  -0.456  0.00  0.00    -0.376 N 
ATOM     11  C   UNL     1       0.213  -7.042   1.660  0.00  0.00    +0.050 C 
ATOM     12  C   UNL     1       1.450  -6.259   1.184  0.00  0.00    +0.114 C 
ATOM     13  N   UNL     1       1.095  -4.846   1.009  0.00  0.00    -0.167 NA
ATOM     14  H   UNL     1      -2.704  -4.294  -0.848  0.00  0.00    +0.160 HD
ENDROOT
BRANCH   1  19
ATOM     15  C   UNL     1      -0.639   1.288   0.182  0.00  0.00    +0.044 C 
ATOM     16  C   UNL     1      -0.469  -0.209   0.159  0.00  0.00    -0.050 A 
ATOM     17  C   UNL     1       0.414  -0.791  -0.731  0.00  0.00    +0.003 A 
ATOM     18  C   UNL     1       0.571  -2.164  -0.752  0.00  0.00    +0.005 A 
ATOM     19  C   UNL     1      -0.156  -2.956   0.117  0.00  0.00    -0.026 A 
ATOM     20  C   UNL     1      -1.039  -2.375   1.008  0.00  0.00    +0.005 A 
ATOM     21  C   UNL     1      -1.192  -1.001   1.032  0.00  0.00    +0.003 A 
ENDBRANCH   1  19
BRANCH  13  22
ATOM     22  S   UNL     1       1.920  -3.683   1.852  0.00  0.00    +0.062 S 
ATOM     23  O   UNL     1       1.074  -2.542   1.902  0.00  0.00    -0.153 OA
ATOM     24  O   UNL     1       2.423  -4.311   3.023  0.00  0.00    -0.153 OA
BRANCH  22  25
ATOM     25  C   UNL     1       3.319  -3.231   0.882  0.00  0.00    +0.107 A 
ATOM     26  C   UNL     1       4.455  -4.020   0.899  0.00  0.00    +0.032 A 
ATOM     27  C   UNL     1       5.554  -3.667   0.140  0.00  0.00    +0.049 A 
ATOM     28  C   UNL     1       5.519  -2.522  -0.640  0.00  0.00    +0.138 A 
ATOM     29  C   UNL     1       4.378  -1.731  -0.657  0.00  0.00    +0.084 A 
ATOM     30  C   UNL     1       3.278  -2.091   0.101  0.00  0.00    +0.052 A 
ATOM     31 CL   UNL     1       4.328  -0.296  -1.632  0.00  0.00    -0.080 Cl
BRANCH  28  32
ATOM     32  O   UNL     1       6.599  -2.173  -1.388  0.00  0.00    -0.494 OA
ATOM     33  C   UNL     1       7.739  -3.033  -1.321  0.00  0.00    +0.277 C 
ENDBRANCH  28  32
ENDBRANCH  22  25
ENDBRANCH  13  22
TORSDOF 4
