REMARK  Name = ZINC07659891
REMARK  12 active torsions:
REMARK  status: ('A' for Active; 'I' for Inactive)
REMARK    1  A    between atoms: C_1  and  C_2
REMARK    2  A    between atoms: C_2  and  C_23
REMARK    3  A    between atoms: N_5  and  N_9
REMARK    4  A    between atoms: C_10  and  C_12
REMARK    5  A    between atoms: C_12  and  N_13
REMARK    6  A    between atoms: N_13  and  C_14
REMARK    7  A    between atoms: N_13  and  C_15
REMARK    8  A    between atoms: C_15  and  C_16
REMARK    9  A    between atoms: N_18  and  C_19
REMARK   10  A    between atoms: C_19  and  C_20
REMARK   11  A    between atoms: C_19  and  C_21
REMARK   12  A    between atoms: C_19  and  C_22
REMARK                            x       y       z     vdW  Elec       q    Type
REMARK                         _______ _______ _______ _____ _____    ______ ____
ROOT
ATOM      1  N   UNL     1      -2.518  -1.955   1.783  0.00  0.00    -0.225 N 
ATOM      2  C   UNL     1      -2.586  -3.298   1.684  0.00  0.00    +0.213 C 
ATOM      3  O   UNL     1      -1.682  -3.914   1.162  0.00  0.00    -0.276 OA
ATOM      4  H   UNL     1      -3.242  -1.462   2.200  0.00  0.00    +0.173 HD
ENDROOT
BRANCH   1   9
ATOM      5  C   UNL     1      -0.019   1.526   0.010  0.00  0.00    +0.047 C 
ATOM      6  C   UNL     1       0.002  -0.004   0.002  0.00  0.00    +0.137 C 
ATOM      7  C   UNL     1      -1.403  -0.557   0.139  0.00  0.00    +0.267 C 
ATOM      8  O   UNL     1      -2.332  -0.392  -0.621  0.00  0.00    -0.271 OA
ATOM      9  N   UNL     1      -1.403  -1.272   1.282  0.00  0.00    -0.137 N 
ATOM     10  C   UNL     1      -0.206  -1.247   1.879  0.00  0.00    +0.327 C 
ATOM     11  O   UNL     1       0.040  -1.819   2.924  0.00  0.00    -0.251 OA
ATOM     12  N   UNL     1       0.695  -0.520   1.195  0.00  0.00    -0.280 N 
ATOM     13  H   UNL     1       1.621  -0.365   1.440  0.00  0.00    +0.152 HD
BRANCH   6  14
ATOM     14  C   UNL     1       0.657  -0.517  -1.255  0.00  0.00    -0.015 A 
ATOM     15  C   UNL     1      -0.107  -0.772  -2.378  0.00  0.00    +0.006 A 
ATOM     16  C   UNL     1       0.493  -1.242  -3.530  0.00  0.00    +0.000 A 
ATOM     17  C   UNL     1       1.859  -1.457  -3.560  0.00  0.00    +0.000 A 
ATOM     18  C   UNL     1       2.623  -1.202  -2.437  0.00  0.00    +0.000 A 
ATOM     19  C   UNL     1       2.023  -0.727  -1.286  0.00  0.00    +0.006 A 
ENDBRANCH   6  14
ENDBRANCH   1   9
BRANCH   2  20
ATOM     20  C   UNL     1      -3.787  -4.033   2.223  0.00  0.00    +0.020 C 
BRANCH  20  21
ATOM     21  N   UNL     1      -3.620  -5.475   1.996  0.00  0.00    +0.389 N 
ATOM     22  C   UNL     1      -3.615  -5.745   0.552  0.00  0.00    -0.095 C 
ATOM     23  H   UNL     1      -2.747  -5.780   2.398  0.00  0.00    -0.081 HD
BRANCH  21  24
ATOM     24  C   UNL     1      -4.731  -6.201   2.625  0.00  0.00    +0.019 C 
BRANCH  24  25
ATOM     25  C   UNL     1      -4.497  -7.684   2.499  0.00  0.00    +0.197 C 
ATOM     26  O   UNL     1      -3.503  -8.096   1.939  0.00  0.00    -0.278 OA
ATOM     27  N   UNL     1      -5.393  -8.554   3.007  0.00  0.00    -0.312 N 
ATOM     28  H   UNL     1      -6.188  -8.224   3.455  0.00  0.00    +0.149 HD
BRANCH  27  29
ATOM     29  C   UNL     1      -5.165  -9.996   2.884  0.00  0.00    +0.026 C 
ATOM     30  C   UNL     1      -3.854 -10.367   3.580  0.00  0.00    +0.031 C 
ATOM     31  C   UNL     1      -6.322 -10.752   3.540  0.00  0.00    +0.031 C 
ATOM     32  C   UNL     1      -5.083 -10.374   1.404  0.00  0.00    +0.031 C 
ENDBRANCH  27  29
ENDBRANCH  24  25
ENDBRANCH  21  24
ENDBRANCH  20  21
ENDBRANCH   2  20
TORSDOF 7
