REMARK  Name = ZINC01612853
REMARK  8 active torsions:
REMARK  status: ('A' for Active; 'I' for Inactive)
REMARK    1  A    between atoms: C_1  and  O_2
REMARK    2  A    between atoms: O_2  and  C_3
REMARK    3  A    between atoms: C_3  and  C_16
REMARK    4  A    between atoms: C_9  and  O_15
REMARK    5  A    between atoms: C_12  and  O_14
REMARK    6  A    between atoms: C_16  and  C_17
REMARK    7  A    between atoms: C_19  and  O_26
REMARK    8  A    between atoms: C_20  and  O_25
REMARK                            x       y       z     vdW  Elec       q    Type
REMARK                         _______ _______ _______ _____ _____    ______ ____
ROOT
ATOM      1  C   UNL     1       1.751   3.083   1.064  0.00  0.00    +0.226 C 
ATOM      2  C   UNL     1       0.368   3.650   1.306  0.00  0.00    +0.346 C 
ATOM      3  O   UNL     1       0.115   4.673   1.898  0.00  0.00    -0.247 OA
ATOM      4  O   UNL     1      -0.530   2.818   0.748  0.00  0.00    -0.451 OA
ATOM      5  C   UNL     1       0.061   2.226  -0.442  0.00  0.00    +0.269 C 
ATOM      6  C   UNL     1       1.581   2.125  -0.136  0.00  0.00    +0.249 C 
ATOM      7  O   UNL     1       1.776   0.776   0.342  0.00  0.00    -0.340 OA
ATOM      8  C   UNL     1       0.900  -0.057  -0.444  0.00  0.00    +0.198 C 
ATOM      9  C   UNL     1      -0.400   0.764  -0.591  0.00  0.00    +0.186 C 
ENDROOT
BRANCH   1  11
ATOM     10  C   UNL     1       2.188   3.131   3.420  0.00  0.00    +0.195 C 
ATOM     11  O   UNL     1       2.205   2.366   2.213  0.00  0.00    -0.361 OA
ENDBRANCH   1  11
BRANCH   9  12
ATOM     12  O   UNL     1      -0.986   0.552  -1.876  0.00  0.00    -0.386 OA
ATOM     13  H   UNL     1      -1.294  -0.353  -2.024  0.00  0.00    +0.210 HD
ENDBRANCH   9  12
BRANCH   6  14
ATOM     14  O   UNL     1       2.407   2.448  -1.257  0.00  0.00    -0.359 OA
ATOM     15  H   UNL     1       2.279   1.868  -2.020  0.00  0.00    +0.213 HD
ENDBRANCH   6  14
BRANCH   1  16
ATOM     16  C   UNL     1       2.732   4.204   0.715  0.00  0.00    +0.088 C 
BRANCH  16  17
ATOM     17  C   UNL     1       4.015   3.606   0.197  0.00  0.00    -0.025 A 
ATOM     18  C   UNL     1       4.248   3.545  -1.165  0.00  0.00    +0.054 A 
ATOM     19  C   UNL     1       5.428   3.000  -1.642  0.00  0.00    +0.160 A 
ATOM     20  C   UNL     1       6.374   2.504  -0.750  0.00  0.00    +0.174 A 
ATOM     21  C   UNL     1       6.133   2.563   0.614  0.00  0.00    +0.077 A 
ATOM     22  C   UNL     1       4.954   3.114   1.085  0.00  0.00    +0.039 A 
ATOM     23 BR   UNL     1       4.627   3.194   2.946  0.00  0.00    -0.049 Br
ATOM     24 BR   UNL     1       7.416   1.891   1.831  0.00  0.00    -0.045 Br
BRANCH  20  25
ATOM     25  O   UNL     1       7.532   1.962  -1.215  0.00  0.00    -0.503 OA
ATOM     26  H   UNL     1       7.481   1.012  -1.383  0.00  0.00    +0.292 HD
ENDBRANCH  20  25
BRANCH  19  27
ATOM     27  O   UNL     1       5.660   2.944  -2.981  0.00  0.00    -0.503 OA
ATOM     28  H   UNL     1       5.343   2.134  -3.402  0.00  0.00    +0.292 HD
ENDBRANCH  19  27
ENDBRANCH  16  17
ENDBRANCH   1  16
TORSDOF 7
