REMARK  Name = ZINC22429505
REMARK  10 active torsions:
REMARK  status: ('A' for Active; 'I' for Inactive)
REMARK    1  A    between atoms: C_1  and  C_2
REMARK    2  A    between atoms: C_5  and  C_8
REMARK    3  A    between atoms: C_8  and  C_10
REMARK    4  A    between atoms: C_8  and  N_11
REMARK    5  A    between atoms: C_12  and  C_14
REMARK    6  A    between atoms: C_14  and  N_15
REMARK    7  A    between atoms: N_15  and  C_16
REMARK    8  A    between atoms: N_15  and  S_24
REMARK    9  A    between atoms: C_19  and  C_23
REMARK   10  A    between atoms: S_24  and  C_27
REMARK                            x       y       z     vdW  Elec       q    Type
REMARK                         _______ _______ _______ _____ _____    ______ ____
ROOT
ATOM      1  N   UNL     1      -1.019  -2.197   0.010  0.00  0.00    -0.194 N 
ENDROOT
BRANCH   1   2
ATOM      2  C   UNL     1      -0.801  -2.841  -1.210  0.00  0.00    +0.053 A 
ATOM      3  C   UNL     1      -1.131  -4.183  -1.357  0.00  0.00    +0.025 A 
ATOM      4  C   UNL     1      -0.920  -4.817  -2.566  0.00  0.00    +0.006 A 
ATOM      5  C   UNL     1      -0.369  -4.121  -3.626  0.00  0.00    -0.032 A 
ATOM      6  C   UNL     1      -0.034  -2.786  -3.482  0.00  0.00    +0.046 A 
ATOM      7  C   UNL     1      -0.248  -2.144  -2.276  0.00  0.00    +0.045 A 
ATOM      8 CL   UNL     1       0.656  -1.916  -4.816  0.00  0.00    -0.083 Cl
ATOM      9  C   UNL     1      -0.134  -4.817  -4.942  0.00  0.00    +0.045 C 
ENDBRANCH   1   2
BRANCH   1  10
ATOM     10  S   UNL     1      -0.317  -2.780   1.392  0.00  0.00    +0.075 S 
ATOM     11  O   UNL     1       0.742  -3.633   0.980  0.00  0.00    -0.150 OA
ATOM     12  O   UNL     1      -0.108  -1.662   2.244  0.00  0.00    -0.150 OA
BRANCH  10  13
ATOM     13  C   UNL     1      -1.509  -3.804   2.189  0.00  0.00    +0.109 A 
ATOM     14  C   UNL     1      -2.458  -3.242   3.021  0.00  0.00    +0.029 A 
ATOM     15  C   UNL     1      -3.396  -4.045   3.642  0.00  0.00    +0.002 A 
ATOM     16  C   UNL     1      -3.378  -5.412   3.439  0.00  0.00    +0.000 A 
ATOM     17  C   UNL     1      -2.425  -5.976   2.611  0.00  0.00    +0.002 A 
ATOM     18  C   UNL     1      -1.490  -5.172   1.986  0.00  0.00    +0.029 A 
ENDBRANCH  10  13
ENDBRANCH   1  10
BRANCH   1  19
ATOM     19  C   UNL     1      -1.869  -1.005   0.066  0.00  0.00    +0.227 C 
BRANCH  19  21
ATOM     20  N   UNL     1      -1.623   1.433  -0.276  0.00  0.00    -0.307 N 
ATOM     21  C   UNL     1      -1.047   0.214  -0.266  0.00  0.00    +0.233 C 
ATOM     22  O   UNL     1       0.132   0.098  -0.525  0.00  0.00    -0.274 OA
ATOM     23  H   UNL     1      -2.692   1.538  -0.041  0.00  0.00    +0.149 HD
BRANCH  20  24
ATOM     24  C   UNL     1      -0.824   2.618  -0.599  0.00  0.00    +0.100 C 
ATOM     25  C   UNL     1      -0.123   3.120   0.664  0.00  0.00    +0.033 C 
BRANCH  24  30
ATOM     26  C   UNL     1      -4.278   6.764  -2.665  0.00  0.00    +0.044 C 
ATOM     27  C   UNL     1      -3.377   5.683  -2.127  0.00  0.00    -0.050 A 
ATOM     28  C   UNL     1      -2.133   5.474  -2.692  0.00  0.00    +0.004 A 
ATOM     29  C   UNL     1      -1.307   4.482  -2.198  0.00  0.00    +0.006 A 
ATOM     30  C   UNL     1      -1.724   3.699  -1.138  0.00  0.00    -0.027 A 
ATOM     31  C   UNL     1      -2.971   3.904  -0.576  0.00  0.00    +0.006 A 
ATOM     32  C   UNL     1      -3.795   4.899  -1.067  0.00  0.00    +0.004 A 
ENDBRANCH  24  30
ENDBRANCH  20  24
ENDBRANCH  19  21
ENDBRANCH   1  19
TORSDOF 7
