REMARK  Name = ZINC35032133
REMARK  6 active torsions:
REMARK  status: ('A' for Active; 'I' for Inactive)
REMARK    1  A    between atoms: C_1  and  C_2
REMARK    2  A    between atoms: C_2  and  N_3
REMARK    3  A    between atoms: C_13  and  C_14
REMARK    4  A    between atoms: C_14  and  C_16
REMARK    5  A    between atoms: C_14  and  N_17
REMARK    6  A    between atoms: N_25  and  C_26
REMARK                            x       y       z     vdW  Elec       q    Type
REMARK                         _______ _______ _______ _____ _____    ______ ____
ROOT
ATOM      1  N   UNL     1       4.066  -0.172  -0.583  0.00  0.00    +0.388 N 
ATOM      2  C   UNL     1       4.589   0.772   0.413  0.00  0.00    -0.059 C 
ATOM      3  C   UNL     1       6.091   0.536   0.600  0.00  0.00    +0.091 C 
ATOM      4  N   UNL     1       6.744   0.618  -0.716  0.00  0.00    -0.289 N 
ATOM      5  C   UNL     1       6.180  -0.175  -1.820  0.00  0.00    +0.091 C 
ATOM      6  C   UNL     1       4.674   0.095  -1.893  0.00  0.00    -0.059 C 
ATOM      7  C   UNL     1       7.826   1.398  -0.905  0.00  0.00    +0.306 C 
ATOM      8  O   UNL     1       8.335   1.972   0.038  0.00  0.00    -0.252 OA
ATOM      9  N   UNL     1       8.345   1.542  -2.141  0.00  0.00    -0.269 N 
ATOM     10  H   UNL     1       7.883   1.169  -2.908  0.00  0.00    +0.156 HD
ATOM     11  H   UNL     1       4.285  -1.114  -0.297  0.00  0.00    -0.081 HD
ENDROOT
BRANCH   9  12
ATOM     12  C   UNL     1       9.552   2.228  -2.317  0.00  0.00    +0.036 A 
ATOM     13  C   UNL     1      10.529   2.183  -1.330  0.00  0.00    +0.023 A 
ATOM     14  C   UNL     1      11.719   2.861  -1.507  0.00  0.00    +0.003 A 
ATOM     15  C   UNL     1      11.939   3.584  -2.665  0.00  0.00    +0.015 A 
ATOM     16  C   UNL     1      10.969   3.631  -3.650  0.00  0.00    +0.020 A 
ATOM     17  C   UNL     1       9.778   2.950  -3.481  0.00  0.00    +0.038 A 
ATOM     18 BR   UNL     1      11.275   4.622  -5.231  0.00  0.00    -0.050 Br
ENDBRANCH   9  12
BRANCH   1  19
ATOM     19  C   UNL     1       2.608  -0.019  -0.682  0.00  0.00    -0.004 C 
ATOM     20  C   UNL     1       1.968  -0.357   0.666  0.00  0.00    -0.005 C 
BRANCH  19  31
ATOM     21  N   UNL     1       1.035  -0.532  -2.505  0.00  0.00    -0.298 N 
ATOM     22  C   UNL     1       0.525  -1.330  -3.471  0.00  0.00    +0.262 A 
ATOM     23  O   UNL     1      -0.404  -0.965  -4.168  0.00  0.00    -0.267 OA
ATOM     24  C   UNL     1       1.135  -2.656  -3.647  0.00  0.00    +0.066 A 
ATOM     25  C   UNL     1       0.684  -3.553  -4.613  0.00  0.00    +0.035 A 
ATOM     26  C   UNL     1       1.294  -4.784  -4.734  0.00  0.00    +0.042 A 
ATOM     27  C   UNL     1       2.351  -5.134  -3.902  0.00  0.00    +0.022 A 
ATOM     28  C   UNL     1       2.811  -4.261  -2.942  0.00  0.00    +0.030 A 
ATOM     29  C   UNL     1       2.209  -3.009  -2.800  0.00  0.00    +0.078 A 
ATOM     30  N   UNL     1       2.631  -2.119  -1.867  0.00  0.00    -0.235 NA
ATOM     31  C   UNL     1       2.076  -0.953  -1.739  0.00  0.00    +0.099 A 
ATOM     32 CL   UNL     1       0.736  -5.906  -5.936  0.00  0.00    -0.084 Cl
BRANCH  21  34
ATOM     33  C   UNL     1       1.250   1.830  -3.101  0.00  0.00    +0.027 C 
ATOM     34  C   UNL     1       0.465   0.800  -2.287  0.00  0.00    +0.123 C 
ENDBRANCH  21  34
ENDBRANCH  19  31
ENDBRANCH   1  19
TORSDOF 4
