REMARK  Name = ZINC38612597
REMARK  10 active torsions:
REMARK  status: ('A' for Active; 'I' for Inactive)
REMARK    1  A    between atoms: C_4  and  C_10
REMARK    2  A    between atoms: N_11  and  N_12
REMARK    3  A    between atoms: C_13  and  C_15
REMARK    4  A    between atoms: C_15  and  O_16
REMARK    5  A    between atoms: O_16  and  C_17
REMARK    6  A    between atoms: C_20  and  O_23
REMARK    7  A    between atoms: O_23  and  C_24
REMARK    8  A    between atoms: C_24  and  C_25
REMARK    9  A    between atoms: N_27  and  N_28
REMARK   10  A    between atoms: C_29  and  C_30
REMARK                            x       y       z     vdW  Elec       q    Type
REMARK                         _______ _______ _______ _____ _____    ______ ____
ROOT
ATOM      1  C   UNL     1       9.592   7.886  -0.049  0.00  0.00    +0.121 A 
ATOM      2  C   UNL     1       8.799   9.024  -0.030  0.00  0.00    +0.049 A 
ATOM      3  C   UNL     1       9.385  10.275  -0.029  0.00  0.00    +0.049 A 
ATOM      4  C   UNL     1      10.767  10.393  -0.047  0.00  0.00    +0.121 A 
ATOM      5  C   UNL     1      11.560   9.255  -0.065  0.00  0.00    +0.049 A 
ATOM      6  C   UNL     1      10.974   8.004  -0.061  0.00  0.00    +0.049 A 
ENDROOT
BRANCH   1   7
ATOM      7  O   UNL     1       9.014   6.655  -0.049  0.00  0.00    -0.483 OA
BRANCH   7   8
ATOM      8  C   UNL     1       7.586   6.608  -0.036  0.00  0.00    +0.326 C 
BRANCH   8  10
ATOM      9  N   UNL     1       5.815   4.882  -0.028  0.00  0.00    -0.204 N 
ATOM     10  C   UNL     1       7.131   5.171  -0.039  0.00  0.00    +0.270 C 
ATOM     11  O   UNL     1       7.949   4.276  -0.051  0.00  0.00    -0.270 OA
ATOM     12  H   UNL     1       5.161   5.598  -0.018  0.00  0.00    +0.177 HD
BRANCH   9  14
ATOM     13  C   UNL     1       4.113   3.265  -0.020  0.00  0.00    +0.136 C 
ATOM     14  N   UNL     1       5.391   3.546  -0.031  0.00  0.00    -0.188 NA
BRANCH  13  18
ATOM     15  C   UNL     1      -0.017   1.394   0.010  0.00  0.00    +0.001 A 
ATOM     16  C   UNL     1       1.129   2.121   0.003  0.00  0.00    +0.010 A 
ATOM     17  C   UNL     1       2.377   1.460  -0.013  0.00  0.00    +0.004 A 
ATOM     18  C   UNL     1       3.689   1.928  -0.023  0.00  0.00    +0.000 C 
ATOM     19  C   UNL     1       4.561   0.692  -0.038  0.00  0.00    +0.150 C 
ATOM     20  N   UNL     1       3.644  -0.451  -0.035  0.00  0.00    -0.380 N 
ATOM     21  C   UNL     1       2.403  -0.013  -0.021  0.00  0.00    +0.043 A 
ATOM     22  C   UNL     1       1.162  -0.704  -0.012  0.00  0.00    +0.026 A 
ATOM     23  C   UNL     1       0.002  -0.004   0.002  0.00  0.00    +0.002 A 
ATOM     24  H   UNL     1       3.909  -1.384  -0.043  0.00  0.00    +0.160 HD
ENDBRANCH  13  18
ENDBRANCH   9  14
ENDBRANCH   8  10
ENDBRANCH   7   8
ENDBRANCH   1   7
BRANCH   4  25
ATOM     25  O   UNL     1      11.344  11.624  -0.047  0.00  0.00    -0.483 OA
BRANCH  25  26
ATOM     26  C   UNL     1      12.772  11.671  -0.066  0.00  0.00    +0.326 C 
BRANCH  26  27
ATOM     27  C   UNL     1      13.227  13.108  -0.063  0.00  0.00    +0.270 C 
ATOM     28  O   UNL     1      12.410  14.003  -0.046  0.00  0.00    -0.270 OA
ATOM     29  N   UNL     1      14.543  13.397  -0.079  0.00  0.00    -0.204 N 
ATOM     30  H   UNL     1      15.198  12.681  -0.092  0.00  0.00    +0.177 HD
BRANCH  29  31
ATOM     31  N   UNL     1      14.967  14.733  -0.076  0.00  0.00    -0.188 NA
ATOM     32  C   UNL     1      16.245  15.014  -0.091  0.00  0.00    +0.136 C 
BRANCH  32  33
ATOM     33  C   UNL     1      16.669  16.351  -0.089  0.00  0.00    +0.000 C 
ATOM     34  C   UNL     1      17.981  16.819  -0.109  0.00  0.00    +0.004 A 
ATOM     35  C   UNL     1      17.955  18.292  -0.098  0.00  0.00    +0.043 A 
ATOM     36  N   UNL     1      16.714  18.730  -0.072  0.00  0.00    -0.380 N 
ATOM     37  C   UNL     1      15.797  17.587  -0.070  0.00  0.00    +0.150 C 
ATOM     38  C   UNL     1      19.196  18.983  -0.116  0.00  0.00    +0.026 A 
ATOM     39  C   UNL     1      20.356  18.283  -0.142  0.00  0.00    +0.002 A 
ATOM     40  C   UNL     1      20.375  16.885  -0.153  0.00  0.00    +0.001 A 
ATOM     41  C   UNL     1      19.229  16.158  -0.136  0.00  0.00    +0.010 A 
ATOM     42  H   UNL     1      16.449  19.663  -0.060  0.00  0.00    +0.160 HD
ENDBRANCH  32  33
ENDBRANCH  29  31
ENDBRANCH  26  27
ENDBRANCH  25  26
ENDBRANCH   4  25
TORSDOF 10
