REMARK  Name = ZINC64363647
REMARK  8 active torsions:
REMARK  status: ('A' for Active; 'I' for Inactive)
REMARK    1  A    between atoms: C_1  and  C_2
REMARK    2  A    between atoms: C_4  and  C_12
REMARK    3  A    between atoms: C_12  and  C_13
REMARK    4  A    between atoms: N_15  and  C_16
REMARK    5  A    between atoms: C_16  and  C_18
REMARK    6  A    between atoms: C_16  and  C_19
REMARK    7  A    between atoms: C_23  and  N_25
REMARK    8  A    between atoms: C_26  and  C_28
REMARK                            x       y       z     vdW  Elec       q    Type
REMARK                         _______ _______ _______ _____ _____    ______ ____
ROOT
ATOM      1  C   UNL     1       2.367  -1.214  -5.778  0.00  0.00    +0.100 C 
ATOM      2  C   UNL     1       3.543  -0.238  -5.863  0.00  0.00    +0.033 C 
ENDROOT
BRANCH   1   3
ATOM      3  C   UNL     1       1.793  -1.430  -7.155  0.00  0.00    -0.026 A 
ATOM      4  C   UNL     1       0.937  -0.491  -7.702  0.00  0.00    +0.005 A 
ATOM      5  C   UNL     1       0.409  -0.685  -8.964  0.00  0.00    +0.002 A 
ATOM      6  C   UNL     1       0.734  -1.818  -9.684  0.00  0.00    +0.023 A 
ATOM      7  C   UNL     1       1.593  -2.763  -9.138  0.00  0.00    +0.034 A 
ATOM      8  C   UNL     1       2.127  -2.562  -7.871  0.00  0.00    +0.028 A 
BRANCH   7   9
ATOM      9  N   UNL     1       1.925  -3.911  -9.864  0.00  0.00    -0.281 N 
ATOM     10  C   UNL     1       2.061  -3.846 -11.203  0.00  0.00    +0.248 C 
ATOM     11  O   UNL     1       1.813  -2.811 -11.790  0.00  0.00    -0.270 OA
ATOM     12  H   UNL     1       2.057  -4.755  -9.404  0.00  0.00    +0.155 HD
BRANCH  10  13
ATOM     13  C   UNL     1       2.512  -5.034 -11.959  0.00  0.00    +0.037 A 
ATOM     14  C   UNL     1       2.792  -6.226 -11.289  0.00  0.00    +0.013 A 
ATOM     15  C   UNL     1       3.213  -7.330 -12.001  0.00  0.00    +0.001 A 
ATOM     16  C   UNL     1       3.358  -7.258 -13.375  0.00  0.00    +0.000 A 
ATOM     17  C   UNL     1       3.082  -6.079 -14.045  0.00  0.00    +0.001 A 
ATOM     18  C   UNL     1       2.655  -4.969 -13.346  0.00  0.00    +0.013 A 
ENDBRANCH  10  13
ENDBRANCH   7   9
ENDBRANCH   1   3
BRANCH   1  21
ATOM     19  C   UNL     1       1.414  -0.840  -3.567  0.00  0.00    +0.218 C 
ATOM     20  O   UNL     1       2.341  -1.463  -3.095  0.00  0.00    -0.275 OA
ATOM     21  N   UNL     1       1.335  -0.658  -4.900  0.00  0.00    -0.308 N 
ATOM     22  H   UNL     1       0.593  -0.160  -5.278  0.00  0.00    +0.149 HD
BRANCH  19  23
ATOM     23  C   UNL     1       0.352  -0.268  -2.664  0.00  0.00    +0.129 C 
BRANCH  23  26
ATOM     24  C   UNL     1      -1.042  -1.978  -0.289  0.00  0.00    +0.035 C 
ATOM     25  C   UNL     1       0.465  -1.740  -0.401  0.00  0.00    +0.104 C 
ATOM     26  C   UNL     1       0.737  -0.501  -1.226  0.00  0.00    -0.030 C 
ATOM     27  C   UNL     1       1.395   0.354  -0.411  0.00  0.00    -0.000 A 
ATOM     28  C   UNL     1       1.930   1.706  -0.613  0.00  0.00    +0.010 A 
ATOM     29  C   UNL     1       2.556   2.324   0.415  0.00  0.00    +0.001 A 
ATOM     30  C   UNL     1       2.705   1.707   1.665  0.00  0.00    +0.002 A 
ATOM     31  C   UNL     1       2.241   0.467   1.926  0.00  0.00    +0.026 A 
ATOM     32  C   UNL     1       1.566  -0.275   0.918  0.00  0.00    +0.043 A 
ATOM     33  N   UNL     1       1.035  -1.475   0.925  0.00  0.00    -0.378 N 
ATOM     34  H   UNL     1       1.020  -2.084   1.679  0.00  0.00    +0.160 HD
ENDBRANCH  23  26
ENDBRANCH  19  23
ENDBRANCH   1  21
TORSDOF 6
