REMARK  Name = ZINC67332062
REMARK  8 active torsions:
REMARK  status: ('A' for Active; 'I' for Inactive)
REMARK    1  A    between atoms: C_3  and  S_25
REMARK    2  A    between atoms: C_6  and  C_7
REMARK    3  A    between atoms: C_7  and  C_8
REMARK    4  A    between atoms: N_10  and  C_11
REMARK    5  A    between atoms: C_11  and  C_12
REMARK    6  A    between atoms: N_17  and  C_18
REMARK    7  A    between atoms: C_18  and  C_19
REMARK    8  A    between atoms: S_25  and  N_28
REMARK                            x       y       z     vdW  Elec       q    Type
REMARK                         _______ _______ _______ _____ _____    ______ ____
ROOT
ATOM      1  C   UNL     1      -1.738  -1.025  -1.407  0.00  0.00    +0.217 C 
ATOM      2  O   UNL     1      -1.070  -0.616  -2.333  0.00  0.00    -0.275 OA
ATOM      3  N   UNL     1      -2.879  -1.702  -1.646  0.00  0.00    -0.317 N 
ATOM      4  H   UNL     1      -3.413  -2.028  -0.905  0.00  0.00    +0.149 HD
ENDROOT
BRANCH   1   5
ATOM      5  C   UNL     1      -1.293  -0.775   0.011  0.00  0.00    +0.130 C 
BRANCH   5  11
ATOM      6  C   UNL     1      -0.017   1.378   0.010  0.00  0.00    +0.006 A 
ATOM      7  C   UNL     1       1.171   2.086   0.002  0.00  0.00    +0.029 A 
ATOM      8  C   UNL     1       2.377   1.411  -0.013  0.00  0.00    +0.105 A 
ATOM      9  C   UNL     1       2.396   0.029  -0.020  0.00  0.00    +0.029 A 
ATOM     10  C   UNL     1       1.208  -0.679  -0.012  0.00  0.00    +0.006 A 
ATOM     11  C   UNL     1       0.002  -0.004   0.002  0.00  0.00    -0.039 A 
BRANCH   8  12
ATOM     12  S   UNL     1       3.891   2.312  -0.024  0.00  0.00    +0.056 S 
ATOM     13  O   UNL     1       4.872   1.453  -0.588  0.00  0.00    -0.153 OA
ATOM     14  O   UNL     1       3.597   3.593  -0.566  0.00  0.00    -0.153 OA
BRANCH  12  15
ATOM     15  N   UNL     1       4.327   2.556   1.555  0.00  0.00    -0.204 NA
ATOM     16  H   UNL     1       3.768   2.215   2.271  0.00  0.00    +0.144 HD
ATOM     17  H   UNL     1       5.142   3.039   1.764  0.00  0.00    +0.144 HD
ENDBRANCH  12  15
ENDBRANCH   8  12
ENDBRANCH   5  11
ENDBRANCH   1   5
BRANCH   3  18
ATOM     18  C   UNL     1      -3.312  -1.944  -3.024  0.00  0.00    +0.089 C 
BRANCH  18  19
ATOM     19  C   UNL     1      -4.627  -2.727  -3.015  0.00  0.00    -0.051 C 
ATOM     20  C   UNL     1      -5.179  -2.842  -4.452  0.00  0.00    -0.016 C 
ATOM     21  C   UNL     1      -6.709  -2.682  -4.252  0.00  0.00    -0.020 C 
ATOM     22  C   UNL     1      -6.768  -1.652  -3.097  0.00  0.00    -0.078 C 
ATOM     23  N   UNL     1      -5.633  -2.008  -2.213  0.00  0.00    +0.383 N 
ATOM     24  H   UNL     1      -5.225  -1.169  -1.828  0.00  0.00    -0.081 HD
BRANCH  23  25
ATOM     25  C   UNL     1      -6.105  -2.872  -1.122  0.00  0.00    -0.075 C 
BRANCH  25  26
ATOM     26  C   UNL     1      -7.054  -2.082  -0.220  0.00  0.00    -0.028 C 
ATOM     27  C   UNL     1      -6.284  -0.950   0.464  0.00  0.00    +0.002 C 
ATOM     28  C   UNL     1      -7.234  -0.160   1.367  0.00  0.00    +0.000 C 
ATOM     29  C   UNL     1      -7.822  -1.091   2.429  0.00  0.00    +0.000 C 
ATOM     30  C   UNL     1      -8.591  -2.223   1.745  0.00  0.00    +0.000 C 
ATOM     31  C   UNL     1      -7.642  -3.013   0.843  0.00  0.00    +0.002 C 
ENDBRANCH  25  26
ENDBRANCH  23  25
ENDBRANCH  18  19
ENDBRANCH   3  18
TORSDOF 8
