REMARK  Name = ZINC66109941
REMARK  10 active torsions:
REMARK  status: ('A' for Active; 'I' for Inactive)
REMARK    1  A    between atoms: C_1  and  C_2
REMARK    2  A    between atoms: C_2  and  C_3
REMARK    3  A    between atoms: C_3  and  C_5
REMARK    4  A    between atoms: C_3  and  N_11
REMARK    5  A    between atoms: N_11  and  C_12
REMARK    6  A    between atoms: C_12  and  C_13
REMARK    7  A    between atoms: N_15  and  C_16
REMARK    8  A    between atoms: C_21  and  O_22
REMARK    9  A    between atoms: O_22  and  C_23
REMARK   10  A    between atoms: C_23  and  C_24
REMARK                            x       y       z     vdW  Elec       q    Type
REMARK                         _______ _______ _______ _____ _____    ______ ____
ROOT
ATOM      1  C   UNL     1      -1.098   1.580  -3.919  0.00  0.00    +0.200 C 
ATOM      2  O   UNL     1      -1.849   0.728  -4.346  0.00  0.00    -0.278 OA
ATOM      3  N   UNL     1      -0.959   2.747  -4.578  0.00  0.00    -0.284 N 
ATOM      4  H   UNL     1      -0.302   3.396  -4.282  0.00  0.00    +0.155 HD
ENDROOT
BRANCH   3   5
ATOM      5  C   UNL     1      -1.763   3.023  -5.692  0.00  0.00    +0.076 A 
ATOM      6  C   UNL     1      -2.949   2.330  -5.883  0.00  0.00    +0.027 A 
ATOM      7  C   UNL     1      -3.741   2.604  -6.982  0.00  0.00    +0.002 A 
ATOM      8  C   UNL     1      -3.353   3.568  -7.894  0.00  0.00    +0.004 A 
ATOM      9  C   UNL     1      -2.172   4.263  -7.712  0.00  0.00    +0.047 A 
ATOM     10  C   UNL     1      -1.376   3.998  -6.609  0.00  0.00    +0.142 A 
BRANCH  10  11
ATOM     11  O   UNL     1      -0.217   4.684  -6.425  0.00  0.00    -0.486 OA
BRANCH  11  12
ATOM     12  C   UNL     1       0.117   5.670  -7.405  0.00  0.00    +0.264 C 
BRANCH  12  13
ATOM     13  C   UNL     1       1.424   6.322  -7.036  0.00  0.00    -0.010 A 
ATOM     14  C   UNL     1       1.433   7.446  -6.232  0.00  0.00    +0.007 A 
ATOM     15  C   UNL     1       2.633   8.045  -5.894  0.00  0.00    +0.000 A 
ATOM     16  C   UNL     1       3.823   7.519  -6.361  0.00  0.00    +0.000 A 
ATOM     17  C   UNL     1       3.814   6.394  -7.165  0.00  0.00    +0.000 A 
ATOM     18  C   UNL     1       2.615   5.793  -7.499  0.00  0.00    +0.007 A 
ENDBRANCH  12  13
ENDBRANCH  11  12
ENDBRANCH  10  11
ENDBRANCH   3   5
BRANCH   1  19
ATOM     19  C   UNL     1      -0.321   1.333  -2.652  0.00  0.00    +0.016 C 
BRANCH  19  20
ATOM     20  N   UNL     1      -0.646  -0.002  -2.131  0.00  0.00    +0.389 N 
ATOM     21  H   UNL     1      -0.366  -0.702  -2.801  0.00  0.00    -0.084 HD
ATOM     22  H   UNL     1      -1.640  -0.068  -1.971  0.00  0.00    -0.084 HD
BRANCH  20  23
ATOM     23  C   UNL     1       0.069  -0.221  -0.866  0.00  0.00    -0.041 C 
BRANCH  23  24
ATOM     24  C   UNL     1       1.552  -0.265  -1.128  0.00  0.00    -0.061 A 
ATOM     25  C   UNL     1       2.036  -0.906  -2.253  0.00  0.00    +0.002 A 
ATOM     26  C   UNL     1       3.397  -0.946  -2.494  0.00  0.00    +0.000 A 
ATOM     27  C   UNL     1       4.273  -0.346  -1.610  0.00  0.00    +0.000 A 
ATOM     28  C   UNL     1       3.789   0.296  -0.485  0.00  0.00    +0.000 A 
ATOM     29  C   UNL     1       2.428   0.340  -0.247  0.00  0.00    +0.002 A 
ENDBRANCH  23  24
BRANCH  23  31
ATOM     30  C   UNL     1      -1.854  -1.452   0.149  0.00  0.00    +0.002 C 
ATOM     31  C   UNL     1      -0.380  -1.547  -0.250  0.00  0.00    -0.015 C 
ENDBRANCH  23  31
ENDBRANCH  20  23
ENDBRANCH  19  20
ENDBRANCH   1  19
TORSDOF 9
