REMARK  Name = ZINC44714088
REMARK  9 active torsions:
REMARK  status: ('A' for Active; 'I' for Inactive)
REMARK    1  A    between atoms: C_1  and  C_2
REMARK    2  A    between atoms: C_3  and  C_9
REMARK    3  A    between atoms: C_4  and  C_8
REMARK    4  A    between atoms: C_9  and  C_11
REMARK    5  A    between atoms: C_9  and  N_12
REMARK    6  A    between atoms: C_13  and  C_15
REMARK    7  A    between atoms: C_26  and  C_28
REMARK    8  A    between atoms: C_32  and  O_33
REMARK    9  A    between atoms: O_33  and  C_34
REMARK                            x       y       z     vdW  Elec       q    Type
REMARK                         _______ _______ _______ _____ _____    ______ ____
ROOT
ATOM      1  C   UNL     1       2.536  -1.359  -5.213  0.00  0.00    +0.100 C 
ATOM      2  C   UNL     1       1.933  -2.707  -5.667  0.00  0.00    +0.121 C 
ATOM      3  N   UNL     1       1.420  -2.446  -7.033  0.00  0.00    -0.296 N 
ATOM      4  C   UNL     1       2.444  -1.570  -7.650  0.00  0.00    +0.115 C 
ATOM      5  C   UNL     1       2.873  -0.617  -6.517  0.00  0.00    -0.004 C 
ATOM      6  C   UNL     1       4.372  -0.343  -6.597  0.00  0.00    -0.010 C 
ATOM      7  C   UNL     1       4.675   0.447  -7.874  0.00  0.00    -0.082 C 
ATOM      8  N   UNL     1       3.926   1.709  -7.860  0.00  0.00    +0.379 N 
ATOM      9  C   UNL     1       2.484   1.436  -7.877  0.00  0.00    -0.082 C 
ATOM     10  C   UNL     1       2.089   0.689  -6.601  0.00  0.00    -0.010 C 
ATOM     11  C   UNL     1       0.280  -2.902  -7.588  0.00  0.00    +0.251 C 
ATOM     12  O   UNL     1      -0.511  -3.538  -6.917  0.00  0.00    -0.270 OA
ATOM     13  H   UNL     1       4.159   2.228  -7.026  0.00  0.00    -0.086 HD
ATOM     14  H   UNL     1       4.174   2.254  -8.672  0.00  0.00    -0.086 HD
ENDROOT
BRANCH  11  15
ATOM     15  C   UNL     1      -0.008  -2.632  -9.004  0.00  0.00    +0.087 A 
ATOM     16  C   UNL     1       0.995  -2.587  -9.948  0.00  0.00    +0.063 A 
ATOM     17  S   UNL     1       0.196  -2.256 -11.386  0.00  0.00    -0.081 S 
ATOM     18  C   UNL     1      -1.482  -2.165 -10.798  0.00  0.00    +0.120 A 
ATOM     19  C   UNL     1      -1.356  -2.408  -9.473  0.00  0.00    +0.158 A 
ATOM     20 CL   UNL     1      -2.927  -1.849 -11.705  0.00  0.00    -0.072 Cl
BRANCH  19  21
ATOM     21  O   UNL     1      -2.429  -2.433  -8.636  0.00  0.00    -0.492 OA
ATOM     22  C   UNL     1      -2.806  -1.197  -8.026  0.00  0.00    +0.277 C 
ENDBRANCH  19  21
ENDBRANCH  11  15
BRANCH   1  24
ATOM     23  N   UNL     1       1.943   0.261  -3.440  0.00  0.00    -0.308 N 
ATOM     24  C   UNL     1       1.528  -0.577  -4.410  0.00  0.00    +0.219 C 
ATOM     25  O   UNL     1       0.343  -0.702  -4.638  0.00  0.00    -0.275 OA
ATOM     26  H   UNL     1       2.890   0.361  -3.258  0.00  0.00    +0.149 HD
BRANCH  23  27
ATOM     27  C   UNL     1       0.963   1.021  -2.660  0.00  0.00    +0.104 C 
ATOM     28  C   UNL     1       0.458   0.162  -1.499  0.00  0.00    +0.033 C 
BRANCH  27  31
ATOM     29  C   UNL     1      -0.266   3.898  -2.688  0.00  0.00    +0.065 C 
ATOM     30  C   UNL     1       1.079   3.512  -2.129  0.00  0.00    +0.038 A 
ATOM     31  C   UNL     1       1.611   2.268  -2.116  0.00  0.00    +0.015 A 
ATOM     32  C   UNL     1       2.870   2.345  -1.510  0.00  0.00    +0.065 A 
ATOM     33  N   UNL     1       3.085   3.590  -1.171  0.00  0.00    -0.179 NA
ATOM     34  N   UNL     1       1.971   4.347  -1.556  0.00  0.00    -0.281 N 
ATOM     35  H   UNL     1       1.860   5.303  -1.430  0.00  0.00    +0.189 HD
ATOM     36  C   UNL     1       3.814   1.192  -1.286  0.00  0.00    +0.068 C 
ENDBRANCH  27  31
ENDBRANCH  23  27
ENDBRANCH   1  24
TORSDOF 5
