REMARK  Name = ZINC40713595
REMARK  5 active torsions:
REMARK  status: ('A' for Active; 'I' for Inactive)
REMARK    1  A    between atoms: C_1  and  C_2
REMARK    2  A    between atoms: C_2  and  N_3
REMARK    3  A    between atoms: C_7  and  C_9
REMARK    4  A    between atoms: C_9  and  N_10
REMARK    5  A    between atoms: C_12  and  N_18
REMARK                            x       y       z     vdW  Elec       q    Type
REMARK                         _______ _______ _______ _____ _____    ______ ____
ROOT
ATOM      1  N   UNL     1      -1.557  -1.711  -2.540  0.00  0.00    -0.329 N 
ATOM      2  C   UNL     1      -2.088  -1.934  -3.808  0.00  0.00    +0.140 A 
ATOM      3  C   UNL     1      -1.539  -1.280  -4.914  0.00  0.00    +0.066 A 
ATOM      4  C   UNL     1      -2.080  -1.513  -6.171  0.00  0.00    +0.043 A 
ATOM      5  C   UNL     1      -3.150  -2.393  -6.277  0.00  0.00    +0.038 A 
ATOM      6  C   UNL     1      -3.640  -3.003  -5.141  0.00  0.00    +0.128 A 
ATOM      7  N   UNL     1      -3.103  -2.768  -3.957  0.00  0.00    -0.238 NA
ATOM      8 BR   UNL     1      -3.929  -2.749  -7.964  0.00  0.00    -0.049 Br
ATOM      9  H   UNL     1      -0.812  -1.101  -2.426  0.00  0.00    +0.147 HD
ENDROOT
BRANCH   3  10
ATOM     10  N   UNL     1      -0.460  -0.401  -4.757  0.00  0.00    -0.355 N 
ATOM     11  H   UNL     1      -0.088  -0.243  -3.875  0.00  0.00    +0.142 HD
ATOM     12  H   UNL     1      -0.085   0.049  -5.530  0.00  0.00    +0.142 HD
ENDBRANCH   3  10
BRANCH   1  13
ATOM     13  C   UNL     1      -2.124  -2.399  -1.377  0.00  0.00    +0.088 C 
BRANCH  13  18
ATOM     14  N   UNL     1      -1.376  -0.512   0.012  0.00  0.00    +0.382 N 
ATOM     15  C   UNL     1      -2.028  -0.158   1.291  0.00  0.00    -0.078 C 
ATOM     16  C   UNL     1      -2.935  -1.369   1.623  0.00  0.00    -0.020 C 
ATOM     17  C   UNL     1      -2.064  -2.556   1.133  0.00  0.00    -0.016 C 
ATOM     18  C   UNL     1      -1.364  -1.981  -0.117  0.00  0.00    -0.051 C 
ATOM     19  H   UNL     1      -1.894  -0.109  -0.754  0.00  0.00    -0.081 HD
BRANCH  14  21
ATOM     20  C   UNL     1      -0.019   1.526   0.010  0.00  0.00    -0.017 C 
ATOM     21  C   UNL     1       0.002  -0.004   0.002  0.00  0.00    -0.082 C 
ENDBRANCH  14  21
ENDBRANCH  13  18
ENDBRANCH   1  13
TORSDOF 4
