REMARK  Name = ZINC45944566
REMARK  5 active torsions:
REMARK  status: ('A' for Active; 'I' for Inactive)
REMARK    1  A    between atoms: C_1  and  C_2
REMARK    2  A    between atoms: N_8  and  C_9
REMARK    3  A    between atoms: C_9  and  C_11
REMARK    4  A    between atoms: C_9  and  C_17
REMARK    5  A    between atoms: C_26  and  O_27
REMARK                            x       y       z     vdW  Elec       q    Type
REMARK                         _______ _______ _______ _____ _____    ______ ____
ROOT
ATOM      1  C   UNL     1       0.048  -2.142   3.611  0.00  0.00    +0.136 C 
ENDROOT
BRANCH   1   2
ATOM      2  C   UNL     1       0.551  -3.072   4.685  0.00  0.00    +0.022 A 
ATOM      3  C   UNL     1       0.629  -4.439   4.427  0.00  0.00    +0.030 A 
ATOM      4  C   UNL     1       1.081  -5.306   5.377  0.00  0.00    +0.051 A 
ATOM      5  C   UNL     1       1.474  -4.818   6.635  0.00  0.00    +0.022 A 
ATOM      6  C   UNL     1       1.946  -5.682   7.641  0.00  0.00    +0.013 A 
ATOM      7  C   UNL     1       2.312  -5.137   8.839  0.00  0.00    +0.020 A 
ATOM      8  C   UNL     1       2.211  -3.761   9.036  0.00  0.00    +0.111 A 
ATOM      9  N   UNL     1       1.771  -2.960   8.097  0.00  0.00    -0.251 NA
ATOM     10  C   UNL     1       1.397  -3.429   6.903  0.00  0.00    +0.114 A 
ATOM     11  C   UNL     1       0.930  -2.562   5.894  0.00  0.00    +0.148 A 
ATOM     12 CL   UNL     1       1.169  -7.005   5.034  0.00  0.00    -0.083 Cl
BRANCH  11  13
ATOM     13  O   UNL     1       0.852  -1.225   6.125  0.00  0.00    -0.504 OA
ATOM     14  H   UNL     1       0.005  -0.938   6.492  0.00  0.00    +0.292 HD
ENDBRANCH  11  13
ENDBRANCH   1   2
BRANCH   1  22
ATOM     15  C   UNL     1       0.209   1.781   0.319  0.00  0.00    +0.044 C 
ATOM     16  C   UNL     1       0.376   0.288   0.207  0.00  0.00    -0.046 A 
ATOM     17  C   UNL     1       0.639  -0.307  -1.020  0.00  0.00    +0.021 A 
ATOM     18  C   UNL     1       0.787  -1.678  -1.089  0.00  0.00    +0.084 A 
ATOM     19  N   UNL     1       0.680  -2.425  -0.007  0.00  0.00    -0.350 N 
ATOM     20  C   UNL     1       0.429  -1.896   1.181  0.00  0.00    +0.097 A 
ATOM     21  C   UNL     1       0.275  -0.521   1.325  0.00  0.00    +0.045 A 
ATOM     22  N   UNL     1       0.325  -2.721   2.295  0.00  0.00    -0.320 N 
ATOM     23  H   UNL     1       0.436  -3.680   2.200  0.00  0.00    +0.148 HD
ATOM     24  H   UNL     1       0.788  -3.386  -0.083  0.00  0.00    +0.166 HD
ENDBRANCH   1  22
BRANCH   1  25
ATOM     25  C   UNL     1      -1.438  -1.948   3.772  0.00  0.00    -0.020 A 
ATOM     26  C   UNL     1      -2.332  -2.903   3.313  0.00  0.00    +0.025 A 
ATOM     27  C   UNL     1      -3.688  -2.690   3.478  0.00  0.00    +0.111 A 
ATOM     28  N   UNL     1      -4.133  -1.595   4.062  0.00  0.00    -0.263 NA
ATOM     29  C   UNL     1      -3.312  -0.666   4.510  0.00  0.00    +0.111 A 
ATOM     30  C   UNL     1      -1.943  -0.812   4.387  0.00  0.00    +0.025 A 
ENDBRANCH   1  25
TORSDOF 4
