REMARK  Name = ZINC11661904
REMARK  12 active torsions:
REMARK  status: ('A' for Active; 'I' for Inactive)
REMARK    1  A    between atoms: C_1  and  O_2
REMARK    2  A    between atoms: O_2  and  C_3
REMARK    3  A    between atoms: C_6  and  C_19
REMARK    4  A    between atoms: C_8  and  O_9
REMARK    5  A    between atoms: O_9  and  C_10
REMARK    6  A    between atoms: C_10  and  C_11
REMARK    7  A    between atoms: C_11  and  C_13
REMARK    8  A    between atoms: C_11  and  O_18
REMARK    9  A    between atoms: C_13  and  N_69
REMARK   10  A    between atoms: C_19  and  N_71
REMARK   11  A    between atoms: C_20  and  C_21
REMARK   12  A    between atoms: C_20  and  N_71
REMARK                            x       y       z     vdW  Elec       q    Type
REMARK                         _______ _______ _______ _____ _____    ______ ____
ROOT
ATOM      1  C   UNL     1      -1.192  -0.718   0.010  0.00  0.00    +0.162 A 
ATOM      2  C   UNL     1      -1.168  -2.103   0.002  0.00  0.00    +0.049 A 
ATOM      3  C   UNL     1       0.041  -2.773  -0.013  0.00  0.00    +0.005 A 
ATOM      4  C   UNL     1       1.227  -2.064  -0.020  0.00  0.00    -0.061 A 
ATOM      5  C   UNL     1       1.210  -0.682  -0.019  0.00  0.00    +0.051 A 
ATOM      6  C   UNL     1       0.002  -0.004   0.002  0.00  0.00    +0.162 A 
ENDROOT
BRANCH   1   8
ATOM      7  C   UNL     1      -3.567  -0.854   0.032  0.00  0.00    +0.277 C 
ATOM      8  O   UNL     1      -2.381  -0.057   0.025  0.00  0.00    -0.491 OA
ENDBRANCH   1   8
BRANCH   6   9
ATOM      9  O   UNL     1      -0.016   1.356   0.009  0.00  0.00    -0.486 OA
BRANCH   9  10
ATOM     10  C   UNL     1       1.248   2.022   0.001  0.00  0.00    +0.258 C 
BRANCH  10  11
ATOM     11  C   UNL     1       1.027   3.536   0.011  0.00  0.00    +0.135 C 
BRANCH  11  12
ATOM     12  O   UNL     1       0.383   3.931  -1.202  0.00  0.00    -0.390 OA
ATOM     13  H   UNL     1       0.886   3.722  -2.000  0.00  0.00    +0.210 HD
ENDBRANCH  11  12
BRANCH  11  14
ATOM     14  C   UNL     1       2.376   4.247   0.128  0.00  0.00    -0.044 C 
BRANCH  14  19
ATOM     15  C   UNL     1       1.206   5.991   1.360  0.00  0.00    -0.079 C 
ATOM     16  C   UNL     1       1.500   7.476   1.691  0.00  0.00    -0.020 C 
ATOM     17  C   UNL     1       3.034   7.570   1.526  0.00  0.00    -0.020 C 
ATOM     18  C   UNL     1       3.413   6.391   0.611  0.00  0.00    -0.079 C 
ATOM     19  N   UNL     1       2.159   5.718   0.272  0.00  0.00    +0.381 N 
ATOM     20  H   UNL     1       1.793   6.092  -0.612  0.00  0.00    -0.082 HD
ENDBRANCH  14  19
ENDBRANCH  11  14
ENDBRANCH  10  11
ENDBRANCH   9  10
ENDBRANCH   6   9
BRANCH   4  21
ATOM     21  C   UNL     1       2.543  -2.800  -0.036  0.00  0.00    -0.047 C 
BRANCH  21  22
ATOM     22  N   UNL     1       2.952  -3.029  -1.435  0.00  0.00    +0.382 N 
ATOM     23  H   UNL     1       3.052  -2.124  -1.910  0.00  0.00    -0.085 HD
ATOM     24  H   UNL     1       2.234  -3.587  -1.911  0.00  0.00    -0.085 HD
BRANCH  22  25
ATOM     25  C   UNL     1       4.238  -3.748  -1.481  0.00  0.00    -0.078 C 
BRANCH  25  26
ATOM     26  C   UNL     1       4.636  -3.971  -2.942  0.00  0.00    -0.022 C 
ATOM     27  C   UNL     1       3.623  -4.902  -3.610  0.00  0.00    -0.009 C 
ATOM     28  C   UNL     1       4.021  -5.124  -5.071  0.00  0.00    +0.007 C 
ATOM     29  C   UNL     1       5.412  -5.758  -5.129  0.00  0.00    -0.010 C 
ATOM     30  C   UNL     1       5.392  -7.101  -4.396  0.00  0.00    +0.007 C 
ATOM     31  C   UNL     1       4.994  -6.878  -2.936  0.00  0.00    -0.010 C 
ATOM     32  C   UNL     1       3.603  -6.244  -2.877  0.00  0.00    +0.007 C 
ATOM     33  C   UNL     1       6.007  -5.947  -2.267  0.00  0.00    +0.007 C 
ATOM     34  C   UNL     1       6.028  -4.605  -3.000  0.00  0.00    -0.009 C 
ATOM     35  C   UNL     1       6.426  -4.827  -4.461  0.00  0.00    +0.007 C 
ENDBRANCH  25  26
ENDBRANCH  22  25
ENDBRANCH  21  22
ENDBRANCH   4  21
TORSDOF 11
