REMARK  Name = ZINC65989522
REMARK  9 active torsions:
REMARK  status: ('A' for Active; 'I' for Inactive)
REMARK    1  A    between atoms: C_1  and  C_2
REMARK    2  A    between atoms: C_2  and  C_3
REMARK    3  A    between atoms: C_2  and  N_15
REMARK    4  A    between atoms: C_7  and  N_9
REMARK    5  A    between atoms: N_18  and  C_19
REMARK    6  A    between atoms: C_21  and  C_27
REMARK    7  A    between atoms: C_21  and  C_28
REMARK    8  A    between atoms: C_23  and  C_25
REMARK    9  A    between atoms: C_23  and  C_26
REMARK                            x       y       z     vdW  Elec       q    Type
REMARK                         _______ _______ _______ _____ _____    ______ ____
ROOT
ATOM      1  N   UNL     1       0.625  -0.507   0.735  0.00  0.00    -0.293 N 
ATOM      2  C   UNL     1      -0.134  -0.701   1.833  0.00  0.00    +0.300 C 
ATOM      3  O   UNL     1      -1.339  -0.555   1.772  0.00  0.00    -0.253 OA
ATOM      4  N   UNL     1       0.445  -1.056   2.997  0.00  0.00    -0.297 N 
ATOM      5  H   UNL     1       1.587  -0.624   0.784  0.00  0.00    +0.151 HD
ATOM      6  H   UNL     1       1.406  -1.172   3.046  0.00  0.00    +0.151 HD
ENDROOT
BRANCH   4   7
ATOM      7  C   UNL     1      -0.382  -1.266   4.193  0.00  0.00    +0.072 C 
ATOM      8  C   UNL     1      -0.882  -2.712   4.209  0.00  0.00    +0.009 C 
ATOM      9  C   UNL     1      -1.734  -2.951   5.455  0.00  0.00    -0.072 C 
ATOM     10  N   UNL     1      -1.032  -2.590   6.677  0.00  0.00    +0.386 N 
ATOM     11  C   UNL     1      -0.337  -1.312   6.705  0.00  0.00    -0.072 C 
ATOM     12  C   UNL     1       0.471  -1.040   5.441  0.00  0.00    +0.009 C 
ATOM     13  C   UNL     1      -1.298  -0.151   6.971  0.00  0.00    -0.010 C 
ATOM     14  C   UNL     1       0.660  -1.352   7.887  0.00  0.00    -0.010 C 
ATOM     15  C   UNL     1      -2.037  -4.466   5.520  0.00  0.00    -0.010 C 
ATOM     16  C   UNL     1      -3.074  -2.227   5.326  0.00  0.00    -0.010 C 
ATOM     17  H   UNL     1      -1.702  -2.610   7.450  0.00  0.00    -0.084 HD
ATOM     18  H   UNL     1      -0.356  -3.328   6.889  0.00  0.00    -0.084 HD
ENDBRANCH   4   7
BRANCH   1  20
ATOM     19  C   UNL     1      -0.185   1.397  -0.568  0.00  0.00    +0.033 C 
ATOM     20  C   UNL     1      -0.004  -0.122  -0.531  0.00  0.00    +0.102 C 
BRANCH  20  21
ATOM     21  C   UNL     1       0.874  -0.551  -1.678  0.00  0.00    -0.026 A 
ATOM     22  C   UNL     1       2.248  -0.424  -1.582  0.00  0.00    +0.005 A 
ATOM     23  C   UNL     1       3.056  -0.817  -2.633  0.00  0.00    +0.002 A 
ATOM     24  C   UNL     1       2.494  -1.338  -3.782  0.00  0.00    +0.023 A 
ATOM     25  C   UNL     1       1.115  -1.467  -3.881  0.00  0.00    +0.037 A 
ATOM     26  C   UNL     1       0.306  -1.076  -2.822  0.00  0.00    +0.029 A 
BRANCH  25  27
ATOM     27  N   UNL     1       0.542  -1.994  -5.044  0.00  0.00    -0.271 N 
ATOM     28  C   UNL     1      -0.889  -2.278  -5.207  0.00  0.00    +0.114 C 
ATOM     29  C   UNL     1      -1.111  -2.415  -6.729  0.00  0.00    +0.029 C 
ATOM     30  C   UNL     1       0.294  -2.840  -7.216  0.00  0.00    +0.098 C 
ATOM     31  C   UNL     1       1.230  -2.300  -6.157  0.00  0.00    +0.220 C 
ATOM     32  O   UNL     1       2.428  -2.166  -6.292  0.00  0.00    -0.275 OA
ENDBRANCH  25  27
ENDBRANCH  20  21
ENDBRANCH   1  20
TORSDOF 4
