REMARK  Name = ZINC38511508
REMARK  5 active torsions:
REMARK  status: ('A' for Active; 'I' for Inactive)
REMARK    1  A    between atoms: C_1  and  N_2
REMARK    2  A    between atoms: C_13  and  N_17
REMARK    3  A    between atoms: C_18  and  C_20
REMARK    4  A    between atoms: N_25  and  S_27
REMARK    5  A    between atoms: S_27  and  C_30
REMARK                            x       y       z     vdW  Elec       q    Type
REMARK                         _______ _______ _______ _____ _____    ______ ____
ROOT
ATOM      1  N   UNL     1       6.476  -8.057  -0.070  0.00  0.00    -0.285 N 
ATOM      2  C   UNL     1       7.023  -8.771  -1.073  0.00  0.00    +0.222 C 
ATOM      3  O   UNL     1       6.759  -8.499  -2.226  0.00  0.00    -0.275 OA
ATOM      4  H   UNL     1       6.739  -8.230   0.848  0.00  0.00    +0.155 HD
ENDROOT
BRANCH   1  17
ATOM      5  C   UNL     1      -0.995  -0.986  -5.268  0.00  0.00    -0.096 C 
ATOM      6  N   UNL     1       0.164  -1.099  -4.372  0.00  0.00    +0.380 N 
ATOM      7  C   UNL     1      -0.206  -1.897  -3.196  0.00  0.00    -0.060 C 
ATOM      8  C   UNL     1       0.965  -1.920  -2.208  0.00  0.00    +0.088 C 
ATOM      9  N   UNL     1       2.163  -2.400  -2.915  0.00  0.00    -0.313 N 
ATOM     10  C   UNL     1       2.515  -1.762  -4.193  0.00  0.00    +0.088 C 
ATOM     11  C   UNL     1       1.271  -1.747  -5.087  0.00  0.00    -0.060 C 
ATOM     12  C   UNL     1       2.933  -3.420  -2.394  0.00  0.00    +0.162 A 
ATOM     13  N   UNL     1       2.761  -4.096  -1.282  0.00  0.00    -0.225 NA
ATOM     14  C   UNL     1       3.604  -5.080  -0.892  0.00  0.00    +0.080 A 
ATOM     15  C   UNL     1       3.534  -5.878   0.273  0.00  0.00    +0.031 A 
ATOM     16  C   UNL     1       4.468  -6.834   0.523  0.00  0.00    +0.025 A 
ATOM     17  C   UNL     1       5.526  -7.066  -0.352  0.00  0.00    +0.035 A 
ATOM     18  C   UNL     1       5.629  -6.302  -1.507  0.00  0.00    +0.040 A 
ATOM     19  C   UNL     1       4.688  -5.337  -1.762  0.00  0.00    +0.043 A 
ATOM     20  S   UNL     1       4.414  -4.161  -3.066  0.00  0.00    -0.052 S 
ATOM     21  H   UNL     1       0.449  -0.178  -4.076  0.00  0.00    -0.082 HD
ENDBRANCH   1  17
BRANCH   2  22
ATOM     22  C   UNL     1       7.965  -9.906  -0.764  0.00  0.00    +0.091 C 
ATOM     23  C   UNL     1       9.172  -9.372   0.010  0.00  0.00    +0.015 C 
ATOM     24  C   UNL     1      10.113 -10.530   0.353  0.00  0.00    +0.018 C 
ATOM     25  C   UNL     1      10.615 -11.175  -0.943  0.00  0.00    +0.109 C 
ATOM     26  N   UNL     1       9.456 -11.561  -1.759  0.00  0.00    -0.176 NA
ATOM     27  C   UNL     1       8.442 -10.545  -2.072  0.00  0.00    +0.122 C 
BRANCH  26  28
ATOM     28  S   UNL     1       9.296 -13.112  -2.317  0.00  0.00    +0.061 S 
ATOM     29  O   UNL     1       8.463 -13.046  -3.467  0.00  0.00    -0.153 OA
ATOM     30  O   UNL     1      10.604 -13.667  -2.354  0.00  0.00    -0.153 OA
BRANCH  28  31
ATOM     31  C   UNL     1       8.400 -14.014  -1.097  0.00  0.00    +0.106 A 
ATOM     32  C   UNL     1       9.078 -14.662  -0.081  0.00  0.00    +0.031 A 
ATOM     33  C   UNL     1       8.376 -15.369   0.876  0.00  0.00    +0.040 A 
ATOM     34  C   UNL     1       6.994 -15.430   0.818  0.00  0.00    +0.124 A 
ATOM     35  C   UNL     1       6.317 -14.781  -0.201  0.00  0.00    +0.040 A 
ATOM     36  C   UNL     1       7.020 -14.069  -1.154  0.00  0.00    +0.031 A 
ATOM     37  F   UNL     1       6.307 -16.122   1.753  0.00  0.00    -0.205 F 
ENDBRANCH  28  31
ENDBRANCH  26  28
ENDBRANCH   2  22
TORSDOF 4
