REMARK  Name = ZINC52558253
REMARK  12 active torsions:
REMARK  status: ('A' for Active; 'I' for Inactive)
REMARK    1  A    between atoms: C_1  and  C_2
REMARK    2  A    between atoms: C_7  and  C_9
REMARK    3  A    between atoms: C_7  and  N_27
REMARK    4  A    between atoms: C_9  and  N_10
REMARK    5  A    between atoms: N_13  and  C_14
REMARK    6  A    between atoms: C_14  and  C_15
REMARK    7  A    between atoms: C_18  and  O_21
REMARK    8  A    between atoms: O_21  and  C_22
REMARK    9  A    between atoms: C_22  and  C_23
REMARK   10  A    between atoms: N_25  and  C_26
REMARK   11  A    between atoms: N_27  and  C_28
REMARK   12  A    between atoms: N_27  and  C_29
REMARK                            x       y       z     vdW  Elec       q    Type
REMARK                         _______ _______ _______ _____ _____    ______ ____
ROOT
ATOM      1  N   UNL     1      -0.700  -4.079   0.966  0.00  0.00    -0.301 N 
ATOM      2  C   UNL     1      -1.875  -4.698   0.732  0.00  0.00    +0.300 C 
ATOM      3  O   UNL     1      -2.846  -4.051   0.392  0.00  0.00    -0.253 OA
ATOM      4  N   UNL     1      -1.972  -6.035   0.875  0.00  0.00    -0.295 N 
ATOM      5  H   UNL     1       0.074  -4.596   1.238  0.00  0.00    +0.150 HD
ATOM      6  H   UNL     1      -1.197  -6.551   1.146  0.00  0.00    +0.151 HD
ENDROOT
BRANCH   1   7
ATOM      7  C   UNL     1      -0.595  -2.626   0.811  0.00  0.00    +0.094 C 
BRANCH   7  13
ATOM      8  C   UNL     1       0.647   1.336  -0.408  0.00  0.00    +0.007 C 
ATOM      9  C   UNL     1       0.561  -0.190  -0.335  0.00  0.00    -0.015 C 
ATOM     10  C   UNL     1       1.543  -0.805  -1.333  0.00  0.00    +0.003 C 
ATOM     11  C   UNL     1       1.457  -2.331  -1.260  0.00  0.00    -0.001 C 
ATOM     12  C   UNL     1       1.810  -2.794   0.155  0.00  0.00    -0.010 C 
ATOM     13  C   UNL     1       0.828  -2.179   1.153  0.00  0.00    -0.050 C 
ATOM     14  C   UNL     1       0.915  -0.653   1.080  0.00  0.00    -0.007 C 
BRANCH  13  15
ATOM     15  N   UNL     1       1.168  -2.624   2.512  0.00  0.00    +0.381 N 
ATOM     16  C   UNL     1       2.503  -2.129   2.870  0.00  0.00    -0.096 C 
ATOM     17  C   UNL     1       0.179  -2.096   3.461  0.00  0.00    -0.096 C 
ATOM     18  H   UNL     1       1.162  -3.632   2.546  0.00  0.00    -0.082 HD
ENDBRANCH  13  15
ENDBRANCH   7  13
ENDBRANCH   1   7
BRANCH   4  19
ATOM     19  C   UNL     1      -3.248  -6.708   0.621  0.00  0.00    +0.141 C 
BRANCH  19  20
ATOM     20  C   UNL     1      -3.090  -8.189   0.850  0.00  0.00    -0.030 A 
ATOM     21  C   UNL     1      -2.706  -9.011  -0.194  0.00  0.00    +0.009 A 
ATOM     22  C   UNL     1      -2.561 -10.369   0.014  0.00  0.00    +0.046 A 
ATOM     23  C   UNL     1      -2.799 -10.908   1.270  0.00  0.00    +0.121 A 
ATOM     24  C   UNL     1      -3.184 -10.080   2.315  0.00  0.00    +0.046 A 
ATOM     25  C   UNL     1      -3.323  -8.722   2.104  0.00  0.00    +0.009 A 
BRANCH  23  26
ATOM     26  O   UNL     1      -2.657 -12.243   1.476  0.00  0.00    -0.483 OA
BRANCH  26  27
ATOM     27  C   UNL     1      -2.920 -12.727   2.795  0.00  0.00    +0.324 C 
BRANCH  27  28
ATOM     28  C   UNL     1      -2.712 -14.220   2.832  0.00  0.00    +0.250 C 
ATOM     29  O   UNL     1      -2.373 -14.810   1.829  0.00  0.00    -0.272 OA
ATOM     30  N   UNL     1      -2.904 -14.898   3.981  0.00  0.00    -0.316 N 
ATOM     31  C   UNL     1      -2.702 -16.349   4.018  0.00  0.00    +0.128 C 
ATOM     32  H   UNL     1      -3.175 -14.426   4.784  0.00  0.00    +0.148 HD
ENDBRANCH  27  28
ENDBRANCH  26  27
ENDBRANCH  23  26
ENDBRANCH  19  20
ENDBRANCH   4  19
TORSDOF 8
