REMARK  Name = ZINC54762336
REMARK  3 active torsions:
REMARK  status: ('A' for Active; 'I' for Inactive)
REMARK    1  A    between atoms: C_4  and  N_8
REMARK    2  A    between atoms: C_9  and  C_13
REMARK    3  A    between atoms: C_13  and  N_14
REMARK                            x       y       z     vdW  Elec       q    Type
REMARK                         _______ _______ _______ _____ _____    ______ ____
ROOT
ATOM      1  N   UNL     1       3.623  -0.659  -0.104  0.00  0.00    -0.198 N 
ATOM      2  C   UNL     1       3.821  -1.988   0.042  0.00  0.00    +0.139 A 
ATOM      3  N   UNL     1       5.113  -2.188   0.055  0.00  0.00    -0.115 NA
ATOM      4  N   UNL     1       5.745  -1.078  -0.073  0.00  0.00    -0.023 NA
ATOM      5  N   UNL     1       4.911  -0.100  -0.181  0.00  0.00    -0.039 NA
ENDROOT
BRANCH   1   9
ATOM      6  C   UNL     1      -0.026   1.350  -0.301  0.00  0.00    +0.016 A 
ATOM      7  C   UNL     1       0.944   1.587  -1.258  0.00  0.00    +0.018 A 
ATOM      8  C   UNL     1       2.154   0.922  -1.195  0.00  0.00    +0.043 A 
ATOM      9  C   UNL     1       2.396   0.017  -0.170  0.00  0.00    +0.084 A 
ATOM     10  C   UNL     1       1.420  -0.218   0.789  0.00  0.00    +0.044 A 
ATOM     11  C   UNL     1       0.211   0.449   0.721  0.00  0.00    +0.020 A 
ATOM     12 BR   UNL     1      -1.119   0.129   2.027  0.00  0.00    -0.050 Br
ATOM     13 BR   UNL     1       3.480   1.246  -2.504  0.00  0.00    -0.048 Br
ENDBRANCH   1   9
BRANCH   2  14
ATOM     14  C   UNL     1       2.751  -3.042   0.167  0.00  0.00    -0.007 C 
BRANCH  14  15
ATOM     15  N   UNL     1       2.418  -3.562  -1.166  0.00  0.00    +0.383 N 
ATOM     16  H   UNL     1       2.082  -2.809  -1.747  0.00  0.00    -0.089 HD
ATOM     17  H   UNL     1       3.243  -3.967  -1.585  0.00  0.00    -0.089 HD
ATOM     18  H   UNL     1       1.702  -4.268  -1.083  0.00  0.00    -0.089 HD
ENDBRANCH  14  15
ENDBRANCH   2  14
TORSDOF 3
