REMARK  Name = ZINC20641998
REMARK  11 active torsions:
REMARK  status: ('A' for Active; 'I' for Inactive)
REMARK    1  A    between atoms: C_1  and  C_2
REMARK    2  A    between atoms: C_2  and  O_3
REMARK    3  A    between atoms: O_3  and  C_4
REMARK    4  A    between atoms: C_7  and  N_10
REMARK    5  A    between atoms: C_20  and  O_38
REMARK    6  A    between atoms: C_23  and  C_37
REMARK    7  A    between atoms: C_24  and  C_26
REMARK    8  A    between atoms: N_28  and  C_29
REMARK    9  A    between atoms: C_32  and  C_36
REMARK   10  A    between atoms: C_34  and  C_35
REMARK   11  A    between atoms: O_38  and  C_39
REMARK                            x       y       z     vdW  Elec       q    Type
REMARK                         _______ _______ _______ _____ _____    ______ ____
ROOT
ATOM      1  N   UNL     1      -2.088   5.480   1.839  0.00  0.00    -0.243 N 
ATOM      2  C   UNL     1      -0.861   5.336   2.362  0.00  0.00    +0.141 C 
ATOM      3  S   UNL     1      -0.702   5.157   4.057  0.00  0.00    -0.018 S 
ATOM      4  N   UNL     1       0.246   5.337   1.610  0.00  0.00    -0.318 N 
ATOM      5  C   UNL     1       0.132   5.406   0.144  0.00  0.00    +0.123 C 
ATOM      6  C   UNL     1      -0.227   4.021  -0.346  0.00  0.00    +0.019 A 
ATOM      7  C   UNL     1       0.790   3.122  -0.620  0.00  0.00    +0.009 A 
ATOM      8  C   UNL     1       0.493   1.847  -1.061  0.00  0.00    +0.004 A 
ATOM      9  C   UNL     1      -0.826   1.463  -1.227  0.00  0.00    +0.049 A 
ATOM     10  C   UNL     1      -1.846   2.359  -0.961  0.00  0.00    +0.162 A 
ATOM     11  C   UNL     1      -1.547   3.648  -0.514  0.00  0.00    +0.170 A 
ATOM     12  O   UNL     1      -2.574   4.504  -0.268  0.00  0.00    -0.463 OA
ATOM     13  C   UNL     1      -2.300   5.724   0.415  0.00  0.00    +0.194 C 
ATOM     14  C   UNL     1      -1.034   6.351  -0.186  0.00  0.00    +0.163 C 
ATOM     15  C   UNL     1      -3.478   6.683   0.234  0.00  0.00    +0.079 C 
ATOM     16  H   UNL     1       1.239   5.286   2.082  0.00  0.00    +0.148 HD
ENDROOT
BRANCH   1  20
ATOM     17  C   UNL     1      -5.400   5.223   4.360  0.00  0.00    +0.121 A 
ATOM     18  C   UNL     1      -4.674   6.403   4.287  0.00  0.00    +0.047 A 
ATOM     19  C   UNL     1      -3.577   6.489   3.452  0.00  0.00    +0.027 A 
ATOM     20  C   UNL     1      -3.201   5.394   2.686  0.00  0.00    +0.039 A 
ATOM     21  C   UNL     1      -3.931   4.215   2.755  0.00  0.00    +0.027 A 
ATOM     22  C   UNL     1      -5.025   4.129   3.594  0.00  0.00    +0.047 A 
BRANCH  17  23
ATOM     23  O   UNL     1      -6.480   5.140   5.182  0.00  0.00    -0.492 OA
BRANCH  23  25
ATOM     24  C   UNL     1      -8.356   3.991   6.182  0.00  0.00    +0.048 C 
ATOM     25  C   UNL     1      -7.181   3.895   5.207  0.00  0.00    +0.225 C 
ENDBRANCH  23  25
ENDBRANCH  17  23
ENDBRANCH   1  20
BRANCH  14  26
ATOM     26  C   UNL     1      -1.183   6.484  -1.680  0.00  0.00    +0.228 C 
ATOM     27  O   UNL     1      -2.220   6.156  -2.218  0.00  0.00    -0.275 OA
ATOM     28  N   UNL     1      -0.164   6.965  -2.419  0.00  0.00    -0.285 N 
ATOM     29  H   UNL     1       0.752   7.324  -1.925  0.00  0.00    +0.155 HD
BRANCH  28  30
ATOM     30  C   UNL     1      -0.270   7.010  -3.813  0.00  0.00    +0.036 A 
ATOM     31  C   UNL     1      -1.182   6.192  -4.468  0.00  0.00    +0.024 A 
ATOM     32  C   UNL     1      -1.285   6.238  -5.844  0.00  0.00    +0.005 A 
ATOM     33  C   UNL     1      -0.480   7.097  -6.571  0.00  0.00    -0.050 A 
ATOM     34  C   UNL     1       0.428   7.912  -5.922  0.00  0.00    +0.008 A 
ATOM     35  C   UNL     1       0.532   7.875  -4.545  0.00  0.00    -0.029 A 
ATOM     36  C   UNL     1       1.518   8.768  -3.839  0.00  0.00    +0.045 C 
ATOM     37  C   UNL     1      -0.595   7.145  -8.073  0.00  0.00    +0.044 C 
ENDBRANCH  28  30
ENDBRANCH  14  26
BRANCH  10  38
ATOM     38  O   UNL     1      -3.142   1.982  -1.129  0.00  0.00    -0.491 OA
ATOM     39  C   UNL     1      -3.375   0.648  -1.583  0.00  0.00    +0.277 C 
ENDBRANCH  10  38
TORSDOF 6
