REMARK  Name = ZINC61692114
REMARK  10 active torsions:
REMARK  status: ('A' for Active; 'I' for Inactive)
REMARK    1  A    between atoms: C_1  and  C_2
REMARK    2  A    between atoms: C_2  and  N_3
REMARK    3  A    between atoms: N_3  and  C_4
REMARK    4  A    between atoms: N_3  and  S_6
REMARK    5  A    between atoms: C_4  and  C_5
REMARK    6  A    between atoms: S_6  and  N_9
REMARK    7  A    between atoms: N_9  and  C_10
REMARK    8  A    between atoms: C_12  and  C_17
REMARK    9  A    between atoms: C_18  and  C_19
REMARK   10  A    between atoms: C_19  and  N_20
REMARK                            x       y       z     vdW  Elec       q    Type
REMARK                         _______ _______ _______ _____ _____    ______ ____
ROOT
ATOM      1  C   UNL     1      -3.851   1.048   1.265  0.00  0.00    +0.068 A 
ATOM      2  C   UNL     1      -4.774   0.275   0.578  0.00  0.00    +0.042 A 
ATOM      3  C   UNL     1      -5.772   0.892  -0.175  0.00  0.00    +0.027 A 
ATOM      4  C   UNL     1      -5.836   2.286  -0.233  0.00  0.00    +0.018 A 
ATOM      5  C   UNL     1      -4.913   3.048   0.454  0.00  0.00    +0.023 A 
ATOM      6  C   UNL     1      -3.926   2.436   1.206  0.00  0.00    +0.063 A 
ATOM      7 CL   UNL     1      -2.773   3.402   2.072  0.00  0.00    -0.082 Cl
ENDROOT
BRANCH   1   8
ATOM      8  N   UNL     1      -2.849   0.433   2.021  0.00  0.00    -0.205 N 
ATOM      9  H   UNL     1      -2.553   0.836   2.852  0.00  0.00    +0.175 HD
BRANCH   8  10
ATOM     10  S   UNL     1      -2.168  -0.982   1.498  0.00  0.00    +0.112 S 
ATOM     11  O   UNL     1      -3.239  -1.885   1.260  0.00  0.00    -0.138 OA
ATOM     12  O   UNL     1      -1.107  -1.279   2.395  0.00  0.00    -0.138 OA
BRANCH  10  13
ATOM     13  N   UNL     1      -1.471  -0.676   0.027  0.00  0.00    -0.164 NA
BRANCH  13  15
ATOM     14  C   UNL     1      -0.032   1.296  -0.116  0.00  0.00    +0.022 C 
ATOM     15  C   UNL     1      -0.077  -0.232  -0.046  0.00  0.00    +0.107 C 
ENDBRANCH  13  15
BRANCH  13  16
ATOM     16  C   UNL     1      -2.249  -0.850  -1.203  0.00  0.00    +0.107 C 
ATOM     17  C   UNL     1      -1.989  -2.243  -1.779  0.00  0.00    +0.022 C 
ENDBRANCH  13  16
ENDBRANCH  10  13
ENDBRANCH   8  10
ENDBRANCH   1   8
BRANCH   3  18
ATOM     18  C   UNL     1      -6.729   0.100  -0.887  0.00  0.00    -0.068 C 
ATOM     19  C   UNL     1      -7.513  -0.550  -1.471  0.00  0.00    -0.117 C 
BRANCH  19  20
ATOM     20  C   UNL     1      -8.496  -1.365  -2.204  0.00  0.00    +0.005 C 
BRANCH  20  21
ATOM     21  N   UNL     1      -9.433  -0.482  -2.912  0.00  0.00    +0.385 N 
ATOM     22  H   UNL     1      -9.912   0.105  -2.246  0.00  0.00    -0.089 HD
ATOM     23  H   UNL     1      -8.923   0.096  -3.564  0.00  0.00    -0.089 HD
ATOM     24  H   UNL     1     -10.107  -1.041  -3.414  0.00  0.00    -0.089 HD
ENDBRANCH  20  21
ENDBRANCH  19  20
ENDBRANCH   3  18
TORSDOF 8
