REMARK  Name = ZINC04729336
REMARK  6 active torsions:
REMARK  status: ('A' for Active; 'I' for Inactive)
REMARK    1  A    between atoms: C_1  and  O_2
REMARK    2  A    between atoms: O_2  and  C_3
REMARK    3  A    between atoms: C_6  and  C_9
REMARK    4  A    between atoms: C_11  and  C_23
REMARK    5  A    between atoms: C_13  and  C_16
REMARK    6  A    between atoms: C_21  and  O_22
REMARK                            x       y       z     vdW  Elec       q    Type
REMARK                         _______ _______ _______ _____ _____    ______ ____
ROOT
ATOM      1  C   UNL     1      -1.117   7.092   1.854  0.00  0.00    +0.040 C 
ATOM      2  N   UNL     1      -1.716   7.536   2.895  0.00  0.00    -0.299 NA
ATOM      3  C   UNL     1      -1.886   8.951   3.200  0.00  0.00    +0.081 C 
ATOM      4  C   UNL     1      -0.408   9.413   1.351  0.00  0.00    -0.028 C 
ATOM      5  C   UNL     1      -0.530   7.989   0.800  0.00  0.00    +0.044 C 
ATOM      6  N   UNL     1      -1.687   9.771   1.996  0.00  0.00    +0.401 N 
ATOM      7  H   UNL     1      -1.670  10.763   2.258  0.00  0.00    -0.081 HD
ATOM      8  H   UNL     1      -2.458   9.603   1.339  0.00  0.00    -0.081 HD
ENDROOT
BRANCH   3   9
ATOM      9  C   UNL     1      -3.280   9.178   3.726  0.00  0.00    -0.040 A 
ATOM     10  C   UNL     1      -3.898  10.400   3.538  0.00  0.00    +0.006 A 
ATOM     11  C   UNL     1      -5.179  10.608   4.015  0.00  0.00    +0.038 A 
ATOM     12  C   UNL     1      -5.837   9.596   4.692  0.00  0.00    +0.123 A 
ATOM     13  C   UNL     1      -5.215   8.374   4.885  0.00  0.00    +0.038 A 
ATOM     14  C   UNL     1      -3.937   8.167   4.402  0.00  0.00    +0.006 A 
ATOM     15  F   UNL     1      -7.087   9.800   5.164  0.00  0.00    -0.205 F 
ENDBRANCH   3   9
BRANCH   1  19
ATOM     16  C   UNL     1      -0.787   2.890   1.346  0.00  0.00    +0.120 A 
ATOM     17  C   UNL     1      -0.251   3.748   0.393  0.00  0.00    +0.046 A 
ATOM     18  C   UNL     1      -0.360   5.112   0.551  0.00  0.00    +0.013 A 
ATOM     19  C   UNL     1      -1.002   5.633   1.678  0.00  0.00    -0.004 A 
ATOM     20  C   UNL     1      -1.535   4.767   2.637  0.00  0.00    +0.013 A 
ATOM     21  C   UNL     1      -1.426   3.405   2.468  0.00  0.00    +0.046 A 
BRANCH  16  23
ATOM     22  C   UNL     1      -0.013   1.086   0.008  0.00  0.00    +0.277 C 
ATOM     23  O   UNL     1      -0.682   1.547   1.184  0.00  0.00    -0.495 OA
ENDBRANCH  16  23
ENDBRANCH   1  19
BRANCH   4  24
ATOM     24  C   UNL     1      -0.125  10.373   0.224  0.00  0.00    -0.019 A 
ATOM     25  C   UNL     1      -1.150  11.125  -0.317  0.00  0.00    +0.005 A 
ATOM     26  C   UNL     1      -0.890  12.009  -1.348  0.00  0.00    +0.000 A 
ATOM     27  C   UNL     1       0.393  12.134  -1.848  0.00  0.00    +0.004 A 
ATOM     28  C   UNL     1       1.420  11.380  -1.314  0.00  0.00    +0.045 A 
ATOM     29  C   UNL     1       1.163  10.496  -0.276  0.00  0.00    +0.118 A 
BRANCH  29  30
ATOM     30  O   UNL     1       2.171   9.753   0.251  0.00  0.00    -0.507 OA
ATOM     31  H   UNL     1       2.297   8.898  -0.183  0.00  0.00    +0.292 HD
ENDBRANCH  29  30
ENDBRANCH   4  24
TORSDOF 5
