REMARK  Name = ZINC07490645
REMARK  10 active torsions:
REMARK  status: ('A' for Active; 'I' for Inactive)
REMARK    1  A    between atoms: C_1  and  C_2
REMARK    2  A    between atoms: C_5  and  N_8
REMARK    3  A    between atoms: C_9  and  C_11
REMARK    4  A    between atoms: C_11  and  N_54
REMARK    5  A    between atoms: C_12  and  N_54
REMARK    6  A    between atoms: C_13  and  C_14
REMARK    7  A    between atoms: C_13  and  N_54
REMARK    8  A    between atoms: N_19  and  C_20
REMARK    9  A    between atoms: C_23  and  C_27
REMARK   10  A    between atoms: C_25  and  C_26
REMARK                            x       y       z     vdW  Elec       q    Type
REMARK                         _______ _______ _______ _____ _____    ______ ____
ROOT
ATOM      1  C   UNL     1       4.964   1.540  -0.106  0.00  0.00    +0.019 C 
ENDROOT
BRANCH   1   2
ATOM      2  C   UNL     1       6.023   2.581  -0.363  0.00  0.00    +0.204 C 
ATOM      3  O   UNL     1       5.719   3.753  -0.424  0.00  0.00    -0.277 OA
ATOM      4  N   UNL     1       7.308   2.210  -0.525  0.00  0.00    -0.241 N 
ATOM      5  C   UNL     1       8.255   3.141  -0.755  0.00  0.00    +0.310 C 
ATOM      6  O   UNL     1       7.950   4.316  -0.816  0.00  0.00    -0.252 OA
ATOM      7  N   UNL     1       9.541   2.769  -0.917  0.00  0.00    -0.269 N 
ATOM      8  H   UNL     1       7.552   1.272  -0.476  0.00  0.00    +0.159 HD
ATOM      9  H   UNL     1       9.775   1.828  -0.934  0.00  0.00    +0.156 HD
BRANCH   7  10
ATOM     10  C   UNL     1      10.537   3.741  -1.060  0.00  0.00    +0.038 A 
ATOM     11  C   UNL     1      10.263   4.925  -1.732  0.00  0.00    +0.024 A 
ATOM     12  C   UNL     1      11.249   5.882  -1.871  0.00  0.00    +0.005 A 
ATOM     13  C   UNL     1      12.508   5.663  -1.343  0.00  0.00    -0.050 A 
ATOM     14  C   UNL     1      12.784   4.485  -0.673  0.00  0.00    +0.008 A 
ATOM     15  C   UNL     1      11.801   3.526  -0.525  0.00  0.00    -0.029 A 
ATOM     16  C   UNL     1      12.101   2.245   0.210  0.00  0.00    +0.045 C 
ATOM     17  C   UNL     1      13.581   6.710  -1.496  0.00  0.00    +0.044 C 
ENDBRANCH   7  10
ENDBRANCH   1   2
BRANCH   1  19
ATOM     18  C   UNL     1       3.616   3.039   1.235  0.00  0.00    -0.095 C 
ATOM     19  N   UNL     1       3.653   2.212   0.010  0.00  0.00    +0.389 N 
ATOM     20  H   UNL     1       3.516   2.819  -0.806  0.00  0.00    -0.081 HD
BRANCH  19  21
ATOM     21  C   UNL     1       2.571   1.206   0.048  0.00  0.00    +0.019 C 
BRANCH  21  23
ATOM     22  N   UNL     1       0.100   1.203  -0.062  0.00  0.00    -0.287 N 
ATOM     23  C   UNL     1       1.245   1.914  -0.056  0.00  0.00    +0.201 C 
ATOM     24  O   UNL     1       1.208   3.124  -0.135  0.00  0.00    -0.278 OA
ATOM     25  H   UNL     1       0.131   0.234  -0.066  0.00  0.00    +0.155 HD
BRANCH  22  30
ATOM     26  C   UNL     1      -4.902   3.880  -0.086  0.00  0.00    +0.044 C 
ATOM     27  C   UNL     1      -3.573   3.169  -0.080  0.00  0.00    -0.050 A 
ATOM     28  C   UNL     1      -2.499   3.708  -0.763  0.00  0.00    +0.005 A 
ATOM     29  C   UNL     1      -1.280   3.059  -0.759  0.00  0.00    +0.023 A 
ATOM     30  C   UNL     1      -1.134   1.863  -0.068  0.00  0.00    +0.033 A 
ATOM     31  C   UNL     1      -2.216   1.321   0.613  0.00  0.00    +0.023 A 
ATOM     32  C   UNL     1      -3.431   1.978   0.609  0.00  0.00    +0.005 A 
ENDBRANCH  22  30
ENDBRANCH  21  23
ENDBRANCH  19  21
ENDBRANCH   1  19
TORSDOF 6
