REMARK  Name = ZINC12498383
REMARK  8 active torsions:
REMARK  status: ('A' for Active; 'I' for Inactive)
REMARK    1  A    between atoms: C_1  and  C_2
REMARK    2  A    between atoms: C_2  and  O_3
REMARK    3  A    between atoms: O_3  and  C_4
REMARK    4  A    between atoms: C_4  and  C_6
REMARK    5  A    between atoms: C_6  and  C_34
REMARK    6  A    between atoms: C_11  and  C_13
REMARK    7  A    between atoms: C_18  and  C_19
REMARK    8  A    between atoms: N_22  and  C_25
REMARK                            x       y       z     vdW  Elec       q    Type
REMARK                         _______ _______ _______ _____ _____    ______ ____
ROOT
ATOM      1  C   UNL     1       0.921  -2.666   0.387  0.00  0.00    +0.070 C 
ATOM      2  C   UNL     1       0.347  -1.411   0.935  0.00  0.00    +0.090 C 
ATOM      3  C   UNL     1      -1.054  -1.374   0.203  0.00  0.00    +0.078 C 
ATOM      4  C   UNL     1      -1.494  -2.788   0.496  0.00  0.00    -0.026 C 
ATOM      5  C   UNL     1      -1.572  -0.141   0.838  0.00  0.00    +0.229 C 
ATOM      6  O   UNL     1      -2.717   0.095   1.160  0.00  0.00    -0.275 OA
ATOM      7  N   UNL     1      -0.482   0.677   0.983  0.00  0.00    -0.210 N 
ATOM      8  C   UNL     1       0.705   0.004   0.835  0.00  0.00    +0.229 C 
ATOM      9  O   UNL     1       1.807   0.478   0.663  0.00  0.00    -0.275 OA
ATOM     10  N   UNL     1      -0.253  -3.567   0.202  0.00  0.00    +0.398 N 
ATOM     11  H   UNL     1      -0.183  -4.364   0.845  0.00  0.00    -0.083 HD
ATOM     12  H   UNL     1      -0.279  -3.909  -0.766  0.00  0.00    -0.083 HD
ENDROOT
BRANCH   7  13
ATOM     13  C   UNL     1      -0.570   2.052   1.248  0.00  0.00    +0.048 A 
ATOM     14  C   UNL     1       0.586   2.809   1.379  0.00  0.00    +0.028 A 
ATOM     15  C   UNL     1       0.501   4.163   1.640  0.00  0.00    +0.051 A 
ATOM     16  C   UNL     1      -0.738   4.770   1.770  0.00  0.00    +0.166 A 
ATOM     17  C   UNL     1      -1.900   4.013   1.638  0.00  0.00    +0.168 A 
ATOM     18  C   UNL     1      -1.813   2.657   1.371  0.00  0.00    +0.073 A 
ATOM     19  O   UNL     1      -2.977   4.834   1.808  0.00  0.00    -0.453 OA
ATOM     20  C   UNL     1      -2.462   6.016   2.449  0.00  0.00    +0.466 C 
ATOM     21  O   UNL     1      -1.088   6.065   2.023  0.00  0.00    -0.453 OA
ENDBRANCH   7  13
BRANCH   4  22
ATOM     22  C   UNL     1      -2.622  -3.197  -0.415  0.00  0.00    -0.058 A 
ATOM     23  C   UNL     1      -2.889  -2.465  -1.556  0.00  0.00    +0.002 A 
ATOM     24  C   UNL     1      -3.924  -2.840  -2.392  0.00  0.00    +0.000 A 
ATOM     25  C   UNL     1      -4.692  -3.949  -2.086  0.00  0.00    +0.000 A 
ATOM     26  C   UNL     1      -4.425  -4.681  -0.945  0.00  0.00    +0.003 A 
ATOM     27  C   UNL     1      -3.386  -4.309  -0.112  0.00  0.00    -0.049 A 
ATOM     28  C   UNL     1      -3.091  -5.111   1.129  0.00  0.00    +0.044 C 
ENDBRANCH   4  22
BRANCH   1  29
ATOM     29  C   UNL     1       1.586  -2.385  -0.936  0.00  0.00    -0.047 A 
ATOM     30  C   UNL     1       2.914  -2.005  -0.975  0.00  0.00    +0.003 A 
ATOM     31  C   UNL     1       3.525  -1.751  -2.189  0.00  0.00    +0.000 A 
ATOM     32  C   UNL     1       2.805  -1.868  -3.363  0.00  0.00    +0.000 A 
ATOM     33  C   UNL     1       1.475  -2.242  -3.324  0.00  0.00    +0.000 A 
ATOM     34  C   UNL     1       0.865  -2.501  -2.110  0.00  0.00    +0.003 A 
ENDBRANCH   1  29
BRANCH   1  35
ATOM     35  C   UNL     1       1.907  -3.269   1.354  0.00  0.00    +0.301 C 
ATOM     36  O   UNL     1       2.507  -2.559   2.126  0.00  0.00    -0.252 OA
BRANCH  35  37
ATOM     37  O   UNL     1       2.118  -4.595   1.358  0.00  0.00    -0.466 OA
BRANCH  37  39
ATOM     38  C   UNL     1       3.188  -6.625   2.173  0.00  0.00    +0.048 C 
ATOM     39  C   UNL     1       3.082  -5.106   2.316  0.00  0.00    +0.228 C 
ENDBRANCH  37  39
ENDBRANCH  35  37
ENDBRANCH   1  35
TORSDOF 6
