REMARK  Name = ZINC34667806
REMARK  8 active torsions:
REMARK  status: ('A' for Active; 'I' for Inactive)
REMARK    1  A    between atoms: C_1  and  C_2
REMARK    2  A    between atoms: C_2  and  C_3
REMARK    3  A    between atoms: C_2  and  C_4
REMARK    4  A    between atoms: C_7  and  N_10
REMARK    5  A    between atoms: N_13  and  C_14
REMARK    6  A    between atoms: C_26  and  C_28
REMARK    7  A    between atoms: C_32  and  O_34
REMARK    8  A    between atoms: O_34  and  C_35
REMARK                            x       y       z     vdW  Elec       q    Type
REMARK                         _______ _______ _______ _____ _____    ______ ____
ROOT
ATOM      1  C   UNL     1      -7.931  -3.252  -2.658  0.00  0.00    +0.051 A 
ATOM      2  C   UNL     1      -7.122  -3.584  -3.743  0.00  0.00    +0.028 A 
ATOM      3  C   UNL     1      -7.588  -4.516  -4.652  0.00  0.00    +0.043 A 
ATOM      4  C   UNL     1      -8.841  -5.088  -4.454  0.00  0.00    +0.099 A 
ATOM      5  N   UNL     1      -9.582  -4.748  -3.412  0.00  0.00    -0.348 N 
ATOM      6  C   UNL     1      -9.166  -3.866  -2.523  0.00  0.00    +0.107 A 
ATOM      7  N   UNL     1      -9.320  -6.027  -5.364  0.00  0.00    -0.314 N 
ATOM      8  C   UNL     1      -8.462  -6.522  -6.449  0.00  0.00    +0.125 C 
ATOM      9  C   UNL     1      -8.407  -8.053  -6.371  0.00  0.00    +0.127 C 
ATOM     10  N   UNL     1      -9.780  -8.567  -6.262  0.00  0.00    -0.295 N 
ATOM     11  C   UNL     1     -10.637  -8.072  -5.176  0.00  0.00    +0.127 C 
ATOM     12  C   UNL     1     -10.691  -6.545  -5.251  0.00  0.00    +0.125 C 
ATOM     13  C   UNL     1     -10.243  -9.476  -7.142  0.00  0.00    +0.247 C 
ATOM     14  O   UNL     1     -11.407  -9.826  -7.099  0.00  0.00    -0.270 OA
ATOM     15  H   UNL     1     -10.453  -5.161  -3.297  0.00  0.00    +0.167 HD
ENDROOT
BRANCH   1  19
ATOM     16  N   UNL     1      -6.192  -0.458  -1.161  0.00  0.00    -0.269 N 
ATOM     17  C   UNL     1      -6.691  -1.300  -2.087  0.00  0.00    +0.308 C 
ATOM     18  O   UNL     1      -6.412  -1.148  -3.260  0.00  0.00    -0.252 OA
ATOM     19  N   UNL     1      -7.499  -2.312  -1.712  0.00  0.00    -0.268 N 
ATOM     20  H   UNL     1      -6.350  -0.624  -0.218  0.00  0.00    +0.156 HD
ATOM     21  H   UNL     1      -7.781  -2.390  -0.787  0.00  0.00    +0.156 HD
BRANCH  16  25
ATOM     22  C   UNL     1      -3.970   2.861  -2.346  0.00  0.00    -0.045 A 
ATOM     23  C   UNL     1      -4.996   2.396  -3.148  0.00  0.00    +0.006 A 
ATOM     24  C   UNL     1      -5.735   1.296  -2.758  0.00  0.00    +0.023 A 
ATOM     25  C   UNL     1      -5.445   0.657  -1.559  0.00  0.00    +0.035 A 
ATOM     26  C   UNL     1      -4.414   1.127  -0.756  0.00  0.00    +0.023 A 
ATOM     27  C   UNL     1      -3.676   2.224  -1.155  0.00  0.00    +0.006 A 
BRANCH  22  29
ATOM     28  C   UNL     1      -2.492   3.770  -4.118  0.00  0.00    +0.012 C 
ATOM     29  C   UNL     1      -3.166   4.061  -2.775  0.00  0.00    +0.013 C 
ATOM     30  C   UNL     1      -4.093   5.270  -2.921  0.00  0.00    +0.012 C 
ENDBRANCH  22  29
ENDBRANCH  16  25
ENDBRANCH   1  19
BRANCH  13  31
ATOM     31  C   UNL     1      -9.337 -10.050  -8.160  0.00  0.00    +0.040 A 
ATOM     32  C   UNL     1      -8.043 -10.439  -7.806  0.00  0.00    +0.013 A 
ATOM     33  C   UNL     1      -7.200 -10.973  -8.759  0.00  0.00    +0.004 A 
ATOM     34  C   UNL     1      -7.632 -11.124 -10.064  0.00  0.00    +0.045 A 
ATOM     35  C   UNL     1      -8.916 -10.740 -10.425  0.00  0.00    +0.121 A 
ATOM     36  C   UNL     1      -9.773 -10.209  -9.475  0.00  0.00    +0.058 A 
BRANCH  35  37
ATOM     37  O   UNL     1      -9.334 -10.891 -11.709  0.00  0.00    -0.495 OA
ATOM     38  C   UNL     1      -8.400 -11.451 -12.634  0.00  0.00    +0.277 C 
ENDBRANCH  35  37
ENDBRANCH  13  31
TORSDOF 5
