REMARK  Name = ZINC39447038
REMARK  8 active torsions:
REMARK  status: ('A' for Active; 'I' for Inactive)
REMARK    1  A    between atoms: C_6  and  C_7
REMARK    2  A    between atoms: C_11  and  C_13
REMARK    3  A    between atoms: C_13  and  N_14
REMARK    4  A    between atoms: N_14  and  C_15
REMARK    5  A    between atoms: N_14  and  C_22
REMARK    6  A    between atoms: C_15  and  C_16
REMARK    7  A    between atoms: C_22  and  C_23
REMARK    8  A    between atoms: N_26  and  C_29
REMARK                            x       y       z     vdW  Elec       q    Type
REMARK                         _______ _______ _______ _____ _____    ______ ____
ROOT
ATOM      1  N   UNL     1      -0.871  -4.625  -1.305  0.00  0.00    -0.299 NA
ENDROOT
BRANCH   1   2
ATOM      2  C   UNL     1      -1.061  -3.169  -1.333  0.00  0.00    +0.100 C 
BRANCH   2   7
ATOM      3  C   UNL     1      -2.006  -1.229  -0.061  0.00  0.00    +0.080 C 
ATOM      4  N   UNL     1      -3.277  -0.960  -0.173  0.00  0.00    -0.153 NA
ATOM      5  N   UNL     1      -4.048  -2.111  -0.301  0.00  0.00    -0.161 NA
ATOM      6  C   UNL     1      -3.335  -3.190  -0.280  0.00  0.00    +0.118 C 
ATOM      7  C   UNL     1      -1.896  -2.740  -0.125  0.00  0.00    +0.097 C 
BRANCH   3  13
ATOM      8  C   UNL     1      -1.173   1.107   0.134  0.00  0.00    +0.012 A 
ATOM      9  C   UNL     1      -0.137   2.004   0.276  0.00  0.00    +0.039 A 
ATOM     10  C   UNL     1       1.169   1.550   0.377  0.00  0.00    +0.123 A 
ATOM     11  C   UNL     1       1.442   0.191   0.335  0.00  0.00    +0.039 A 
ATOM     12  C   UNL     1       0.415  -0.717   0.193  0.00  0.00    +0.012 A 
ATOM     13  C   UNL     1      -0.905  -0.266   0.091  0.00  0.00    -0.001 A 
ATOM     14  F   UNL     1       2.180   2.435   0.516  0.00  0.00    -0.205 F 
ENDBRANCH   3  13
ENDBRANCH   2   7
ENDBRANCH   1   2
BRANCH   1  15
ATOM     15  C   UNL     1      -0.052  -5.027  -0.154  0.00  0.00    +0.116 C 
BRANCH  15  16
ATOM     16  C   UNL     1      -0.235  -6.524   0.105  0.00  0.00    +0.132 C 
ATOM     17  C   UNL     1       0.515  -6.929   1.392  0.00  0.00    +0.035 C 
ATOM     18  C   UNL     1       1.105  -8.313   1.008  0.00  0.00    +0.031 C 
ATOM     19  C   UNL     1       1.401  -8.100  -0.498  0.00  0.00    +0.160 C 
ATOM     20  O   UNL     1       0.325  -7.276  -0.979  0.00  0.00    -0.375 OA
ENDBRANCH  15  16
ENDBRANCH   1  15
BRANCH   1  21
ATOM     21  C   UNL     1      -0.282  -5.104  -2.563  0.00  0.00    +0.088 C 
BRANCH  21  22
ATOM     22  C   UNL     1      -1.270  -4.874  -3.708  0.00  0.00    -0.000 C 
ATOM     23  C   UNL     1      -2.535  -5.702  -3.468  0.00  0.00    -0.014 C 
ATOM     24  C   UNL     1      -3.485  -5.529  -4.655  0.00  0.00    -0.078 C 
ATOM     25  N   UNL     1      -2.825  -5.986  -5.885  0.00  0.00    +0.382 N 
ATOM     26  C   UNL     1      -1.651  -5.150  -6.160  0.00  0.00    -0.078 C 
ATOM     27  C   UNL     1      -0.631  -5.308  -5.031  0.00  0.00    -0.014 C 
ATOM     28  H   UNL     1      -2.535  -6.946  -5.772  0.00  0.00    -0.081 HD
BRANCH  25  29
ATOM     29  C   UNL     1      -3.767  -5.891  -7.008  0.00  0.00    -0.069 C 
ATOM     30  C   UNL     1      -4.970  -6.827  -6.770  0.00  0.00    -0.015 C 
ATOM     31  C   UNL     1      -5.305  -7.381  -8.177  0.00  0.00    -0.002 C 
ATOM     32  C   UNL     1      -3.905  -7.576  -8.810  0.00  0.00    -0.002 C 
ATOM     33  C   UNL     1      -3.090  -6.367  -8.305  0.00  0.00    -0.015 C 
ENDBRANCH  25  29
ENDBRANCH  21  22
ENDBRANCH   1  21
TORSDOF 8
