REMARK  Name = ZINC36824799
REMARK  10 active torsions:
REMARK  status: ('A' for Active; 'I' for Inactive)
REMARK    1  A    between atoms: C_1  and  C_2
REMARK    2  A    between atoms: C_2  and  O_3
REMARK    3  A    between atoms: O_3  and  C_4
REMARK    4  A    between atoms: C_6  and  C_17
REMARK    5  A    between atoms: C_9  and  O_10
REMARK    6  A    between atoms: O_10  and  C_11
REMARK    7  A    between atoms: C_11  and  C_12
REMARK    8  A    between atoms: C_12  and  C_13
REMARK    9  A    between atoms: C_17  and  N_18
REMARK   10  A    between atoms: N_18  and  C_19
REMARK                            x       y       z     vdW  Elec       q    Type
REMARK                         _______ _______ _______ _____ _____    ______ ____
ROOT
ATOM      1  C   UNL     1       0.777  -1.811  -1.336  0.00  0.00    +0.163 A 
ATOM      2  C   UNL     1       0.243  -2.669  -0.388  0.00  0.00    +0.051 A 
ATOM      3  C   UNL     1       0.352  -4.037  -0.554  0.00  0.00    -0.060 A 
ATOM      4  C   UNL     1       0.992  -4.553  -1.665  0.00  0.00    +0.021 A 
ATOM      5  C   UNL     1       1.527  -3.702  -2.616  0.00  0.00    +0.063 A 
ATOM      6  C   UNL     1       1.416  -2.329  -2.458  0.00  0.00    +0.176 A 
ATOM      7 BR   UNL     1       2.403  -4.412  -4.134  0.00  0.00    -0.046 Br
ENDROOT
BRANCH   1   8
ATOM      8  O   UNL     1       0.671  -0.465  -1.174  0.00  0.00    -0.489 OA
BRANCH   8  10
ATOM      9  C   UNL     1      -0.019   1.526   0.010  0.00  0.00    +0.048 C 
ATOM     10  C   UNL     1       0.002  -0.004   0.002  0.00  0.00    +0.226 C 
ENDBRANCH   8  10
ENDBRANCH   1   8
BRANCH   6  11
ATOM     11  O   UNL     1       1.936  -1.491  -3.394  0.00  0.00    -0.487 OA
BRANCH  11  12
ATOM     12  C   UNL     1       3.293  -1.080  -3.215  0.00  0.00    +0.238 C 
BRANCH  12  13
ATOM     13  C   UNL     1       3.698  -0.147  -4.358  0.00  0.00    +0.136 C 
BRANCH  13  14
ATOM     14  C   UNL     1       5.129   0.287  -4.169  0.00  0.00    +0.214 C 
ATOM     15  O   UNL     1       5.762  -0.111  -3.214  0.00  0.00    -0.276 OA
ATOM     16  N   UNL     1       5.705   1.117  -5.061  0.00  0.00    -0.329 N 
ATOM     17  H   UNL     1       5.199   1.435  -5.824  0.00  0.00    +0.145 HD
ATOM     18  H   UNL     1       6.626   1.396  -4.939  0.00  0.00    +0.145 HD
ENDBRANCH  13  14
ENDBRANCH  12  13
ENDBRANCH  11  12
ENDBRANCH   6  11
BRANCH   3  19
ATOM     19  C   UNL     1      -0.228  -4.968   0.479  0.00  0.00    -0.046 C 
BRANCH  19  20
ATOM     20  N   UNL     1      -1.619  -5.283   0.128  0.00  0.00    +0.384 N 
ATOM     21  H   UNL     1      -2.160  -4.432   0.101  0.00  0.00    -0.085 HD
ATOM     22  H   UNL     1      -1.646  -5.727  -0.777  0.00  0.00    -0.085 HD
BRANCH  20  23
ATOM     23  C   UNL     1      -2.185  -6.191   1.135  0.00  0.00    -0.072 C 
ATOM     24  C   UNL     1      -2.601  -7.588   0.672  0.00  0.00    -0.017 C 
ATOM     25  C   UNL     1      -3.668  -6.546   1.012  0.00  0.00    -0.017 C 
ENDBRANCH  20  23
ENDBRANCH  19  20
ENDBRANCH   3  19
TORSDOF 9
