REMARK  Name = ZINC14169617
REMARK  6 active torsions:
REMARK  status: ('A' for Active; 'I' for Inactive)
REMARK    1  A    between atoms: C_3  and  N_16
REMARK    2  A    between atoms: C_5  and  S_7
REMARK    3  A    between atoms: S_7  and  N_10
REMARK    4  A    between atoms: N_19  and  C_20
REMARK    5  A    between atoms: C_24  and  S_26
REMARK    6  A    between atoms: S_26  and  N_29
REMARK                            x       y       z     vdW  Elec       q    Type
REMARK                         _______ _______ _______ _____ _____    ______ ____
ROOT
ATOM      1  N   UNL     1       3.565   2.124  -0.178  0.00  0.00    -0.269 N 
ATOM      2  C   UNL     1       3.564   3.469  -0.277  0.00  0.00    +0.308 C 
ATOM      3  O   UNL     1       2.515   4.067  -0.412  0.00  0.00    -0.252 OA
ATOM      4  N   UNL     1       4.726   4.149  -0.225  0.00  0.00    -0.269 N 
ATOM      5  H   UNL     1       4.393   1.652   0.005  0.00  0.00    +0.156 HD
ATOM      6  H   UNL     1       5.569   3.669  -0.193  0.00  0.00    +0.156 HD
ENDROOT
BRANCH   1   9
ATOM      7  C   UNL     1       0.224   1.163  -1.374  0.00  0.00    +0.004 A 
ATOM      8  C   UNL     1       1.399   1.870  -1.217  0.00  0.00    +0.023 A 
ATOM      9  C   UNL     1       2.373   1.410  -0.340  0.00  0.00    +0.037 A 
ATOM     10  C   UNL     1       2.160   0.240   0.377  0.00  0.00    +0.052 A 
ATOM     11  C   UNL     1       0.983  -0.463   0.215  0.00  0.00    +0.114 A 
ATOM     12  C   UNL     1       0.015  -0.003  -0.660  0.00  0.00    +0.029 A 
BRANCH  11  13
ATOM     13  S   UNL     1       0.713  -1.949   1.123  0.00  0.00    +0.100 S 
ATOM     14  O   UNL     1      -0.236  -2.709   0.386  0.00  0.00    -0.146 OA
ATOM     15  O   UNL     1       1.996  -2.456   1.463  0.00  0.00    -0.146 OA
BRANCH  13  16
ATOM     16  N   UNL     1      -0.022  -1.527   2.545  0.00  0.00    -0.118 NA
ATOM     17  C   UNL     1      -0.335  -2.439   3.407  0.00  0.00    +0.117 C 
ATOM     18  N   UNL     1      -0.104  -3.780   3.257  0.00  0.00    -0.331 N 
ATOM     19  C   UNL     1      -0.130  -4.427   4.579  0.00  0.00    +0.103 C 
ATOM     20  C   UNL     1      -1.118  -3.575   5.407  0.00  0.00    +0.026 C 
ATOM     21  C   UNL     1      -1.006  -2.188   4.739  0.00  0.00    +0.074 C 
ATOM     22  H   UNL     1       0.052  -4.232   2.413  0.00  0.00    +0.147 HD
ENDBRANCH  13  16
ENDBRANCH  11  13
ENDBRANCH   1   9
BRANCH   4  23
ATOM     23  C   UNL     1       4.718   5.548  -0.218  0.00  0.00    +0.037 A 
ATOM     24  C   UNL     1       3.682   6.235   0.401  0.00  0.00    +0.023 A 
ATOM     25  C   UNL     1       3.677   7.616   0.406  0.00  0.00    +0.004 A 
ATOM     26  C   UNL     1       4.702   8.315  -0.205  0.00  0.00    +0.029 A 
ATOM     27  C   UNL     1       5.736   7.634  -0.822  0.00  0.00    +0.114 A 
ATOM     28  C   UNL     1       5.750   6.253  -0.826  0.00  0.00    +0.052 A 
BRANCH  27  29
ATOM     29  S   UNL     1       7.040   8.529  -1.599  0.00  0.00    +0.100 S 
ATOM     30  O   UNL     1       7.601   7.664  -2.576  0.00  0.00    -0.146 OA
ATOM     31  O   UNL     1       6.515   9.809  -1.926  0.00  0.00    -0.146 OA
BRANCH  29  32
ATOM     32  N   UNL     1       8.212   8.776  -0.456  0.00  0.00    -0.118 NA
ATOM     33  C   UNL     1       9.293   9.416  -0.766  0.00  0.00    +0.117 C 
ATOM     34  N   UNL     1       9.575   9.940  -1.999  0.00  0.00    -0.331 N 
ATOM     35  C   UNL     1      10.607  10.980  -1.860  0.00  0.00    +0.103 C 
ATOM     36  C   UNL     1      11.450  10.527  -0.647  0.00  0.00    +0.026 C 
ATOM     37  C   UNL     1      10.436   9.708   0.181  0.00  0.00    +0.074 C 
ATOM     38  H   UNL     1       9.160   9.669  -2.833  0.00  0.00    +0.147 HD
ENDBRANCH  29  32
ENDBRANCH  27  29
ENDBRANCH   4  23
TORSDOF 6
