REMARK  Name = ZINC30268465
REMARK  11 active torsions:
REMARK  status: ('A' for Active; 'I' for Inactive)
REMARK    1  A    between atoms: C_1  and  C_2
REMARK    2  A    between atoms: C_2  and  C_4
REMARK    3  A    between atoms: C_2  and  N_18
REMARK    4  A    between atoms: N_6  and  C_7
REMARK    5  A    between atoms: C_8  and  C_15
REMARK    6  A    between atoms: N_18  and  C_19
REMARK    7  A    between atoms: N_18  and  C_20
REMARK    8  A    between atoms: C_20  and  C_21
REMARK    9  A    between atoms: C_21  and  C_22
REMARK   10  A    between atoms: C_22  and  O_23
REMARK   11  A    between atoms: O_23  and  C_24
REMARK                            x       y       z     vdW  Elec       q    Type
REMARK                         _______ _______ _______ _____ _____    ______ ____
ROOT
ATOM      1  C   UNL     1       4.326   9.963   0.488  0.00  0.00    +0.204 C 
ATOM      2  O   UNL     1       3.183  10.368   0.474  0.00  0.00    -0.277 OA
ATOM      3  N   UNL     1       5.341  10.817   0.724  0.00  0.00    -0.281 N 
ATOM      4  H   UNL     1       6.378  10.449   0.737  0.00  0.00    +0.155 HD
ENDROOT
BRANCH   3   5
ATOM      5  C   UNL     1       5.079  12.159   0.952  0.00  0.00    +0.084 A 
ATOM      6  C   UNL     1       5.978  13.179   1.216  0.00  0.00    +0.068 A 
ATOM      7  C   UNL     1       5.437  14.523   1.417  0.00  0.00    -0.023 A 
ATOM      8  C   UNL     1       4.098  14.619   1.330  0.00  0.00    -0.004 A 
ATOM      9  S   UNL     1       3.548  12.966   0.983  0.00  0.00    -0.077 S 
ATOM     10  C   UNL     1       3.618  16.028   1.550  0.00  0.00    +0.043 C 
ATOM     11  C   UNL     1       4.878  16.902   1.363  0.00  0.00    +0.010 C 
ATOM     12  C   UNL     1       6.004  15.911   1.719  0.00  0.00    +0.037 C 
BRANCH   6  13
ATOM     13  C   UNL     1       7.419  12.921   1.288  0.00  0.00    +0.244 C 
ATOM     14  O   UNL     1       8.103  13.006   0.284  0.00  0.00    -0.270 OA
ATOM     15  N   UNL     1       7.987  12.590   2.464  0.00  0.00    -0.325 N 
ATOM     16  H   UNL     1       9.069  12.396   2.518  0.00  0.00    +0.145 HD
ATOM     17  H   UNL     1       7.369  12.512   3.371  0.00  0.00    +0.145 HD
ENDBRANCH   6  13
ENDBRANCH   3   5
BRANCH   1  19
ATOM     18  C   UNL     1       5.509   8.361  -0.990  0.00  0.00    -0.004 C 
ATOM     19  C   UNL     1       4.611   8.504   0.240  0.00  0.00    +0.016 C 
BRANCH  19  20
ATOM     20  N   UNL     1       3.348   7.790   0.011  0.00  0.00    +0.385 N 
ATOM     21  C   UNL     1       2.709   8.238  -1.235  0.00  0.00    -0.095 C 
ATOM     22  H   UNL     1       2.669   8.028   0.843  0.00  0.00    -0.081 HD
BRANCH  20  23
ATOM     23  C   UNL     1       3.558   6.336   0.001  0.00  0.00    -0.075 C 
BRANCH  23  24
ATOM     24  C   UNL     1       2.204   5.625   0.010  0.00  0.00    +0.022 C 
BRANCH  24  25
ATOM     25  C   UNL     1       2.423   4.111   0.001  0.00  0.00    +0.227 C 
BRANCH  25  26
ATOM     26  O   UNL     1       1.158   3.446   0.009  0.00  0.00    -0.492 OA
BRANCH  26  27
ATOM     27  C   UNL     1       1.175   2.087   0.002  0.00  0.00    +0.121 A 
ATOM     28  C   UNL     1      -0.017   1.377   0.010  0.00  0.00    +0.048 A 
ATOM     29  C   UNL     1       0.002  -0.004   0.002  0.00  0.00    +0.042 A 
ATOM     30  C   UNL     1       1.210  -0.681  -0.013  0.00  0.00    +0.124 A 
ATOM     31  C   UNL     1       2.401   0.026  -0.021  0.00  0.00    +0.042 A 
ATOM     32  C   UNL     1       2.385   1.407  -0.013  0.00  0.00    +0.048 A 
ATOM     33  F   UNL     1       1.227  -2.031  -0.020  0.00  0.00    -0.205 F 
ENDBRANCH  26  27
ENDBRANCH  25  26
ENDBRANCH  24  25
ENDBRANCH  23  24
ENDBRANCH  20  23
ENDBRANCH  19  20
ENDBRANCH   1  19
TORSDOF 9
