REMARK  Name = ZINC63504380
REMARK  8 active torsions:
REMARK  status: ('A' for Active; 'I' for Inactive)
REMARK    1  A    between atoms: C_6  and  C_24
REMARK    2  A    between atoms: C_7  and  N_9
REMARK    3  A    between atoms: C_10  and  C_12
REMARK    4  A    between atoms: C_12  and  C_13
REMARK    5  A    between atoms: C_13  and  N_14
REMARK    6  A    between atoms: N_14  and  C_15
REMARK    7  A    between atoms: N_14  and  C_19
REMARK    8  A    between atoms: C_15  and  C_16
REMARK                            x       y       z     vdW  Elec       q    Type
REMARK                         _______ _______ _______ _____ _____    ______ ____
ROOT
ATOM      1  N   UNL     1       1.660  -2.901   3.998  0.00  0.00    -0.279 N 
ATOM      2  C   UNL     1       2.751  -3.148   4.750  0.00  0.00    +0.216 C 
ATOM      3  O   UNL     1       3.594  -2.289   4.897  0.00  0.00    -0.276 OA
ATOM      4  H   UNL     1       0.985  -3.587   3.881  0.00  0.00    +0.155 HD
ENDROOT
BRANCH   1  11
ATOM      5  C   UNL     1      -0.343   2.280   1.219  0.00  0.00    +0.005 C 
ATOM      6  C   UNL     1       1.113   2.637   0.903  0.00  0.00    +0.005 C 
ATOM      7  C   UNL     1       1.998   2.204   2.080  0.00  0.00    +0.043 C 
ATOM      8  C   UNL     1       1.635   0.799   2.449  0.00  0.00    -0.004 A 
ATOM      9  C   UNL     1       0.528   0.121   2.072  0.00  0.00    -0.018 A 
ATOM     10  C   UNL     1       0.456  -1.233   2.591  0.00  0.00    +0.084 A 
ATOM     11  C   UNL     1       1.502  -1.662   3.391  0.00  0.00    +0.090 A 
ATOM     12  S   UNL     1       2.536  -0.341   3.459  0.00  0.00    -0.077 S 
ATOM     13  C   UNL     1      -0.526   0.761   1.182  0.00  0.00    +0.037 C 
BRANCH  10  14
ATOM     14  C   UNL     1      -0.651  -2.090   2.288  0.00  0.00    +0.102 C 
ATOM     15  N   UNL     1      -1.529  -2.769   2.048  0.00  0.00    -0.191 NA
ENDBRANCH  10  14
ENDBRANCH   1  11
BRANCH   2  16
ATOM     16  C   UNL     1       2.922  -4.493   5.409  0.00  0.00    +0.078 C 
BRANCH  16  17
ATOM     17  C   UNL     1       4.233  -4.511   6.197  0.00  0.00    -0.069 C 
BRANCH  17  18
ATOM     18  N   UNL     1       4.400  -5.822   6.839  0.00  0.00    +0.388 N 
ATOM     19  H   UNL     1       3.583  -6.032   7.393  0.00  0.00    -0.081 HD
BRANCH  18  20
ATOM     20  C   UNL     1       5.586  -5.795   7.706  0.00  0.00    -0.068 C 
ATOM     21  C   UNL     1       5.814  -7.186   8.332  0.00  0.00    -0.015 C 
ATOM     22  C   UNL     1       6.315  -6.880   9.766  0.00  0.00    -0.002 C 
ATOM     23  C   UNL     1       5.464  -5.650  10.169  0.00  0.00    -0.002 C 
ATOM     24  C   UNL     1       5.363  -4.818   8.874  0.00  0.00    -0.015 C 
ENDBRANCH  18  20
BRANCH  18  25
ATOM     25  C   UNL     1       4.570  -6.854   5.808  0.00  0.00    +0.019 C 
BRANCH  25  26
ATOM     26  C   UNL     1       5.836  -6.588   5.035  0.00  0.00    +0.194 C 
ATOM     27  O   UNL     1       6.475  -5.579   5.247  0.00  0.00    -0.278 OA
ATOM     28  N   UNL     1       6.258  -7.471   4.109  0.00  0.00    -0.331 N 
ATOM     29  H   UNL     1       5.747  -8.278   3.939  0.00  0.00    +0.145 HD
ATOM     30  H   UNL     1       7.073  -7.300   3.611  0.00  0.00    +0.145 HD
ENDBRANCH  25  26
ENDBRANCH  18  25
ENDBRANCH  17  18
ENDBRANCH  16  17
ENDBRANCH   2  16
TORSDOF 8
