REMARK  Name = ZINC34757788
REMARK  13 active torsions:
REMARK  status: ('A' for Active; 'I' for Inactive)
REMARK    1  A    between atoms: C_1  and  C_2
REMARK    2  A    between atoms: C_2  and  N_3
REMARK    3  A    between atoms: N_3  and  C_4
REMARK    4  A    between atoms: C_4  and  C_5
REMARK    5  A    between atoms: C_6  and  C_8
REMARK    6  A    between atoms: C_8  and  N_9
REMARK    7  A    between atoms: C_22  and  S_24
REMARK    8  A    between atoms: S_24  and  C_25
REMARK    9  A    between atoms: C_25  and  C_26
REMARK   10  A    between atoms: N_28  and  C_29
REMARK   11  A    between atoms: N_28  and  C_31
REMARK   12  A    between atoms: C_29  and  C_30
REMARK   13  A    between atoms: C_31  and  C_32
REMARK                            x       y       z     vdW  Elec       q    Type
REMARK                         _______ _______ _______ _____ _____    ______ ____
ROOT
ATOM      1  N   UNL     1      -1.194  -1.127  -4.549  0.00  0.00    +0.387 N 
ATOM      2  C   UNL     1      -1.291  -1.567  -5.946  0.00  0.00    -0.059 C 
ATOM      3  C   UNL     1      -2.766  -1.639  -6.356  0.00  0.00    +0.088 C 
ATOM      4  N   UNL     1      -3.390  -0.335  -6.085  0.00  0.00    -0.318 N 
ATOM      5  C   UNL     1      -3.203   0.260  -4.753  0.00  0.00    +0.088 C 
ATOM      6  C   UNL     1      -1.707   0.242  -4.419  0.00  0.00    -0.059 C 
ATOM      7  C   UNL     1      -4.130   0.314  -7.056  0.00  0.00    +0.134 A 
ATOM      8  C   UNL     1      -5.542   0.151  -7.115  0.00  0.00    +0.051 A 
ATOM      9  C   UNL     1      -6.405  -0.662  -6.240  0.00  0.00    -0.025 A 
ATOM     10  C   UNL     1      -7.721  -0.651  -6.505  0.00  0.00    -0.004 A 
ATOM     11  S   UNL     1      -7.901   0.425  -7.910  0.00  0.00    -0.073 S 
ATOM     12  C   UNL     1      -6.197   0.856  -8.140  0.00  0.00    +0.115 A 
ATOM     13  N   UNL     1      -5.532   1.619  -8.988  0.00  0.00    -0.214 NA
ATOM     14  C   UNL     1      -4.215   1.736  -8.887  0.00  0.00    +0.191 A 
ATOM     15  N   UNL     1      -3.536   1.100  -7.939  0.00  0.00    -0.206 NA
ATOM     16  C   UNL     1      -8.500  -1.518  -5.554  0.00  0.00    +0.043 C 
ATOM     17  C   UNL     1      -7.438  -2.430  -4.902  0.00  0.00    +0.010 C 
ATOM     18  C   UNL     1      -6.166  -1.569  -5.029  0.00  0.00    +0.037 C 
ATOM     19  H   UNL     1      -1.737  -1.746  -3.965  0.00  0.00    -0.081 HD
ENDROOT
BRANCH   1  20
ATOM     20  C   UNL     1       0.212  -1.164  -4.123  0.00  0.00    +0.019 C 
BRANCH  20  22
ATOM     21  N   UNL     1       1.975  -2.865  -3.783  0.00  0.00    -0.304 N 
ATOM     22  C   UNL     1       0.705  -2.588  -4.139  0.00  0.00    +0.199 C 
ATOM     23  O   UNL     1      -0.041  -3.484  -4.472  0.00  0.00    -0.278 OA
BRANCH  21  25
ATOM     24  C   UNL     1       3.609  -1.245  -4.611  0.00  0.00    +0.024 C 
ATOM     25  C   UNL     1       2.876  -1.783  -3.380  0.00  0.00    +0.104 C 
ENDBRANCH  21  25
BRANCH  21  26
ATOM     26  C   UNL     1       2.454  -4.250  -3.798  0.00  0.00    +0.104 C 
ATOM     27  C   UNL     1       2.201  -4.892  -2.433  0.00  0.00    +0.024 C 
ENDBRANCH  21  26
ENDBRANCH  20  22
ENDBRANCH   1  20
BRANCH  14  28
ATOM     28  S   UNL     1      -3.349   2.759 -10.031  0.00  0.00    -0.077 S 
BRANCH  28  29
ATOM     29  C   UNL     1      -4.652   3.410 -11.111  0.00  0.00    +0.173 C 
BRANCH  29  30
ATOM     30  C   UNL     1      -4.039   4.314 -12.150  0.00  0.00    +0.226 C 
ATOM     31  O   UNL     1      -2.841   4.500 -12.160  0.00  0.00    -0.275 OA
ATOM     32  N   UNL     1      -4.822   4.915 -13.067  0.00  0.00    -0.301 N 
BRANCH  32  33
ATOM     33  C   UNL     1      -6.270   4.690 -13.055  0.00  0.00    +0.104 C 
ATOM     34  C   UNL     1      -6.942   5.740 -12.167  0.00  0.00    +0.024 C 
ENDBRANCH  32  33
BRANCH  32  35
ATOM     35  C   UNL     1      -4.226   5.793 -14.076  0.00  0.00    +0.104 C 
ATOM     36  C   UNL     1      -3.851   4.970 -15.311  0.00  0.00    +0.024 C 
ENDBRANCH  32  35
ENDBRANCH  29  30
ENDBRANCH  28  29
ENDBRANCH  14  28
TORSDOF 9
