REMARK  Name = ZINC12052180
REMARK  9 active torsions:
REMARK  status: ('A' for Active; 'I' for Inactive)
REMARK    1  A    between atoms: C_1  and  C_2
REMARK    2  A    between atoms: C_2  and  C_3
REMARK    3  A    between atoms: C_4  and  C_20
REMARK    4  A    between atoms: C_8  and  C_19
REMARK    5  A    between atoms: N_9  and  C_10
REMARK    6  A    between atoms: C_10  and  C_11
REMARK    7  A    between atoms: C_14  and  O_17
REMARK    8  A    between atoms: O_17  and  C_18
REMARK    9  A    between atoms: C_27  and  N_78
REMARK                            x       y       z     vdW  Elec       q    Type
REMARK                         _______ _______ _______ _____ _____    ______ ____
ROOT
ATOM      1  C   UNL     1       1.311   3.476   3.461  0.00  0.00    +0.035 A 
ATOM      2  C   UNL     1      -0.025   3.818   3.499  0.00  0.00    +0.103 A 
ATOM      3  C   UNL     1      -0.916   3.046   4.379  0.00  0.00    +0.194 A 
ATOM      4  O   UNL     1      -2.108   3.301   4.448  0.00  0.00    -0.287 OA
ATOM      5  C   UNL     1      -0.347   1.998   5.143  0.00  0.00    +0.072 A 
ATOM      6  C   UNL     1       0.974   1.746   5.038  0.00  0.00    +0.020 A 
ATOM      7  N   UNL     1       1.777   2.470   4.220  0.00  0.00    -0.343 N 
ATOM      8  C   UNL     1       1.574   0.629   5.854  0.00  0.00    +0.063 C 
ENDROOT
BRANCH   2   9
ATOM      9  C   UNL     1      -0.546   4.922   2.675  0.00  0.00    +0.252 C 
ATOM     10  O   UNL     1      -0.497   6.065   3.089  0.00  0.00    -0.270 OA
ATOM     11  N   UNL     1      -1.077   4.667   1.463  0.00  0.00    -0.301 N 
ATOM     12  C   UNL     1      -1.057   3.307   0.902  0.00  0.00    +0.089 C 
ATOM     13  C   UNL     1      -0.476   3.374  -0.515  0.00  0.00    -0.059 C 
ATOM     14  C   UNL     1      -1.087   5.710  -0.740  0.00  0.00    -0.059 C 
ATOM     15  C   UNL     1      -1.693   5.739   0.667  0.00  0.00    +0.089 C 
ATOM     16  N   UNL     1      -1.257   4.353  -1.302  0.00  0.00    +0.385 N 
ATOM     17  H   UNL     1      -2.251   4.097  -1.260  0.00  0.00    -0.081 HD
BRANCH  16  18
ATOM     18  C   UNL     1      -0.816   4.332  -2.712  0.00  0.00    -0.065 C 
ATOM     19  C   UNL     1       0.676   4.656  -2.814  0.00  0.00    -0.009 C 
ATOM     20  C   UNL     1       1.105   4.627  -4.282  0.00  0.00    -0.012 C 
ATOM     21  C   UNL     1       0.303   5.665  -5.069  0.00  0.00    +0.007 C 
ATOM     22  C   UNL     1      -1.189   5.341  -4.967  0.00  0.00    -0.012 C 
ATOM     23  C   UNL     1      -1.618   5.371  -3.499  0.00  0.00    -0.009 C 
ATOM     24  C   UNL     1      -1.449   3.950  -5.547  0.00  0.00    +0.007 C 
ATOM     25  C   UNL     1      -0.647   2.911  -4.760  0.00  0.00    -0.012 C 
ATOM     26  C   UNL     1       0.845   3.235  -4.862  0.00  0.00    +0.007 C 
ATOM     27  C   UNL     1      -1.076   2.941  -3.292  0.00  0.00    -0.009 C 
ENDBRANCH  16  18
ENDBRANCH   2   9
BRANCH   1  29
ATOM     28  C   UNL     1       2.729   5.502   3.286  0.00  0.00    +0.010 C 
ATOM     29  C   UNL     1       2.255   4.238   2.567  0.00  0.00    +0.051 C 
ENDBRANCH   1  29
BRANCH   7  30
ATOM     30  C   UNL     1       3.203   2.139   4.157  0.00  0.00    +0.157 C 
BRANCH  30  31
ATOM     31  C   UNL     1       3.411   0.996   3.198  0.00  0.00    -0.028 A 
ATOM     32  C   UNL     1       3.413  -0.305   3.665  0.00  0.00    +0.009 A 
ATOM     33  C   UNL     1       3.599  -1.355   2.786  0.00  0.00    +0.046 A 
ATOM     34  C   UNL     1       3.794  -1.102   1.436  0.00  0.00    +0.120 A 
ATOM     35  C   UNL     1       3.797   0.205   0.971  0.00  0.00    +0.046 A 
ATOM     36  C   UNL     1       3.606   1.251   1.853  0.00  0.00    +0.009 A 
BRANCH  34  37
ATOM     37  O   UNL     1       3.982  -2.133   0.571  0.00  0.00    -0.495 OA
ATOM     38  C   UNL     1       3.966  -3.453   1.120  0.00  0.00    +0.277 C 
ENDBRANCH  34  37
ENDBRANCH  30  31
ENDBRANCH   7  30
TORSDOF 6
