REMARK  Name = ZINC26548050
REMARK  6 active torsions:
REMARK  status: ('A' for Active; 'I' for Inactive)
REMARK    1  A    between atoms: C_1  and  C_2
REMARK    2  A    between atoms: C_2  and  C_3
REMARK    3  A    between atoms: C_3  and  N_4
REMARK    4  A    between atoms: C_5  and  C_16
REMARK    5  A    between atoms: C_7  and  C_9
REMARK    6  A    between atoms: N_13  and  N_14
REMARK                            x       y       z     vdW  Elec       q    Type
REMARK                         _______ _______ _______ _____ _____    ______ ____
ROOT
ATOM      1  N   UNL     1       0.663  -2.103  -0.015  0.00  0.00    -0.268 N 
ATOM      2  C   UNL     1      -0.687  -2.126  -0.003  0.00  0.00    +0.037 A 
ATOM      3  C   UNL     1      -1.126  -0.850   0.014  0.00  0.00    +0.056 A 
ATOM      4  C   UNL     1       0.002  -0.004   0.002  0.00  0.00    +0.131 A 
ATOM      5  N   UNL     1       1.078  -0.765  -0.012  0.00  0.00    -0.168 NA
ATOM      6  C   UNL     1      -1.552  -3.361  -0.002  0.00  0.00    +0.065 C 
ENDROOT
BRANCH   4   7
ATOM      7  C   UNL     1      -0.018   1.475   0.010  0.00  0.00    +0.202 A 
ATOM      8  N   UNL     1      -1.084   2.240   0.019  0.00  0.00    -0.125 NA
ATOM      9  N   UNL     1      -0.736   3.477   0.026  0.00  0.00    -0.120 NA
ATOM     10  C   UNL     1       0.574   3.578   0.015  0.00  0.00    +0.220 A 
ATOM     11  N   UNL     1       1.077   2.307   0.004  0.00  0.00    -0.222 N 
ATOM     12  S   UNL     1       1.508   5.072   0.013  0.00  0.00    -0.008 SA
BRANCH  11  13
ATOM     13  N   UNL     1       2.393   1.940  -0.010  0.00  0.00    -0.294 N 
ATOM     14  H   UNL     1       3.179   2.710  -0.014  0.00  0.00    +0.163 HD
ATOM     15  H   UNL     1       2.667   0.875  -0.019  0.00  0.00    +0.163 HD
ENDBRANCH  11  13
ENDBRANCH   4   7
BRANCH   1  16
ATOM     16  C   UNL     1       1.543  -3.275  -0.030  0.00  0.00    +0.143 C 
BRANCH  16  18
ATOM     17  C   UNL     1       2.781  -4.914   1.393  0.00  0.00    +0.005 C 
ATOM     18  C   UNL     1       1.863  -3.691   1.408  0.00  0.00    +0.020 C 
ENDBRANCH  16  18
ENDBRANCH   1  16
TORSDOF 4
