REMARK  Name = ZINC09639517
REMARK  9 active torsions:
REMARK  status: ('A' for Active; 'I' for Inactive)
REMARK    1  A    between atoms: C_1  and  C_2
REMARK    2  A    between atoms: C_3  and  C_32
REMARK    3  A    between atoms: N_4  and  C_26
REMARK    4  A    between atoms: C_5  and  N_9
REMARK    5  A    between atoms: C_6  and  C_7
REMARK    6  A    between atoms: C_10  and  C_12
REMARK    7  A    between atoms: C_12  and  N_57
REMARK    8  A    between atoms: C_21  and  C_23
REMARK    9  A    between atoms: C_26  and  C_27
REMARK                            x       y       z     vdW  Elec       q    Type
REMARK                         _______ _______ _______ _____ _____    ______ ____
ROOT
ATOM      1  N   UNL     1       3.997   6.328  -3.734  0.00  0.00    -0.272 N 
ATOM      2  C   UNL     1       3.333   5.446  -2.961  0.00  0.00    +0.202 C 
ATOM      3  O   UNL     1       2.228   5.067  -3.287  0.00  0.00    -0.278 OA
ATOM      4  H   UNL     1       4.903   6.588  -3.505  0.00  0.00    +0.156 HD
ENDROOT
BRANCH   1   9
ATOM      5  C   UNL     1       0.629   8.336  -6.922  0.00  0.00    +0.047 C 
ATOM      6  C   UNL     1       1.890   7.770  -6.322  0.00  0.00    -0.011 A 
ATOM      7  C   UNL     1       3.071   7.612  -6.942  0.00  0.00    +0.022 A 
ATOM      8  N   UNL     1       3.974   7.072  -6.065  0.00  0.00    -0.324 N 
ATOM      9  C   UNL     1       3.386   6.863  -4.859  0.00  0.00    +0.124 A 
ATOM     10  C   UNL     1       2.067   7.285  -4.948  0.00  0.00    +0.095 A 
ATOM     11  C   UNL     1       3.360   7.976  -8.376  0.00  0.00    +0.064 C 
BRANCH  10  12
ATOM     12  C   UNL     1       1.079   7.254  -3.911  0.00  0.00    +0.103 C 
ATOM     13  N   UNL     1       0.296   7.229  -3.089  0.00  0.00    -0.191 NA
ENDBRANCH  10  12
BRANCH   8  14
ATOM     14  C   UNL     1       5.370   6.763  -6.382  0.00  0.00    +0.197 C 
BRANCH  14  15
ATOM     15  C   UNL     1       5.465   5.355  -6.912  0.00  0.00    +0.124 A 
ATOM     16  C   UNL     1       5.477   5.002  -8.209  0.00  0.00    +0.046 A 
ATOM     17  C   UNL     1       5.579   3.592  -8.249  0.00  0.00    +0.041 A 
ATOM     18  C   UNL     1       5.615   3.168  -6.973  0.00  0.00    +0.195 A 
ATOM     19  O   UNL     1       5.545   4.240  -6.167  0.00  0.00    -0.466 OA
ENDBRANCH  14  15
ENDBRANCH   8  14
ENDBRANCH   1   9
BRANCH   2  20
ATOM     20  C   UNL     1       3.962   4.932  -1.692  0.00  0.00    +0.020 C 
BRANCH  20  30
ATOM     21  C   UNL     1       2.602   2.933  -1.754  0.00  0.00    -0.041 C 
ATOM     22  C   UNL     1       1.534   2.147  -1.040  0.00  0.00    -0.061 A 
ATOM     23  C   UNL     1       1.301   0.838  -1.436  0.00  0.00    +0.002 A 
ATOM     24  C   UNL     1       0.329   0.082  -0.812  0.00  0.00    +0.000 A 
ATOM     25  C   UNL     1      -0.422   0.633   0.209  0.00  0.00    +0.000 A 
ATOM     26  C   UNL     1      -0.188   1.934   0.609  0.00  0.00    +0.004 A 
ATOM     27  C   UNL     1       0.790   2.693  -0.016  0.00  0.00    -0.047 A 
ATOM     28  C   UNL     1       1.011   4.109   0.454  0.00  0.00    +0.029 C 
ATOM     29  C   UNL     1       1.801   4.890  -0.596  0.00  0.00    +0.024 C 
ATOM     30  N   UNL     1       2.998   4.096  -0.942  0.00  0.00    +0.396 N 
ATOM     31  H   UNL     1       3.443   3.766  -0.078  0.00  0.00    -0.080 HD
BRANCH  29  32
ATOM     32  C   UNL     1       2.227   6.218  -0.024  0.00  0.00    +0.197 C 
ATOM     33  O   UNL     1       3.157   6.273   0.752  0.00  0.00    -0.278 OA
ATOM     34  N   UNL     1       1.575   7.343  -0.377  0.00  0.00    -0.331 N 
ATOM     35  H   UNL     1       0.782   7.290  -0.933  0.00  0.00    +0.145 HD
ATOM     36  H   UNL     1       1.898   8.206  -0.073  0.00  0.00    +0.145 HD
ENDBRANCH  29  32
ENDBRANCH  20  30
ENDBRANCH   2  20
TORSDOF 7
