REMARK  Name = ZINC40752280
REMARK  10 active torsions:
REMARK  status: ('A' for Active; 'I' for Inactive)
REMARK    1  A    between atoms: C_1  and  C_2
REMARK    2  A    between atoms: C_9  and  O_12
REMARK    3  A    between atoms: O_12  and  C_13
REMARK    4  A    between atoms: C_14  and  N_30
REMARK    5  A    between atoms: C_15  and  N_19
REMARK    6  A    between atoms: N_19  and  C_20
REMARK    7  A    between atoms: C_22  and  C_28
REMARK    8  A    between atoms: C_22  and  C_29
REMARK    9  A    between atoms: C_24  and  C_26
REMARK   10  A    between atoms: C_24  and  C_27
REMARK                            x       y       z     vdW  Elec       q    Type
REMARK                         _______ _______ _______ _____ _____    ______ ____
ROOT
ATOM      1  C   UNL     1       0.021  -3.341   5.150  0.00  0.00    +0.246 A 
ATOM      2  C   UNL     1      -0.104  -2.591   6.319  0.00  0.00    +0.128 A 
ATOM      3  C   UNL     1      -0.264  -3.275   7.527  0.00  0.00    +0.147 A 
ATOM      4  N   UNL     1      -0.290  -4.605   7.516  0.00  0.00    -0.219 NA
ATOM      5  C   UNL     1      -0.169  -5.274   6.387  0.00  0.00    +0.227 A 
ATOM      6  N   UNL     1      -0.022  -4.667   5.227  0.00  0.00    -0.199 NA
ENDROOT
BRANCH   2   7
ATOM      7  N   UNL     1      -0.070  -1.189   6.284  0.00  0.00    -0.351 N 
ATOM      8  H   UNL     1       0.042  -0.728   5.438  0.00  0.00    +0.143 HD
ATOM      9  H   UNL     1      -0.158  -0.680   7.105  0.00  0.00    +0.143 HD
ENDBRANCH   2   7
BRANCH   3  10
ATOM     10  N   UNL     1      -0.392  -2.577   8.722  0.00  0.00    -0.325 N 
ATOM     11  H   UNL     1      -0.371  -1.607   8.721  0.00  0.00    +0.148 HD
BRANCH  10  12
ATOM     12  C   UNL     1      -0.559  -3.307   9.985  0.00  0.00    +0.069 C 
ATOM     13  C   UNL     1      -2.046  -3.597  10.204  0.00  0.00    +0.009 C 
ATOM     14  C   UNL     1      -2.237  -4.347  11.522  0.00  0.00    -0.072 C 
ATOM     15  N   UNL     1      -1.634  -3.645  12.645  0.00  0.00    +0.386 N 
ATOM     16  C   UNL     1      -0.282  -3.137  12.477  0.00  0.00    -0.072 C 
ATOM     17  C   UNL     1      -0.065  -2.436  11.139  0.00  0.00    +0.009 C 
ATOM     18  C   UNL     1       0.764  -4.238  12.665  0.00  0.00    -0.010 C 
ATOM     19  C   UNL     1      -0.038  -2.088  13.588  0.00  0.00    -0.010 C 
ATOM     20  C   UNL     1      -1.722  -5.780  11.395  0.00  0.00    -0.010 C 
ATOM     21  C   UNL     1      -3.759  -4.429  11.785  0.00  0.00    -0.010 C 
ATOM     22  H   UNL     1      -2.243  -2.862  12.898  0.00  0.00    -0.084 HD
ATOM     23  H   UNL     1      -1.646  -4.267  13.457  0.00  0.00    -0.084 HD
ENDBRANCH  10  12
ENDBRANCH   3  10
BRANCH   1  24
ATOM     24  O   UNL     1       0.177  -2.725   3.952  0.00  0.00    -0.434 OA
BRANCH  24  33
ATOM     25  C   UNL     1      -4.627  -3.397   2.770  0.00  0.00    +0.065 C 
ATOM     26  C   UNL     1      -3.327  -3.858   2.163  0.00  0.00    +0.039 A 
ATOM     27  C   UNL     1      -3.357  -4.651   1.018  0.00  0.00    +0.023 A 
ATOM     28  C   UNL     1      -2.188  -5.077   0.454  0.00  0.00    +0.012 A 
ATOM     29  C   UNL     1      -0.978  -4.692   1.062  0.00  0.00    +0.004 A 
ATOM     30  C   UNL     1       0.263  -5.091   0.538  0.00  0.00    +0.010 A 
ATOM     31  C   UNL     1       1.413  -4.699   1.153  0.00  0.00    +0.004 A 
ATOM     32  C   UNL     1       1.379  -3.906   2.297  0.00  0.00    +0.048 A 
ATOM     33  C   UNL     1       0.191  -3.498   2.835  0.00  0.00    +0.156 A 
ATOM     34  C   UNL     1      -1.021  -3.884   2.224  0.00  0.00    +0.113 A 
ATOM     35  N   UNL     1      -2.198  -3.497   2.723  0.00  0.00    -0.248 NA
ENDBRANCH  24  33
ENDBRANCH   1  24
TORSDOF 5
