REMARK  Name = ZINC22362129
REMARK  12 active torsions:
REMARK  status: ('A' for Active; 'I' for Inactive)
REMARK    1  A    between atoms: C_1  and  C_2
REMARK    2  A    between atoms: C_5  and  C_33
REMARK    3  A    between atoms: C_6  and  C_8
REMARK    4  A    between atoms: C_8  and  C_10
REMARK    5  A    between atoms: C_8  and  N_11
REMARK    6  A    between atoms: C_12  and  C_14
REMARK    7  A    between atoms: C_14  and  N_15
REMARK    8  A    between atoms: N_15  and  C_16
REMARK    9  A    between atoms: N_15  and  S_24
REMARK   10  A    between atoms: C_20  and  C_23
REMARK   11  A    between atoms: C_21  and  C_22
REMARK   12  A    between atoms: S_24  and  C_27
REMARK                            x       y       z     vdW  Elec       q    Type
REMARK                         _______ _______ _______ _____ _____    ______ ____
ROOT
ATOM      1  N   UNL     1       2.484  -3.263  -0.009  0.00  0.00    -0.194 N 
ENDROOT
BRANCH   1   2
ATOM      2  C   UNL     1       2.383  -2.062   0.697  0.00  0.00    +0.055 A 
ATOM      3  C   UNL     1       1.232  -1.291   0.599  0.00  0.00    +0.025 A 
ATOM      4  C   UNL     1       1.136  -0.104   1.299  0.00  0.00    +0.002 A 
ATOM      5  C   UNL     1       2.184   0.316   2.097  0.00  0.00    +0.004 A 
ATOM      6  C   UNL     1       3.331  -0.450   2.198  0.00  0.00    -0.046 A 
ATOM      7  C   UNL     1       3.432  -1.640   1.505  0.00  0.00    -0.025 A 
ATOM      8  C   UNL     1       4.679  -2.477   1.620  0.00  0.00    +0.046 C 
ATOM      9  C   UNL     1       4.470   0.013   3.069  0.00  0.00    +0.044 C 
ENDBRANCH   1   2
BRANCH   1  10
ATOM     10  S   UNL     1       2.093  -4.693   0.729  0.00  0.00    +0.075 S 
ATOM     11  O   UNL     1       2.246  -4.484   2.126  0.00  0.00    -0.150 OA
ATOM     12  O   UNL     1       2.792  -5.715   0.031  0.00  0.00    -0.150 OA
BRANCH  10  13
ATOM     13  C   UNL     1       0.377  -4.973   0.446  0.00  0.00    +0.109 A 
ATOM     14  C   UNL     1      -0.034  -5.675  -0.672  0.00  0.00    +0.029 A 
ATOM     15  C   UNL     1      -1.381  -5.895  -0.894  0.00  0.00    +0.002 A 
ATOM     16  C   UNL     1      -2.317  -5.413   0.002  0.00  0.00    +0.000 A 
ATOM     17  C   UNL     1      -1.906  -4.712   1.121  0.00  0.00    +0.002 A 
ATOM     18  C   UNL     1      -0.559  -4.492   1.343  0.00  0.00    +0.029 A 
ENDBRANCH  10  13
ENDBRANCH   1  10
BRANCH   1  19
ATOM     19  C   UNL     1       2.935  -3.257  -1.403  0.00  0.00    +0.227 C 
BRANCH  19  21
ATOM     20  N   UNL     1       1.939  -2.938  -3.645  0.00  0.00    -0.307 N 
ATOM     21  C   UNL     1       1.761  -2.990  -2.310  0.00  0.00    +0.233 C 
ATOM     22  O   UNL     1       0.657  -2.820  -1.838  0.00  0.00    -0.274 OA
ATOM     23  H   UNL     1       2.941  -3.092  -4.072  0.00  0.00    +0.149 HD
BRANCH  20  24
ATOM     24  C   UNL     1       0.798  -2.678  -4.526  0.00  0.00    +0.100 C 
ATOM     25  C   UNL     1       1.294  -2.050  -5.830  0.00  0.00    +0.033 C 
BRANCH  24  31
ATOM     26  C   UNL     1       0.856  -7.671  -4.854  0.00  0.00    +0.044 C 
ATOM     27  C   UNL     1       0.120  -6.363  -4.987  0.00  0.00    -0.050 A 
ATOM     28  C   UNL     1      -1.204  -6.352  -5.388  0.00  0.00    +0.003 A 
ATOM     29  C   UNL     1      -1.879  -5.152  -5.509  0.00  0.00    +0.004 A 
ATOM     30  C   UNL     1      -1.231  -3.963  -5.231  0.00  0.00    -0.046 A 
ATOM     31  C   UNL     1       0.092  -3.974  -4.830  0.00  0.00    -0.024 A 
ATOM     32  C   UNL     1       0.769  -5.174  -4.713  0.00  0.00    +0.009 A 
ATOM     33  C   UNL     1      -1.967  -2.655  -5.364  0.00  0.00    +0.044 C 
ENDBRANCH  24  31
ENDBRANCH  20  24
ENDBRANCH  19  21
ENDBRANCH   1  19
TORSDOF 7
