REMARK  Name = ZINC09594950
REMARK  8 active torsions:
REMARK  status: ('A' for Active; 'I' for Inactive)
REMARK    1  A    between atoms: C_3  and  N_8
REMARK    2  A    between atoms: C_9  and  C_11
REMARK    3  A    between atoms: C_11  and  N_53
REMARK    4  A    between atoms: C_17  and  C_19
REMARK    5  A    between atoms: C_19  and  C_20
REMARK    6  A    between atoms: C_20  and  N_21
REMARK    7  A    between atoms: N_21  and  S_22
REMARK    8  A    between atoms: S_22  and  C_25
REMARK                            x       y       z     vdW  Elec       q    Type
REMARK                         _______ _______ _______ _____ _____    ______ ____
ROOT
ATOM      1  C   UNL     1      -3.759   1.139  -7.950  0.00  0.00    -0.059 C 
ATOM      2  C   UNL     1      -4.303   0.877  -6.542  0.00  0.00    +0.089 C 
ATOM      3  N   UNL     1      -4.011   2.050  -5.703  0.00  0.00    -0.305 N 
ATOM      4  C   UNL     1      -4.404   3.377  -6.201  0.00  0.00    +0.089 C 
ATOM      5  C   UNL     1      -3.851   3.541  -7.625  0.00  0.00    -0.059 C 
ATOM      6  C   UNL     1      -3.405   1.911  -4.508  0.00  0.00    +0.217 C 
ATOM      7  O   UNL     1      -3.092   0.809  -4.110  0.00  0.00    -0.276 OA
ATOM      8  N   UNL     1      -4.328   2.409  -8.451  0.00  0.00    +0.387 N 
ATOM      9  H   UNL     1      -5.352   2.362  -8.391  0.00  0.00    -0.081 HD
ENDROOT
BRANCH   8  10
ATOM     10  C   UNL     1      -3.939   2.615  -9.861  0.00  0.00    +0.019 C 
BRANCH  10  12
ATOM     11  N   UNL     1      -1.892   3.071 -11.173  0.00  0.00    -0.287 N 
ATOM     12  C   UNL     1      -2.444   2.762  -9.983  0.00  0.00    +0.201 C 
ATOM     13  O   UNL     1      -1.738   2.604  -9.010  0.00  0.00    -0.278 OA
ATOM     14  H   UNL     1      -2.460   3.264 -11.936  0.00  0.00    +0.155 HD
BRANCH  11  17
ATOM     15  C   UNL     1       1.663   3.601 -10.395  0.00  0.00    +0.005 A 
ATOM     16  C   UNL     1       0.288   3.566 -10.261  0.00  0.00    +0.023 A 
ATOM     17  C   UNL     1      -0.500   3.111 -11.309  0.00  0.00    +0.036 A 
ATOM     18  C   UNL     1       0.095   2.703 -12.496  0.00  0.00    +0.061 A 
ATOM     19  C   UNL     1       1.471   2.745 -12.627  0.00  0.00    +0.125 A 
ATOM     20  C   UNL     1       2.254   3.194 -11.576  0.00  0.00    +0.038 A 
ATOM     21  F   UNL     1       2.052   2.348 -13.780  0.00  0.00    -0.205 F 
ENDBRANCH  11  17
ENDBRANCH  10  12
ENDBRANCH   8  10
BRANCH   6  22
ATOM     22  C   UNL     1      -3.115   3.127  -3.664  0.00  0.00    +0.113 C 
BRANCH  22  23
ATOM     23  C   UNL     1      -2.427   2.695  -2.367  0.00  0.00    +0.115 C 
BRANCH  23  24
ATOM     24  N   UNL     1      -2.146   3.876  -1.548  0.00  0.00    -0.189 NA
ATOM     25  H   UNL     1      -2.191   4.762  -1.941  0.00  0.00    +0.148 HD
BRANCH  24  26
ATOM     26  S   UNL     1      -1.752   3.700   0.051  0.00  0.00    +0.065 S 
ATOM     27  O   UNL     1      -2.723   2.829   0.615  0.00  0.00    -0.153 OA
ATOM     28  O   UNL     1      -1.514   5.006   0.557  0.00  0.00    -0.153 OA
BRANCH  26  29
ATOM     29  C   UNL     1      -0.212   2.846   0.117  0.00  0.00    +0.142 A 
ATOM     30  C   UNL     1       1.046   3.353   0.118  0.00  0.00    +0.036 A 
ATOM     31  C   UNL     1       2.119   2.483   0.171  0.00  0.00    +0.010 A 
ATOM     32  C   UNL     1       1.882   1.150   0.218  0.00  0.00    +0.047 A 
ATOM     33  S   UNL     1       0.098   1.090   0.190  0.00  0.00    -0.077 S 
ENDBRANCH  26  29
ENDBRANCH  24  26
ENDBRANCH  23  24
ENDBRANCH  22  23
ENDBRANCH   6  22
TORSDOF 8
