REMARK  Name = ZINC51055907
REMARK  10 active torsions:
REMARK  status: ('A' for Active; 'I' for Inactive)
REMARK    1  A    between atoms: C_1  and  C_2
REMARK    2  A    between atoms: C_2  and  C_3
REMARK    3  A    between atoms: C_3  and  C_4
REMARK    4  A    between atoms: C_4  and  C_6
REMARK    5  A    between atoms: C_4  and  N_7
REMARK    6  A    between atoms: C_8  and  C_10
REMARK    7  A    between atoms: N_15  and  C_17
REMARK    8  A    between atoms: C_17  and  C_18
REMARK    9  A    between atoms: N_20  and  C_21
REMARK   10  A    between atoms: C_22  and  C_26
REMARK                            x       y       z     vdW  Elec       q    Type
REMARK                         _______ _______ _______ _____ _____    ______ ____
ROOT
ATOM      1  C   UNL     1       2.131  -4.220  -1.602  0.00  0.00    +0.058 C 
ATOM      2  C   UNL     1       1.930  -3.272  -2.788  0.00  0.00    +0.009 C 
ATOM      3  C   UNL     1       2.694  -3.816  -3.998  0.00  0.00    -0.018 C 
ATOM      4  C   UNL     1       2.214  -5.237  -4.302  0.00  0.00    -0.078 C 
ATOM      5  N   UNL     1       2.458  -6.099  -3.139  0.00  0.00    +0.386 N 
ATOM      6  C   UNL     1       1.672  -5.626  -1.994  0.00  0.00    -0.065 C 
ATOM      7  H   UNL     1       3.439  -6.076  -2.905  0.00  0.00    -0.081 HD
ENDROOT
BRANCH   1   9
ATOM      8  N   UNL     1       1.551  -2.512   0.092  0.00  0.00    -0.313 N 
ATOM      9  C   UNL     1       1.321  -3.735  -0.427  0.00  0.00    +0.215 C 
ATOM     10  O   UNL     1       0.461  -4.444   0.051  0.00  0.00    -0.276 OA
ATOM     11  H   UNL     1       2.238  -1.944  -0.291  0.00  0.00    +0.149 HD
BRANCH   8  12
ATOM     12  C   UNL     1       0.763  -2.041   1.233  0.00  0.00    +0.070 C 
ATOM     13  C   UNL     1       1.392  -2.549   2.532  0.00  0.00    +0.028 C 
BRANCH  12  14
ATOM     14  C   UNL     1       0.742  -0.511   1.242  0.00  0.00    +0.022 C 
BRANCH  14  16
ATOM     15  C   UNL     1      -0.019   1.526   0.010  0.00  0.00    +0.004 C 
ATOM     16  C   UNL     1       0.002  -0.004   0.002  0.00  0.00    -0.002 C 
ENDBRANCH  14  16
ENDBRANCH  12  14
ENDBRANCH   8  12
ENDBRANCH   1   9
BRANCH   5  17
ATOM     17  C   UNL     1       2.067  -7.478  -3.463  0.00  0.00    +0.019 C 
BRANCH  17  18
ATOM     18  C   UNL     1       2.962  -8.011  -4.551  0.00  0.00    +0.201 C 
ATOM     19  O   UNL     1       3.840  -7.312  -5.012  0.00  0.00    -0.278 OA
ATOM     20  N   UNL     1       2.788  -9.266  -5.013  0.00  0.00    -0.281 N 
ATOM     21  H   UNL     1       2.086  -9.825  -4.645  0.00  0.00    +0.155 HD
BRANCH  20  22
ATOM     22  C   UNL     1       3.612  -9.757  -6.014  0.00  0.00    +0.084 A 
ATOM     23  C   UNL     1       3.577 -11.009  -6.610  0.00  0.00    +0.065 A 
ATOM     24  C   UNL     1       4.560 -11.263  -7.638  0.00  0.00    +0.022 A 
ATOM     25  C   UNL     1       5.406 -10.251  -7.904  0.00  0.00    +0.048 A 
ATOM     26  S   UNL     1       4.877  -8.971  -6.787  0.00  0.00    -0.081 S 
BRANCH  23  27
ATOM     27  C   UNL     1       2.592 -12.022  -6.217  0.00  0.00    +0.244 C 
ATOM     28  O   UNL     1       1.778 -11.774  -5.347  0.00  0.00    -0.270 OA
ATOM     29  N   UNL     1       2.589 -13.228  -6.819  0.00  0.00    -0.325 N 
ATOM     30  H   UNL     1       3.238 -13.425  -7.513  0.00  0.00    +0.145 HD
ATOM     31  H   UNL     1       1.938 -13.898  -6.559  0.00  0.00    +0.145 HD
ENDBRANCH  23  27
ENDBRANCH  20  22
ENDBRANCH  17  18
ENDBRANCH   5  17
TORSDOF 8
