REMARK  Name = ZINC63303352
REMARK  9 active torsions:
REMARK  status: ('A' for Active; 'I' for Inactive)
REMARK    1  A    between atoms: C_1  and  C_2
REMARK    2  A    between atoms: C_2  and  O_3
REMARK    3  A    between atoms: O_3  and  C_4
REMARK    4  A    between atoms: C_4  and  C_6
REMARK    5  A    between atoms: C_8  and  C_28
REMARK    6  A    between atoms: C_11  and  N_14
REMARK    7  A    between atoms: C_15  and  C_17
REMARK    8  A    between atoms: C_17  and  S_18
REMARK    9  A    between atoms: S_18  and  C_19
REMARK                            x       y       z     vdW  Elec       q    Type
REMARK                         _______ _______ _______ _____ _____    ______ ____
ROOT
ATOM      1  C   UNL     1       1.516  -2.381   2.500  0.00  0.00    +0.179 C 
ATOM      2  C   UNL     1       2.199  -3.727   2.155  0.00  0.00    +0.110 C 
ATOM      3  N   UNL     1       2.074  -4.747   3.188  0.00  0.00    -0.282 NA
ATOM      4  C   UNL     1       1.339  -4.356   4.415  0.00  0.00    +0.203 C 
ATOM      5  S   UNL     1       0.320  -2.947   3.790  0.00  0.00    -0.106 S 
ATOM      6  H   UNL     1       1.708  -5.606   2.805  0.00  0.00    +0.125 HD
ENDROOT
BRANCH   2   7
ATOM      7  C   UNL     1       3.665  -3.471   1.915  0.00  0.00    -0.029 A 
ATOM      8  C   UNL     1       4.528  -3.340   2.987  0.00  0.00    +0.005 A 
ATOM      9  C   UNL     1       5.873  -3.106   2.767  0.00  0.00    +0.000 A 
ATOM     10  C   UNL     1       6.354  -3.004   1.475  0.00  0.00    +0.000 A 
ATOM     11  C   UNL     1       5.491  -3.137   0.403  0.00  0.00    +0.000 A 
ATOM     12  C   UNL     1       4.147  -3.375   0.623  0.00  0.00    +0.005 A 
ENDBRANCH   2   7
BRANCH   4  13
ATOM     13  N   UNL     1       0.491  -5.450   4.893  0.00  0.00    -0.291 N 
ATOM     14  C   UNL     1      -0.018  -5.413   6.141  0.00  0.00    +0.225 C 
ATOM     15  O   UNL     1       0.226  -4.473   6.867  0.00  0.00    -0.275 OA
ATOM     16  H   UNL     1       0.296  -6.202   4.312  0.00  0.00    +0.151 HD
BRANCH  14  17
ATOM     17  C   UNL     1      -0.891  -6.539   6.632  0.00  0.00    +0.168 C 
BRANCH  17  18
ATOM     18  S   UNL     1      -1.416  -6.198   8.335  0.00  0.00    -0.106 S 
BRANCH  18  19
ATOM     19  C   UNL     1      -2.444  -7.627   8.771  0.00  0.00    +0.236 C 
ATOM     20  N   UNL     1      -1.677  -8.869   8.609  0.00  0.00    -0.355 N 
ATOM     21  C   UNL     1      -2.290  -9.593   7.718  0.00  0.00    +0.061 A 
ATOM     22  C   UNL     1      -2.010 -10.915   7.140  0.00  0.00    +0.027 A 
ATOM     23  C   UNL     1      -2.844 -11.425   6.212  0.00  0.00    +0.002 A 
ATOM     24  C   UNL     1      -3.987 -10.740   5.761  0.00  0.00    +0.002 A 
ATOM     25  C   UNL     1      -4.335  -9.523   6.225  0.00  0.00    +0.027 A 
ATOM     26  C   UNL     1      -3.499  -8.868   7.241  0.00  0.00    +0.061 A 
ATOM     27  N   UNL     1      -3.587  -7.724   7.856  0.00  0.00    -0.355 N 
ATOM     28  H   UNL     1      -0.862  -9.105   9.079  0.00  0.00    +0.162 HD
ATOM     29  H   UNL     1      -4.281  -7.058   7.732  0.00  0.00    +0.162 HD
ENDBRANCH  18  19
ENDBRANCH  17  18
ENDBRANCH  14  17
ENDBRANCH   4  13
BRANCH   1  30
ATOM     30  C   UNL     1       0.801  -1.808   1.304  0.00  0.00    +0.322 C 
ATOM     31  O   UNL     1       0.324  -2.546   0.475  0.00  0.00    -0.250 OA
BRANCH  30  32
ATOM     32  O   UNL     1       0.693  -0.477   1.160  0.00  0.00    -0.464 OA
BRANCH  32  34
ATOM     33  C   UNL     1      -0.019   1.526   0.010  0.00  0.00    +0.048 C 
ATOM     34  C   UNL     1       0.002  -0.004   0.002  0.00  0.00    +0.229 C 
ENDBRANCH  32  34
ENDBRANCH  30  32
ENDBRANCH   1  30
TORSDOF 8
