REMARK  Name = ZINC39533969
REMARK  8 active torsions:
REMARK  status: ('A' for Active; 'I' for Inactive)
REMARK    1  A    between atoms: C_4  and  O_32
REMARK    2  A    between atoms: C_5  and  C_7
REMARK    3  A    between atoms: C_10  and  C_13
REMARK    4  A    between atoms: C_13  and  C_15
REMARK    5  A    between atoms: C_13  and  N_18
REMARK    6  A    between atoms: C_15  and  N_16
REMARK    7  A    between atoms: C_22  and  C_25
REMARK    8  A    between atoms: C_30  and  O_31
REMARK                            x       y       z     vdW  Elec       q    Type
REMARK                         _______ _______ _______ _____ _____    ______ ____
ROOT
ATOM      1  C   UNL     1       1.319  -6.441  -0.046  0.00  0.00    +0.102 C 
ENDROOT
BRANCH   1   2
ATOM      2  N   UNL     1       0.007  -6.994   0.316  0.00  0.00    -0.297 NA
ATOM      3  C   UNL     1      -0.174  -7.007   1.774  0.00  0.00    +0.066 C 
ATOM      4  C   UNL     1      -1.572  -7.533   2.106  0.00  0.00    -0.066 C 
ATOM      5  N   UNL     1      -1.727  -8.889   1.564  0.00  0.00    +0.385 N 
ATOM      6  C   UNL     1      -1.567  -8.856   0.104  0.00  0.00    -0.023 C 
ATOM      7  C   UNL     1      -0.169  -8.341  -0.244  0.00  0.00    +0.074 C 
ATOM      8  H   UNL     1      -1.025  -9.493   1.965  0.00  0.00    -0.085 HD
ATOM      9  H   UNL     1      -2.644  -9.241   1.794  0.00  0.00    -0.085 HD
BRANCH   6  10
ATOM     10  C   UNL     1      -1.744 -10.245  -0.452  0.00  0.00    -0.019 A 
ATOM     11  C   UNL     1      -1.605 -11.344   0.374  0.00  0.00    +0.005 A 
ATOM     12  C   UNL     1      -1.767 -12.619  -0.135  0.00  0.00    +0.000 A 
ATOM     13  C   UNL     1      -2.068 -12.798  -1.473  0.00  0.00    +0.004 A 
ATOM     14  C   UNL     1      -2.208 -11.703  -2.303  0.00  0.00    +0.045 A 
ATOM     15  C   UNL     1      -2.051 -10.422  -1.793  0.00  0.00    +0.118 A 
BRANCH  15  16
ATOM     16  O   UNL     1      -2.194  -9.343  -2.607  0.00  0.00    -0.507 OA
ATOM     17  H   UNL     1      -1.374  -9.062  -3.035  0.00  0.00    +0.292 HD
ENDBRANCH  15  16
ENDBRANCH   6  10
ENDBRANCH   1   2
BRANCH   1  21
ATOM     18  C   UNL     1       1.246  -2.189   0.399  0.00  0.00    -0.014 A 
ATOM     19  C   UNL     1       2.356  -2.814  -0.167  0.00  0.00    +0.009 A 
ATOM     20  C   UNL     1       2.374  -4.186  -0.308  0.00  0.00    +0.006 A 
ATOM     21  C   UNL     1       1.294  -4.942   0.111  0.00  0.00    -0.029 A 
ATOM     22  C   UNL     1       0.189  -4.327   0.672  0.00  0.00    +0.006 A 
ATOM     23  C   UNL     1       0.162  -2.955   0.823  0.00  0.00    +0.009 A 
BRANCH  18  28
ATOM     24  C   UNL     1       0.102   1.389   0.256  0.00  0.00    +0.001 A 
ATOM     25  C   UNL     1       1.172   2.043   0.841  0.00  0.00    +0.004 A 
ATOM     26  C   UNL     1       2.268   1.327   1.284  0.00  0.00    +0.046 A 
ATOM     27  C   UNL     1       2.300  -0.051   1.144  0.00  0.00    +0.125 A 
ATOM     28  C   UNL     1       1.220  -0.714   0.553  0.00  0.00    +0.024 A 
ATOM     29  C   UNL     1       0.120   0.017   0.110  0.00  0.00    +0.012 A 
BRANCH  27  30
ATOM     30  O   UNL     1       3.377  -0.755   1.578  0.00  0.00    -0.506 OA
ATOM     31  H   UNL     1       3.311  -1.049   2.497  0.00  0.00    +0.292 HD
ENDBRANCH  27  30
ENDBRANCH  18  28
ENDBRANCH   1  21
BRANCH   1  32
ATOM     32  C   UNL     1       2.393  -7.031   0.870  0.00  0.00    +0.122 C 
BRANCH  32  33
ATOM     33  N   UNL     1       2.395  -8.494   0.742  0.00  0.00    -0.231 NA
ATOM     34 CL   UNL     1       3.583  -9.196   1.752  0.00  0.00    -0.024 Cl
ATOM     35  H   UNL     1       2.527  -8.773  -0.219  0.00  0.00    +0.141 HD
ENDBRANCH  32  33
ENDBRANCH   1  32
TORSDOF 8
