REMARK  Name = ZINC36161426
REMARK  3 active torsions:
REMARK  status: ('A' for Active; 'I' for Inactive)
REMARK    1  A    between atoms: C_1  and  C_2
REMARK    2  A    between atoms: C_6  and  C_19
REMARK    3  A    between atoms: C_8  and  N_11
REMARK                            x       y       z     vdW  Elec       q    Type
REMARK                         _______ _______ _______ _____ _____    ______ ____
ROOT
ATOM      1  C   UNL     1       0.022   1.583   0.009  0.00  0.00    +0.007 C 
ATOM      2  C   UNL     1      -0.017   0.054   0.037  0.00  0.00    -0.013 C 
ATOM      3  C   UNL     1       0.658  -0.497  -1.220  0.00  0.00    +0.004 C 
ATOM      4  C   UNL     1       2.113  -0.025  -1.267  0.00  0.00    +0.020 C 
ATOM      5  C   UNL     1       2.853  -0.532  -0.027  0.00  0.00    +0.109 C 
ATOM      6  C   UNL     1       2.178   0.019   1.231  0.00  0.00    +0.074 C 
ATOM      7  C   UNL     1       0.723  -0.453   1.277  0.00  0.00    +0.023 C 
ENDROOT
BRANCH   6   8
ATOM      8  N   UNL     1       2.888  -0.468   2.421  0.00  0.00    -0.295 NA
ATOM      9  C   UNL     1       2.216  -0.033   3.648  0.00  0.00    +0.107 C 
ATOM     10  C   UNL     1       2.689  -0.885   4.830  0.00  0.00    +0.181 C 
ATOM     11  S   UNL     1       4.477  -0.630   5.048  0.00  0.00    -0.029 S 
ATOM     12  O   UNL     1       4.977  -1.643   5.910  0.00  0.00    -0.174 OA
ATOM     13  O   UNL     1       4.703   0.734   5.377  0.00  0.00    -0.174 OA
ATOM     14  C   UNL     1       5.102  -0.938   3.368  0.00  0.00    +0.181 C 
ATOM     15  C   UNL     1       4.300  -0.079   2.385  0.00  0.00    +0.107 C 
ENDBRANCH   6   8
BRANCH   5  16
ATOM     16  C   UNL     1       2.815  -2.003  -0.000  0.00  0.00    +0.067 C 
ATOM     17  N   UNL     1       2.785  -3.139   0.020  0.00  0.00    -0.196 NA
ENDBRANCH   5  16
TORSDOF 2
