REMARK  Name = ZINC07760117
REMARK  8 active torsions:
REMARK  status: ('A' for Active; 'I' for Inactive)
REMARK    1  A    between atoms: C_1  and  C_2
REMARK    2  A    between atoms: C_2  and  C_25
REMARK    3  A    between atoms: C_5  and  S_8
REMARK    4  A    between atoms: S_8  and  C_9
REMARK    5  A    between atoms: C_9  and  C_10
REMARK    6  A    between atoms: C_14  and  C_21
REMARK    7  A    between atoms: C_21  and  O_23
REMARK    8  A    between atoms: O_23  and  C_24
REMARK                            x       y       z     vdW  Elec       q    Type
REMARK                         _______ _______ _______ _____ _____    ______ ____
ROOT
ATOM      1  C   UNL     1      -1.402   0.966   6.459  0.00  0.00    +0.121 A 
ATOM      2  N   UNL     1      -2.686   1.134   6.548  0.00  0.00    -0.233 NA
ATOM      3  C   UNL     1      -3.279   1.479   7.719  0.00  0.00    +0.079 A 
ATOM      4  C   UNL     1      -4.661   1.659   7.814  0.00  0.00    +0.043 A 
ATOM      5  C   UNL     1      -5.221   2.012   9.036  0.00  0.00    +0.061 A 
ATOM      6  C   UNL     1      -4.411   2.186  10.165  0.00  0.00    +0.016 A 
ATOM      7  C   UNL     1      -3.059   2.013  10.083  0.00  0.00    +0.016 A 
ATOM      8  C   UNL     1      -2.477   1.659   8.867  0.00  0.00    +0.065 A 
ATOM      9  C   UNL     1      -1.024   1.460   8.731  0.00  0.00    +0.259 A 
ATOM     10  O   UNL     1      -0.275   1.599   9.680  0.00  0.00    -0.267 OA
ATOM     11  N   UNL     1      -0.554   1.112   7.511  0.00  0.00    -0.310 N 
ATOM     12  H   UNL     1       0.397   0.969   7.384  0.00  0.00    +0.170 HD
ENDROOT
BRANCH   5  13
ATOM     13  C   UNL     1      -6.684   2.204   9.145  0.00  0.00    +0.339 C 
ATOM     14  O   UNL     1      -7.391   2.054   8.168  0.00  0.00    -0.245 OA
BRANCH  13  15
ATOM     15  O   UNL     1      -7.232   2.546  10.326  0.00  0.00    -0.464 OA
ATOM     16  C   UNL     1      -8.651   2.716  10.358  0.00  0.00    +0.280 C 
ENDBRANCH  13  15
ENDBRANCH   5  13
BRANCH   1  17
ATOM     17  C   UNL     1      -0.823   0.583   5.121  0.00  0.00    +0.151 C 
BRANCH  17  18
ATOM     18  S   UNL     1      -2.157   0.455   3.899  0.00  0.00    -0.085 S 
BRANCH  18  23
ATOM     19  C   UNL     1      -0.019   1.526   0.010  0.00  0.00    +0.014 C 
ATOM     20  C   UNL     1       0.002  -0.004   0.002  0.00  0.00    -0.002 C 
ATOM     21  C   UNL     1      -1.434  -0.540   0.039  0.00  0.00    +0.111 C 
ATOM     22  N   UNL     1      -2.052  -0.164   1.312  0.00  0.00    -0.325 N 
ATOM     23  C   UNL     1      -1.329   0.007   2.409  0.00  0.00    +0.128 C 
ATOM     24  N   UNL     1      -0.012  -0.142   2.439  0.00  0.00    -0.367 N 
ATOM     25  C   UNL     1       0.743  -0.517   1.242  0.00  0.00    +0.122 C 
ATOM     26  C   UNL     1       0.706  -0.503  -1.261  0.00  0.00    +0.014 C 
ATOM     27  H   UNL     1      -3.013  -0.037   1.352  0.00  0.00    +0.148 HD
ATOM     28  H   UNL     1       0.462   0.001   3.273  0.00  0.00    +0.161 HD
ENDBRANCH  18  23
ENDBRANCH  17  18
ENDBRANCH   1  17
TORSDOF 5
