REMARK  Name = ZINC43223128
REMARK  6 active torsions:
REMARK  status: ('A' for Active; 'I' for Inactive)
REMARK    1  A    between atoms: C_1  and  C_2
REMARK    2  A    between atoms: C_2  and  C_4
REMARK    3  A    between atoms: C_2  and  N_10
REMARK    4  A    between atoms: C_11  and  C_13
REMARK    5  A    between atoms: C_18  and  C_20
REMARK    6  A    between atoms: N_22  and  C_23
REMARK                            x       y       z     vdW  Elec       q    Type
REMARK                         _______ _______ _______ _____ _____    ______ ____
ROOT
ATOM      1  C   UNL     1       2.783  -1.099   2.395  0.00  0.00    +0.068 C 
ATOM      2  C   UNL     1       2.362  -2.549   2.715  0.00  0.00    -0.069 C 
ATOM      3  N   UNL     1       3.395  -3.392   2.060  0.00  0.00    +0.380 N 
ATOM      4  C   UNL     1       4.666  -2.662   2.298  0.00  0.00    -0.069 C 
ATOM      5  C   UNL     1       4.299  -1.171   2.121  0.00  0.00    +0.068 C 
ATOM      6  H   UNL     1       3.427  -4.306   2.487  0.00  0.00    -0.086 HD
ATOM      7  H   UNL     1       3.212  -3.470   1.071  0.00  0.00    -0.086 HD
ENDROOT
BRANCH   1   9
ATOM      8  N   UNL     1       0.711  -0.489   1.189  0.00  0.00    -0.309 N 
ATOM      9  C   UNL     1       2.054  -0.600   1.174  0.00  0.00    +0.215 C 
ATOM     10  O   UNL     1       2.676  -0.297   0.177  0.00  0.00    -0.276 OA
ATOM     11  H   UNL     1       0.213  -0.731   1.986  0.00  0.00    +0.149 HD
BRANCH   8  13
ATOM     12  C   UNL     1      -0.019   1.526   0.010  0.00  0.00    +0.033 C 
ATOM     13  C   UNL     1       0.002  -0.004   0.002  0.00  0.00    +0.100 C 
BRANCH  13  14
ATOM     14  C   UNL     1      -1.412  -0.526   0.013  0.00  0.00    -0.027 A 
ATOM     15  C   UNL     1      -2.123  -0.571   1.197  0.00  0.00    +0.005 A 
ATOM     16  C   UNL     1      -3.420  -1.049   1.207  0.00  0.00    +0.000 A 
ATOM     17  C   UNL     1      -4.006  -1.482   0.032  0.00  0.00    +0.000 A 
ATOM     18  C   UNL     1      -3.295  -1.436  -1.153  0.00  0.00    +0.000 A 
ATOM     19  C   UNL     1      -2.000  -0.954  -1.163  0.00  0.00    +0.005 A 
ENDBRANCH  13  14
ENDBRANCH   8  13
ENDBRANCH   1   9
BRANCH   5  20
ATOM     20  C   UNL     1       5.051  -0.323   3.115  0.00  0.00    +0.215 C 
ATOM     21  O   UNL     1       4.446   0.288   3.970  0.00  0.00    -0.276 OA
ATOM     22  N   UNL     1       6.395  -0.245   3.054  0.00  0.00    -0.308 N 
ATOM     23  H   UNL     1       6.878  -0.734   2.370  0.00  0.00    +0.149 HD
BRANCH  22  24
ATOM     24  C   UNL     1       7.125   0.579   4.021  0.00  0.00    +0.104 C 
ATOM     25  C   UNL     1       8.495   0.994   3.443  0.00  0.00    +0.032 C 
ATOM     26  C   UNL     1       9.426  -0.123   3.962  0.00  0.00    +0.037 C 
ATOM     27  C   UNL     1       8.768  -0.630   5.227  0.00  0.00    -0.042 A 
ATOM     28  C   UNL     1       7.444  -0.226   5.262  0.00  0.00    -0.024 A 
ATOM     29  C   UNL     1       6.642  -0.577   6.335  0.00  0.00    +0.006 A 
ATOM     30  C   UNL     1       7.158  -1.329   7.372  0.00  0.00    +0.000 A 
ATOM     31  C   UNL     1       8.479  -1.734   7.340  0.00  0.00    +0.000 A 
ATOM     32  C   UNL     1       9.286  -1.385   6.267  0.00  0.00    +0.004 A 
ENDBRANCH  22  24
ENDBRANCH   5  20
TORSDOF 5
