REMARK  Name = ZINC23358028
REMARK  8 active torsions:
REMARK  status: ('A' for Active; 'I' for Inactive)
REMARK    1  A    between atoms: C_9  and  O_30
REMARK    2  A    between atoms: C_10  and  C_11
REMARK    3  A    between atoms: C_11  and  N_12
REMARK    4  A    between atoms: N_15  and  C_22
REMARK    5  A    between atoms: C_16  and  C_19
REMARK    6  A    between atoms: C_19  and  C_20
REMARK    7  A    between atoms: C_20  and  O_21
REMARK    8  A    between atoms: C_22  and  C_23
REMARK                            x       y       z     vdW  Elec       q    Type
REMARK                         _______ _______ _______ _____ _____    ______ ____
ROOT
ATOM      1  N   UNL     1       5.269   0.491   1.377  0.00  0.00    -0.301 NA
ATOM      2  C   UNL     1       4.408   1.446   2.087  0.00  0.00    +0.066 C 
ATOM      3  C   UNL     1       4.874   1.566   3.540  0.00  0.00    -0.062 C 
ATOM      4  N   UNL     1       6.269   2.023   3.570  0.00  0.00    +0.386 N 
ATOM      5  C   UNL     1       7.121   1.046   2.878  0.00  0.00    -0.052 C 
ATOM      6  C   UNL     1       6.674   0.922   1.420  0.00  0.00    +0.069 C 
ATOM      7  H   UNL     1       6.341   2.917   3.109  0.00  0.00    -0.081 HD
ENDROOT
BRANCH   1   8
ATOM      8  C   UNL     1       4.819   0.305  -0.009  0.00  0.00    +0.123 C 
BRANCH   8  18
ATOM      9  C   UNL     1      -0.047   1.889   0.071  0.00  0.00    +0.001 A 
ATOM     10  C   UNL     1       1.192   2.526   0.076  0.00  0.00    +0.001 A 
ATOM     11  C   UNL     1       2.349   1.810   0.049  0.00  0.00    +0.009 A 
ATOM     12  C   UNL     1       2.297   0.406   0.016  0.00  0.00    -0.010 A 
ATOM     13  C   UNL     1       1.036  -0.243   0.011  0.00  0.00    -0.017 A 
ATOM     14  C   UNL     1      -0.136   0.531   0.040  0.00  0.00    +0.008 A 
ATOM     15  C   UNL     1       0.982  -1.647  -0.021  0.00  0.00    +0.012 A 
ATOM     16  C   UNL     1       2.136  -2.366  -0.048  0.00  0.00    +0.046 A 
ATOM     17  C   UNL     1       3.380  -1.729  -0.043  0.00  0.00    +0.122 A 
ATOM     18  C   UNL     1       3.469  -0.366  -0.013  0.00  0.00    +0.016 A 
BRANCH  17  19
ATOM     19  O   UNL     1       4.516  -2.475  -0.070  0.00  0.00    -0.506 OA
ATOM     20  H   UNL     1       4.837  -2.671  -0.961  0.00  0.00    +0.292 HD
ENDBRANCH  17  19
ENDBRANCH   8  18
ENDBRANCH   1   8
BRANCH   5  21
ATOM     21  C   UNL     1       8.577   1.514   2.927  0.00  0.00    +0.014 C 
BRANCH  21  22
ATOM     22  C   UNL     1       9.473   0.464   2.268  0.00  0.00    +0.154 C 
BRANCH  22  23
ATOM     23  O   UNL     1      10.842   0.841   2.423  0.00  0.00    -0.395 OA
ATOM     24  H   UNL     1      11.469   0.219   2.028  0.00  0.00    +0.209 HD
ENDBRANCH  22  23
ENDBRANCH  21  22
ENDBRANCH   5  21
BRANCH   4  25
ATOM     25  C   UNL     1       6.711   2.155   4.965  0.00  0.00    -0.043 C 
BRANCH  25  26
ATOM     26  C   UNL     1       5.919   3.245   5.641  0.00  0.00    -0.064 A 
ATOM     27  C   UNL     1       6.373   4.550   5.610  0.00  0.00    +0.004 A 
ATOM     28  C   UNL     1       5.648   5.550   6.229  0.00  0.00    +0.038 A 
ATOM     29  C   UNL     1       4.465   5.244   6.881  0.00  0.00    +0.123 A 
ATOM     30  C   UNL     1       4.011   3.937   6.911  0.00  0.00    +0.038 A 
ATOM     31  C   UNL     1       4.735   2.939   6.287  0.00  0.00    +0.004 A 
ATOM     32  F   UNL     1       3.755   6.221   7.487  0.00  0.00    -0.205 F 
ENDBRANCH  25  26
ENDBRANCH   4  25
TORSDOF 8
