REMARK  Name = ZINC61822984
REMARK  6 active torsions:
REMARK  status: ('A' for Active; 'I' for Inactive)
REMARK    1  A    between atoms: C_1  and  C_2
REMARK    2  A    between atoms: C_2  and  C_20
REMARK    3  A    between atoms: N_5  and  S_8
REMARK    4  A    between atoms: S_8  and  C_11
REMARK    5  A    between atoms: C_16  and  N_17
REMARK    6  A    between atoms: N_17  and  N_18
REMARK                            x       y       z     vdW  Elec       q    Type
REMARK                         _______ _______ _______ _____ _____    ______ ____
ROOT
ATOM      1  C   UNL     1      -0.713  -5.190   1.288  0.00  0.00    +0.147 A 
ATOM      2  C   UNL     1       0.060  -6.134   1.942  0.00  0.00    +0.048 A 
ATOM      3  C   UNL     1       0.014  -7.450   1.499  0.00  0.00    +0.038 A 
ATOM      4  C   UNL     1      -0.795  -7.775   0.427  0.00  0.00    +0.128 A 
ATOM      5  N   UNL     1      -1.521  -6.853  -0.177  0.00  0.00    -0.236 NA
ATOM      6  C   UNL     1      -1.509  -5.590   0.220  0.00  0.00    +0.159 A 
ATOM      7 BR   UNL     1       1.049  -8.782   2.353  0.00  0.00    -0.049 Br
ENDROOT
BRANCH   1   8
ATOM      8  S   UNL     1      -0.694  -3.506   1.807  0.00  0.00    +0.064 S 
ATOM      9  O   UNL     1       0.209  -3.429   2.902  0.00  0.00    -0.153 OA
ATOM     10  O   UNL     1      -2.051  -3.097   1.908  0.00  0.00    -0.153 OA
BRANCH   8  15
ATOM     11  C   UNL     1       1.425   1.121  -0.833  0.00  0.00    +0.011 C 
ATOM     12  C   UNL     1       1.026  -0.353  -0.744  0.00  0.00    -0.032 C 
ATOM     13  C   UNL     1      -0.473  -0.458  -0.455  0.00  0.00    +0.023 C 
ATOM     14  C   UNL     1      -0.877  -1.935  -0.401  0.00  0.00    +0.110 C 
ATOM     15  N   UNL     1      -0.024  -2.623   0.577  0.00  0.00    -0.176 NA
ATOM     16  C   UNL     1       1.435  -2.511   0.445  0.00  0.00    +0.110 C 
ATOM     17  C   UNL     1       1.813  -1.028   0.381  0.00  0.00    +0.023 C 
ATOM     18  C   UNL     1       1.338  -1.046  -2.072  0.00  0.00    +0.011 C 
ENDBRANCH   8  15
ENDBRANCH   1   8
BRANCH   6  19
ATOM     19  N   UNL     1      -2.295  -4.652  -0.442  0.00  0.00    -0.266 N 
ATOM     20  H   UNL     1      -2.374  -3.752  -0.090  0.00  0.00    +0.167 HD
BRANCH  19  21
ATOM     21  N   UNL     1      -2.954  -5.000  -1.586  0.00  0.00    -0.255 NA
ATOM     22  H   UNL     1      -3.551  -5.799  -1.432  0.00  0.00    +0.140 HD
ATOM     23  H   UNL     1      -3.481  -4.221  -1.951  0.00  0.00    +0.140 HD
ENDBRANCH  19  21
ENDBRANCH   6  19
TORSDOF 4
