REMARK  Name = ZINC44713562
REMARK  7 active torsions:
REMARK  status: ('A' for Active; 'I' for Inactive)
REMARK    1  A    between atoms: C_1  and  O_2
REMARK    2  A    between atoms: O_2  and  C_3
REMARK    3  A    between atoms: C_11  and  C_13
REMARK    4  A    between atoms: C_13  and  C_14
REMARK    5  A    between atoms: C_14  and  N_15
REMARK    6  A    between atoms: C_16  and  C_18
REMARK    7  A    between atoms: C_29  and  C_31
REMARK                            x       y       z     vdW  Elec       q    Type
REMARK                         _______ _______ _______ _____ _____    ______ ____
ROOT
ATOM      1  C   UNL     1       6.413  -7.676   6.413  0.00  0.00    +0.100 C 
ATOM      2  C   UNL     1       6.053  -8.945   5.609  0.00  0.00    +0.121 C 
ATOM      3  N   UNL     1       7.277  -9.256   4.833  0.00  0.00    -0.300 N 
ATOM      4  C   UNL     1       8.390  -8.969   5.770  0.00  0.00    +0.115 C 
ATOM      5  C   UNL     1       7.947  -7.697   6.520  0.00  0.00    -0.004 C 
ATOM      6  C   UNL     1       8.373  -7.770   7.983  0.00  0.00    -0.010 C 
ATOM      7  C   UNL     1       9.902  -7.731   8.067  0.00  0.00    -0.082 C 
ATOM      8  N   UNL     1      10.396  -6.492   7.454  0.00  0.00    +0.379 N 
ATOM      9  C   UNL     1      10.062  -6.473   6.024  0.00  0.00    -0.082 C 
ATOM     10  C   UNL     1       8.540  -6.459   5.854  0.00  0.00    -0.010 C 
ATOM     11  C   UNL     1       7.360  -9.700   3.564  0.00  0.00    +0.219 C 
ATOM     12  O   UNL     1       8.446  -9.911   3.065  0.00  0.00    -0.275 OA
ATOM     13  H   UNL     1       9.968  -5.699   7.908  0.00  0.00    -0.086 HD
ATOM     14  H   UNL     1      11.397  -6.440   7.564  0.00  0.00    -0.086 HD
ENDROOT
BRANCH  11  15
ATOM     15  C   UNL     1       6.105  -9.935   2.764  0.00  0.00    +0.079 C 
ATOM     16  C   UNL     1       6.473 -10.445   1.365  0.00  0.00    +0.017 C 
ATOM     17  C   UNL     1       5.198 -10.504   0.520  0.00  0.00    +0.027 C 
ATOM     18  C   UNL     1       4.114 -11.221   1.271  0.00  0.00    -0.031 C 
ATOM     19  C   UNL     1       4.132 -11.431   2.548  0.00  0.00    -0.030 C 
ATOM     20  C   UNL     1       5.243 -10.992   3.458  0.00  0.00    +0.039 C 
ENDBRANCH  11  15
BRANCH   1  22
ATOM     21  N   UNL     1       5.635  -5.328   6.366  0.00  0.00    -0.315 N 
ATOM     22  C   UNL     1       5.955  -6.442   5.678  0.00  0.00    +0.218 C 
ATOM     23  O   UNL     1       5.875  -6.452   4.468  0.00  0.00    -0.275 OA
ATOM     24  H   UNL     1       5.699  -5.320   7.334  0.00  0.00    +0.149 HD
BRANCH  21  25
ATOM     25  C   UNL     1       5.190  -4.129   5.652  0.00  0.00    +0.112 C 
BRANCH  25  26
ATOM     26  C   UNL     1       4.893  -3.016   6.659  0.00  0.00    +0.093 C 
BRANCH  26  35
ATOM     27  C   UNL     1       2.556   1.906   4.079  0.00  0.00    +0.122 A 
ATOM     28  C   UNL     1       3.728   1.844   3.331  0.00  0.00    +0.048 A 
ATOM     29  C   UNL     1       4.640   0.851   3.549  0.00  0.00    +0.033 A 
ATOM     30  C   UNL     1       4.400  -0.113   4.532  0.00  0.00    +0.089 A 
ATOM     31  C   UNL     1       3.218  -0.053   5.288  0.00  0.00    +0.070 A 
ATOM     32  C   UNL     1       2.302   0.965   5.060  0.00  0.00    +0.073 A 
ATOM     33  N   UNL     1       3.268  -1.121   6.161  0.00  0.00    -0.342 N 
ATOM     34  H   UNL     1       2.597  -1.358   6.820  0.00  0.00    +0.167 HD
ATOM     35  C   UNL     1       4.435  -1.783   5.924  0.00  0.00    +0.110 A 
ATOM     36  N   UNL     1       5.097  -1.194   4.972  0.00  0.00    -0.232 NA
BRANCH  27  38
ATOM     37  C   UNL     1       1.982   3.841   2.821  0.00  0.00    +0.277 C 
ATOM     38  O   UNL     1       1.659   2.901   3.848  0.00  0.00    -0.495 OA
ENDBRANCH  27  38
ENDBRANCH  26  35
ENDBRANCH  25  26
ENDBRANCH  21  25
ENDBRANCH   1  22
TORSDOF 6
