REMARK  Name = ZINC00139797
REMARK  5 active torsions:
REMARK  status: ('A' for Active; 'I' for Inactive)
REMARK    1  A    between atoms: C_1  and  C_2
REMARK    2  A    between atoms: C_3  and  N_15
REMARK    3  A    between atoms: C_4  and  C_7
REMARK    4  A    between atoms: N_18  and  C_19
REMARK    5  A    between atoms: N_18  and  N_20
REMARK                            x       y       z     vdW  Elec       q    Type
REMARK                         _______ _______ _______ _____ _____    ______ ____
ROOT
ATOM      1  C   UNL     1       0.033   1.193  -1.294  0.00  0.00    +0.091 C 
ATOM      2  C   UNL     1       0.018  -0.132  -0.577  0.00  0.00    +0.156 A 
ATOM      3  C   UNL     1      -1.085  -0.822  -0.216  0.00  0.00    +0.105 A 
ATOM      4  C   UNL     1      -0.631  -2.044   0.450  0.00  0.00    +0.138 A 
ATOM      5  N   UNL     1       0.681  -2.017   0.451  0.00  0.00    -0.076 NA
ATOM      6  O   UNL     1       1.100  -0.829  -0.194  0.00  0.00    -0.357 OA
ENDROOT
BRANCH   4   7
ATOM      7  C   UNL     1      -1.491  -3.110   1.018  0.00  0.00    +0.042 A 
ATOM      8  C   UNL     1      -1.318  -4.436   0.620  0.00  0.00    +0.052 A 
ATOM      9  C   UNL     1      -2.122  -5.425   1.152  0.00  0.00    +0.021 A 
ATOM     10  C   UNL     1      -3.098  -5.102   2.078  0.00  0.00    +0.003 A 
ATOM     11  C   UNL     1      -3.275  -3.790   2.476  0.00  0.00    +0.021 A 
ATOM     12  C   UNL     1      -2.473  -2.793   1.956  0.00  0.00    +0.052 A 
ATOM     13 CL   UNL     1      -2.692  -1.147   2.463  0.00  0.00    -0.083 Cl
ATOM     14 CL   UNL     1      -0.094  -4.842  -0.542  0.00  0.00    -0.083 Cl
ENDBRANCH   4   7
BRANCH   3  15
ATOM     15  N   UNL     1      -2.419  -0.439  -0.439  0.00  0.00    -0.264 N 
ATOM     16  C   UNL     1      -3.367  -1.378  -0.632  0.00  0.00    +0.320 C 
ATOM     17  O   UNL     1      -3.054  -2.550  -0.708  0.00  0.00    -0.251 OA
ATOM     18  N   UNL     1      -4.661  -1.017  -0.742  0.00  0.00    -0.226 N 
ATOM     19  C   UNL     1      -5.690  -2.038  -0.952  0.00  0.00    +0.154 C 
ATOM     20  H   UNL     1      -2.658   0.501  -0.453  0.00  0.00    +0.157 HD
BRANCH  18  21
ATOM     21  N   UNL     1      -5.012   0.300  -0.657  0.00  0.00    -0.251 NA
ATOM     22  H   UNL     1      -4.514   0.852  -1.339  0.00  0.00    +0.141 HD
ATOM     23  H   UNL     1      -6.009   0.416  -0.756  0.00  0.00    +0.141 HD
ENDBRANCH  18  21
ENDBRANCH   3  15
TORSDOF 3
