REMARK  Name = ZINC63272107
REMARK  12 active torsions:
REMARK  status: ('A' for Active; 'I' for Inactive)
REMARK    1  A    between atoms: C_1  and  C_2
REMARK    2  A    between atoms: C_4  and  C_35
REMARK    3  A    between atoms: N_6  and  C_28
REMARK    4  A    between atoms: C_7  and  N_20
REMARK    5  A    between atoms: C_9  and  C_11
REMARK    6  A    between atoms: C_21  and  C_23
REMARK    7  A    between atoms: C_28  and  C_29
REMARK    8  A    between atoms: C_29  and  C_30
REMARK    9  A    between atoms: C_30  and  O_31
REMARK   10  A    between atoms: O_31  and  C_32
REMARK   11  A    between atoms: C_32  and  C_33
REMARK   12  A    between atoms: C_32  and  C_34
REMARK                            x       y       z     vdW  Elec       q    Type
REMARK                         _______ _______ _______ _____ _____    ______ ____
ROOT
ATOM      1  C   UNL     1      -0.418   1.659   0.072  0.00  0.00    +0.009 C 
ATOM      2  C   UNL     1      -0.099   0.173   0.252  0.00  0.00    +0.013 C 
ATOM      3  C   UNL     1      -1.402  -0.651   0.318  0.00  0.00    +0.059 C 
ATOM      4  N   UNL     1      -1.125  -1.709   1.323  0.00  0.00    -0.281 NA
ATOM      5  C   UNL     1      -0.346  -1.014   2.380  0.00  0.00    +0.151 C 
ATOM      6  C   UNL     1       0.599  -0.065   1.607  0.00  0.00    +0.071 C 
ATOM      7  C   UNL     1      -1.710  -1.274  -1.046  0.00  0.00    +0.024 C 
ENDROOT
BRANCH   6   8
ATOM      8  C   UNL     1       0.760   1.256   2.361  0.00  0.00    +0.180 C 
ATOM      9  N   UNL     1       1.783   2.086   1.712  0.00  0.00    -0.363 N 
ATOM     10  C   UNL     1       2.730   2.288   2.581  0.00  0.00    +0.060 A 
ATOM     11  C   UNL     1       3.998   3.029   2.523  0.00  0.00    +0.027 A 
ATOM     12  C   UNL     1       4.798   3.066   3.607  0.00  0.00    +0.002 A 
ATOM     13  C   UNL     1       4.471   2.417   4.812  0.00  0.00    +0.002 A 
ATOM     14  C   UNL     1       3.335   1.711   4.972  0.00  0.00    +0.027 A 
ATOM     15  C   UNL     1       2.385   1.603   3.857  0.00  0.00    +0.060 A 
ATOM     16  N   UNL     1       1.237   1.002   3.726  0.00  0.00    -0.363 N 
ATOM     17  H   UNL     1       1.758   2.421   0.802  0.00  0.00    +0.162 HD
ATOM     18  H   UNL     1       0.781   0.483   4.406  0.00  0.00    +0.162 HD
ENDBRANCH   6   8
BRANCH   5  19
ATOM     19  N   UNL     1      -1.240  -0.250   3.254  0.00  0.00    -0.293 N 
ATOM     20  C   UNL     1      -1.500  -0.690   4.501  0.00  0.00    +0.281 C 
ATOM     21  O   UNL     1      -0.993  -1.721   4.901  0.00  0.00    -0.267 OA
ATOM     22  H   UNL     1      -1.644   0.572   2.935  0.00  0.00    +0.151 HD
BRANCH  20  23
ATOM     23  C   UNL     1      -2.395   0.075   5.377  0.00  0.00    +0.189 A 
ATOM     24  C   UNL     1      -2.737  -0.253   6.657  0.00  0.00    +0.054 A 
ATOM     25  C   UNL     1      -3.606   0.751   7.112  0.00  0.00    +0.042 A 
ATOM     26  C   UNL     1      -3.754   1.637   6.102  0.00  0.00    +0.196 A 
ATOM     27  O   UNL     1      -3.019   1.228   5.059  0.00  0.00    -0.458 OA
ENDBRANCH  20  23
ENDBRANCH   5  19
BRANCH   4  28
ATOM     28  C   UNL     1      -2.374  -2.260   1.866  0.00  0.00    +0.089 C 
BRANCH  28  29
ATOM     29  C   UNL     1      -2.081  -3.578   2.584  0.00  0.00    +0.043 C 
BRANCH  29  30
ATOM     30  C   UNL     1      -3.357  -4.087   3.258  0.00  0.00    +0.161 C 
BRANCH  30  31
ATOM     31  O   UNL     1      -3.083  -5.318   3.929  0.00  0.00    -0.377 OA
BRANCH  31  32
ATOM     32  C   UNL     1      -4.215  -5.881   4.595  0.00  0.00    +0.112 C 
ATOM     33  C   UNL     1      -4.088  -7.406   4.617  0.00  0.00    +0.037 C 
ATOM     34  C   UNL     1      -4.277  -5.354   6.030  0.00  0.00    +0.037 C 
ENDBRANCH  31  32
ENDBRANCH  30  31
ENDBRANCH  29  30
ENDBRANCH  28  29
ENDBRANCH   4  28
TORSDOF 8
