REMARK  Name = ZINC09282925
REMARK  10 active torsions:
REMARK  status: ('A' for Active; 'I' for Inactive)
REMARK    1  A    between atoms: C_1  and  C_2
REMARK    2  A    between atoms: C_9  and  N_14
REMARK    3  A    between atoms: C_10  and  C_11
REMARK    4  A    between atoms: C_15  and  C_17
REMARK    5  A    between atoms: C_17  and  O_18
REMARK    6  A    between atoms: O_18  and  C_19
REMARK    7  A    between atoms: C_19  and  C_21
REMARK    8  A    between atoms: C_24  and  N_30
REMARK    9  A    between atoms: C_25  and  N_27
REMARK   10  A    between atoms: N_30  and  C_31
REMARK                            x       y       z     vdW  Elec       q    Type
REMARK                         _______ _______ _______ _____ _____    ______ ____
ROOT
ATOM      1  N   UNL     1      -0.208   1.758  -0.155  0.00  0.00    -0.277 N 
ATOM      2  C   UNL     1       1.019   2.315  -0.135  0.00  0.00    +0.255 C 
ATOM      3  O   UNL     1       1.136   3.522  -0.125  0.00  0.00    -0.272 OA
ATOM      4  H   UNL     1      -0.302   0.792  -0.162  0.00  0.00    +0.155 HD
ENDROOT
BRANCH   1  12
ATOM      5  C   UNL     1      -6.307   6.653  -0.333  0.00  0.00    +0.008 C 
ATOM      6  C   UNL     1      -5.412   5.442  -0.607  0.00  0.00    -0.009 C 
ATOM      7  C   UNL     1      -5.898   4.244   0.214  0.00  0.00    +0.008 C 
ATOM      8  C   UNL     1      -5.172   2.976  -0.238  0.00  0.00    +0.037 C 
ATOM      9  C   UNL     1      -3.671   3.234  -0.209  0.00  0.00    -0.023 A 
ATOM     10  C   UNL     1      -3.181   4.493  -0.193  0.00  0.00    -0.004 A 
ATOM     11  S   UNL     1      -1.423   4.294  -0.154  0.00  0.00    -0.077 S 
ATOM     12  C   UNL     1      -1.336   2.564  -0.171  0.00  0.00    +0.084 A 
ATOM     13  C   UNL     1      -2.670   2.181  -0.197  0.00  0.00    +0.068 A 
ATOM     14  C   UNL     1      -3.968   5.768  -0.201  0.00  0.00    +0.046 C 
BRANCH  13  15
ATOM     15  C   UNL     1      -3.054   0.766  -0.212  0.00  0.00    +0.244 C 
ATOM     16  O   UNL     1      -3.232   0.173   0.835  0.00  0.00    -0.270 OA
ATOM     17  N   UNL     1      -3.210   0.122  -1.386  0.00  0.00    -0.325 N 
ATOM     18  H   UNL     1      -3.067   0.595  -2.221  0.00  0.00    +0.145 HD
ATOM     19  H   UNL     1      -3.464  -0.814  -1.396  0.00  0.00    +0.145 HD
ENDBRANCH  13  15
ENDBRANCH   1  12
BRANCH   2  20
ATOM     20  C   UNL     1       2.245   1.439  -0.124  0.00  0.00    +0.328 C 
BRANCH  20  21
ATOM     21  O   UNL     1       3.434   2.271  -0.102  0.00  0.00    -0.452 OA
BRANCH  21  22
ATOM     22  C   UNL     1       4.624   1.638  -0.091  0.00  0.00    +0.340 C 
ATOM     23  O   UNL     1       4.666   0.423  -0.098  0.00  0.00    -0.245 OA
BRANCH  22  24
ATOM     24  C   UNL     1       5.874   2.418  -0.069  0.00  0.00    +0.061 A 
ATOM     25  C   UNL     1       5.828   3.816  -0.066  0.00  0.00    +0.017 A 
ATOM     26  C   UNL     1       6.986   4.538  -0.040  0.00  0.00    +0.026 A 
ATOM     27  C   UNL     1       8.217   3.888  -0.028  0.00  0.00    +0.058 A 
ATOM     28  C   UNL     1       8.273   2.497  -0.036  0.00  0.00    +0.148 A 
ATOM     29  C   UNL     1       7.109   1.762  -0.056  0.00  0.00    +0.049 A 
BRANCH  28  30
ATOM     30  N   UNL     1       9.583   1.808  -0.022  0.00  0.00    +0.058 N 
ATOM     31  O   UNL     1       9.633   0.596   0.084  0.00  0.00    -0.126 OA
ATOM     32  O   UNL     1      10.612   2.454  -0.117  0.00  0.00    -0.126 OA
ENDBRANCH  28  30
BRANCH  27  33
ATOM     33  N   UNL     1       9.393   4.629  -0.006  0.00  0.00    -0.345 N 
ATOM     34  C   UNL     1       9.338   6.087   0.131  0.00  0.00    +0.125 C 
ATOM     35  H   UNL     1      10.250   4.181  -0.082  0.00  0.00    +0.146 HD
ENDBRANCH  27  33
ENDBRANCH  22  24
ENDBRANCH  21  22
ENDBRANCH  20  21
ENDBRANCH   2  20
TORSDOF 8
