REMARK  Name = ZINC14607359
REMARK  5 active torsions:
REMARK  status: ('A' for Active; 'I' for Inactive)
REMARK    1  A    between atoms: C_4  and  C_7
REMARK    2  A    between atoms: C_7  and  C_8
REMARK    3  A    between atoms: C_8  and  N_9
REMARK    4  A    between atoms: C_10  and  C_12
REMARK    5  A    between atoms: C_12  and  C_13
REMARK                            x       y       z     vdW  Elec       q    Type
REMARK                         _______ _______ _______ _____ _____    ______ ____
ROOT
ATOM      1  C   UNL     1       0.104  -4.691   4.028  0.00  0.00    +0.025 C 
ATOM      2  C   UNL     1       0.262  -6.184   4.015  0.00  0.00    +0.200 C 
ATOM      3  O   UNL     1       1.078  -6.672   3.262  0.00  0.00    -0.278 OA
ATOM      4  N   UNL     1      -0.456  -7.005   4.795  0.00  0.00    -0.315 N 
ATOM      5  C   UNL     1      -1.503  -6.509   5.677  0.00  0.00    +0.059 C 
ATOM      6  C   UNL     1      -1.542  -7.282   6.993  0.00  0.00    +0.020 C 
ATOM      7  C   UNL     1      -2.701  -6.754   7.844  0.00  0.00    +0.002 C 
ATOM      8  C   UNL     1      -2.511  -5.262   8.117  0.00  0.00    -0.001 C 
ATOM      9  C   UNL     1      -2.442  -4.492   6.795  0.00  0.00    -0.014 C 
ATOM     10  C   UNL     1      -1.272  -5.026   5.973  0.00  0.00    -0.050 C 
ATOM     11  H   UNL     1      -0.273  -7.957   4.770  0.00  0.00    +0.149 HD
ATOM     12  N   UNL     1      -1.149  -4.307   4.698  0.00  0.00    +0.390 N 
ATOM     13  H   UNL     1      -1.945  -4.544   4.094  0.00  0.00    -0.084 HD
ATOM     14  H   UNL     1      -1.145  -3.295   4.876  0.00  0.00    -0.084 HD
ENDROOT
BRANCH   1  15
ATOM     15  C   UNL     1       0.083  -4.173   2.589  0.00  0.00    +0.089 C 
BRANCH  15  17
ATOM     16  N   UNL     1       0.043  -1.987   1.434  0.00  0.00    -0.315 N 
ATOM     17  C   UNL     1       0.063  -2.667   2.597  0.00  0.00    +0.212 C 
ATOM     18  O   UNL     1       0.065  -2.066   3.651  0.00  0.00    -0.276 OA
ATOM     19  H   UNL     1       0.041  -2.467   0.591  0.00  0.00    +0.149 HD
BRANCH  16  20
ATOM     20  C   UNL     1       0.023  -0.522   1.442  0.00  0.00    +0.109 C 
BRANCH  20  21
ATOM     21  C   UNL     1       0.002  -0.004   0.002  0.00  0.00    +0.054 C 
BRANCH  21  25
ATOM     22  C   UNL     1      -0.056   4.267   0.025  0.00  0.00    +0.000 A 
ATOM     23  C   UNL     1       1.151   3.592   0.010  0.00  0.00    +0.000 A 
ATOM     24  C   UNL     1       1.169   2.210   0.003  0.00  0.00    +0.004 A 
ATOM     25  C   UNL     1      -0.018   1.503   0.010  0.00  0.00    -0.046 A 
ATOM     26  C   UNL     1      -1.225   2.178   0.020  0.00  0.00    +0.004 A 
ATOM     27  C   UNL     1      -1.244   3.560   0.032  0.00  0.00    +0.000 A 
ENDBRANCH  21  25
ENDBRANCH  20  21
ENDBRANCH  16  20
ENDBRANCH  15  17
ENDBRANCH   1  15
TORSDOF 5
