REMARK  Name = ZINC08863610
REMARK  8 active torsions:
REMARK  status: ('A' for Active; 'I' for Inactive)
REMARK    1  A    between atoms: C_1  and  O_2
REMARK    2  A    between atoms: O_2  and  C_3
REMARK    3  A    between atoms: C_9  and  C_13
REMARK    4  A    between atoms: C_13  and  C_15
REMARK    5  A    between atoms: C_13  and  O_29
REMARK    6  A    between atoms: C_24  and  C_27
REMARK    7  A    between atoms: O_29  and  C_30
REMARK    8  A    between atoms: C_30  and  C_32
REMARK                            x       y       z     vdW  Elec       q    Type
REMARK                         _______ _______ _______ _____ _____    ______ ____
ROOT
ATOM      1  C   UNL     1       0.743  -4.880  -1.254  0.00  0.00    +0.194 C 
ENDROOT
BRANCH   1   8
ATOM      2  C   UNL     1       0.678  -0.603  -1.120  0.00  0.00    +0.121 A 
ATOM      3  C   UNL     1       1.257   0.155  -2.143  0.00  0.00    +0.048 A 
ATOM      4  C   UNL     1       1.855  -0.445  -3.206  0.00  0.00    +0.032 A 
ATOM      5  C   UNL     1       1.896  -1.849  -3.286  0.00  0.00    +0.072 A 
ATOM      6  C   UNL     1       1.309  -2.617  -2.249  0.00  0.00    +0.010 A 
ATOM      7  C   UNL     1       0.704  -1.968  -1.161  0.00  0.00    +0.056 A 
ATOM      8  C   UNL     1       1.353  -4.021  -2.332  0.00  0.00    +0.002 A 
ATOM      9  C   UNL     1       1.963  -4.584  -3.417  0.00  0.00    +0.027 A 
ATOM     10  C   UNL     1       2.520  -3.771  -4.401  0.00  0.00    +0.112 A 
ATOM     11  N   UNL     1       2.478  -2.463  -4.320  0.00  0.00    -0.255 NA
BRANCH   2  13
ATOM     12  C   UNL     1       0.092   1.455  -0.083  0.00  0.00    +0.277 C 
ATOM     13  O   UNL     1       0.088   0.026  -0.070  0.00  0.00    -0.495 OA
ENDBRANCH   2  13
ENDBRANCH   1   8
BRANCH   1  14
ATOM     14  C   UNL     1       1.754  -5.071  -0.121  0.00  0.00    -0.023 C 
ATOM     15  C   UNL     1       2.679  -6.274  -0.336  0.00  0.00    -0.023 C 
ATOM     16  C   UNL     1       2.365  -6.611   1.118  0.00  0.00    -0.062 C 
ATOM     17  N   UNL     1       1.181  -5.720   1.056  0.00  0.00    +0.388 N 
ATOM     18  C   UNL     1       0.020  -6.607   0.838  0.00  0.00    -0.077 C 
ATOM     19  C   UNL     1       0.337  -7.802   1.783  0.00  0.00    -0.016 C 
ATOM     20  C   UNL     1       1.851  -8.000   1.553  0.00  0.00    -0.017 C 
ATOM     21  C   UNL     1       2.730  -7.916   2.794  0.00  0.00    +0.012 C 
ATOM     22  C   UNL     1       3.348  -6.612   2.278  0.00  0.00    -0.004 C 
ATOM     23  H   UNL     1       1.077  -5.111   1.854  0.00  0.00    -0.080 HD
BRANCH  21  24
ATOM     24  C   UNL     1       1.942  -7.734   4.065  0.00  0.00    -0.031 C 
ATOM     25  C   UNL     1       2.026  -8.626   5.021  0.00  0.00    +0.004 C 
ENDBRANCH  21  24
ENDBRANCH   1  14
BRANCH   1  26
ATOM     26  O   UNL     1       0.394  -6.153  -1.800  0.00  0.00    -0.458 OA
BRANCH  26  27
ATOM     27  C   UNL     1      -0.840  -6.279  -2.313  0.00  0.00    +0.314 C 
ATOM     28  O   UNL     1      -1.599  -5.338  -2.300  0.00  0.00    -0.250 OA
BRANCH  27  29
ATOM     29  C   UNL     1      -1.280  -7.592  -2.907  0.00  0.00    +0.069 C 
ATOM     30  C   UNL     1      -0.356  -7.961  -4.070  0.00  0.00    +0.021 C 
ATOM     31  C   UNL     1      -0.802  -9.294  -4.673  0.00  0.00    -0.009 C 
ATOM     32  C   UNL     1      -2.239  -9.168  -5.183  0.00  0.00    +0.007 C 
ATOM     33  C   UNL     1      -3.163  -8.800  -4.020  0.00  0.00    -0.009 C 
ATOM     34  C   UNL     1      -2.717  -7.466  -3.417  0.00  0.00    +0.021 C 
ATOM     35  C   UNL     1      -3.095  -9.891  -2.949  0.00  0.00    +0.007 C 
ATOM     36  C   UNL     1      -1.658 -10.017  -2.439  0.00  0.00    -0.009 C 
ATOM     37  C   UNL     1      -0.735 -10.386  -3.602  0.00  0.00    +0.007 C 
ATOM     38  C   UNL     1      -1.212  -8.683  -1.837  0.00  0.00    +0.021 C 
ENDBRANCH  27  29
ENDBRANCH  26  27
ENDBRANCH   1  26
TORSDOF 7
