REMARK  Name = ZINC19930515
REMARK  9 active torsions:
REMARK  status: ('A' for Active; 'I' for Inactive)
REMARK    1  A    between atoms: C_1  and  C_2
REMARK    2  A    between atoms: C_2  and  C_4
REMARK    3  A    between atoms: C_2  and  O_23
REMARK    4  A    between atoms: C_4  and  N_5
REMARK    5  A    between atoms: C_9  and  C_10
REMARK    6  A    between atoms: C_10  and  C_12
REMARK    7  A    between atoms: C_10  and  N_22
REMARK    8  A    between atoms: C_17  and  O_18
REMARK    9  A    between atoms: O_18  and  C_19
REMARK                            x       y       z     vdW  Elec       q    Type
REMARK                         _______ _______ _______ _____ _____    ______ ____
ROOT
ATOM      1  C   UNL     1       0.251  -0.351   2.509  0.00  0.00    +0.151 C 
ENDROOT
BRANCH   1   2
ATOM      2  C   UNL     1       1.577  -0.460   3.217  0.00  0.00    +0.038 A 
ATOM      3  C   UNL     1       2.035  -1.694   3.643  0.00  0.00    +0.050 A 
ATOM      4  C   UNL     1       3.253  -1.795   4.289  0.00  0.00    +0.022 A 
ATOM      5  C   UNL     1       4.012  -0.663   4.520  0.00  0.00    +0.025 A 
ATOM      6  C   UNL     1       3.557   0.573   4.101  0.00  0.00    +0.083 A 
ATOM      7  C   UNL     1       2.336   0.677   3.448  0.00  0.00    +0.145 A 
ATOM      8 CL   UNL     1       4.509   1.995   4.393  0.00  0.00    -0.080 Cl
ATOM      9 CL   UNL     1       1.082  -3.118   3.361  0.00  0.00    -0.083 Cl
BRANCH   7  10
ATOM     10  O   UNL     1       1.886   1.891   3.035  0.00  0.00    -0.493 OA
ATOM     11  C   UNL     1       1.085   2.634   3.957  0.00  0.00    +0.277 C 
ENDBRANCH   7  10
ENDBRANCH   1   2
BRANCH   1  16
ATOM     12  N   UNL     1       0.439  -0.260  -0.025  0.00  0.00    -0.332 N 
ATOM     13  C   UNL     1       0.528  -1.175  -1.040  0.00  0.00    +0.105 A 
ATOM     14  C   UNL     1       0.517  -2.394  -0.467  0.00  0.00    +0.102 A 
ATOM     15  N   UNL     1       0.413  -2.228   0.860  0.00  0.00    -0.348 N 
ATOM     16  C   UNL     1       0.366  -0.952   1.132  0.00  0.00    +0.109 A 
ATOM     17  H   UNL     1       0.382  -3.105   1.524  0.00  0.00    +0.166 HD
BRANCH  12  18
ATOM     18  C   UNL     1       0.420   1.197  -0.169  0.00  0.00    +0.154 C 
BRANCH  18  20
ATOM     19  C   UNL     1       1.797   3.276  -0.013  0.00  0.00    +0.039 C 
ATOM     20  C   UNL     1       1.836   1.747   0.013  0.00  0.00    +0.131 C 
BRANCH  20  21
ATOM     21  O   UNL     1       2.671   1.274  -1.046  0.00  0.00    -0.390 OA
ATOM     22  H   UNL     1       2.821   0.193  -1.187  0.00  0.00    +0.210 HD
ENDBRANCH  20  21
ENDBRANCH  18  20
ENDBRANCH  12  18
ENDBRANCH   1  16
BRANCH   1  23
ATOM     23  N   UNL     1      -0.774  -1.074   3.274  0.00  0.00    -0.317 NA
ATOM     24  H   UNL     1      -0.858  -0.635   4.279  0.00  0.00    +0.119 HD
ATOM     25  H   UNL     1      -1.742  -0.994   2.757  0.00  0.00    +0.119 HD
ENDBRANCH   1  23
TORSDOF 7
