REMARK  Name = ZINC12633669
REMARK  8 active torsions:
REMARK  status: ('A' for Active; 'I' for Inactive)
REMARK    1  A    between atoms: C_1  and  C_2
REMARK    2  A    between atoms: C_2  and  C_4
REMARK    3  A    between atoms: C_9  and  N_10
REMARK    4  A    between atoms: C_11  and  C_13
REMARK    5  A    between atoms: C_13  and  S_14
REMARK    6  A    between atoms: S_14  and  C_15
REMARK    7  A    between atoms: C_18  and  S_21
REMARK    8  A    between atoms: S_21  and  N_24
REMARK                            x       y       z     vdW  Elec       q    Type
REMARK                         _______ _______ _______ _____ _____    ______ ____
ROOT
ATOM      1  C   UNL     1      -0.018   1.080   0.008  0.00  0.00    +0.171 C 
ENDROOT
BRANCH   1   3
ATOM      2  N   UNL     1      -0.288   1.272  -2.443  0.00  0.00    -0.284 N 
ATOM      3  C   UNL     1      -0.739   1.589  -1.213  0.00  0.00    +0.227 C 
ATOM      4  O   UNL     1      -1.724   2.285  -1.089  0.00  0.00    -0.275 OA
ATOM      5  H   UNL     1       0.544   0.784  -2.544  0.00  0.00    +0.155 HD
BRANCH   2  11
ATOM      6  C   UNL     1      -0.369   1.819  -4.805  0.00  0.00    +0.042 A 
ATOM      7  C   UNL     1      -1.114   2.188  -5.935  0.00  0.00    +0.062 A 
ATOM      8  C   UNL     1      -2.473   2.390  -5.827  0.00  0.00    +0.167 A 
ATOM      9  C   UNL     1      -3.113   2.222  -4.595  0.00  0.00    +0.168 A 
ATOM     10  C   UNL     1      -2.385   1.851  -3.475  0.00  0.00    +0.073 A 
ATOM     11  C   UNL     1      -1.018   1.645  -3.570  0.00  0.00    +0.048 A 
ATOM     12  O   UNL     1      -4.442   2.479  -4.758  0.00  0.00    -0.453 OA
ATOM     13  C   UNL     1      -4.678   2.405  -6.177  0.00  0.00    +0.466 C 
ATOM     14  O   UNL     1      -3.407   2.753  -6.756  0.00  0.00    -0.453 OA
BRANCH   6  16
ATOM     15  C   UNL     1       1.785   1.899  -6.211  0.00  0.00    +0.091 C 
ATOM     16  C   UNL     1       1.077   1.610  -4.913  0.00  0.00    +0.162 C 
ATOM     17  O   UNL     1       1.704   1.204  -3.957  0.00  0.00    -0.292 OA
ENDBRANCH   6  16
ENDBRANCH   2  11
ENDBRANCH   1   3
BRANCH   1  18
ATOM     18  S   UNL     1      -0.861   1.674   1.500  0.00  0.00    -0.097 S 
BRANCH  18  19
ATOM     19  C   UNL     1       0.090   1.002   2.823  0.00  0.00    +0.097 A 
ATOM     20  C   UNL     1      -0.276   1.267   4.140  0.00  0.00    +0.037 A 
ATOM     21  C   UNL     1       0.476   0.730   5.168  0.00  0.00    +0.032 A 
ATOM     22  C   UNL     1       1.580  -0.049   4.845  0.00  0.00    +0.124 A 
ATOM     23  C   UNL     1       1.889  -0.267   3.517  0.00  0.00    +0.140 A 
ATOM     24  N   UNL     1       1.150   0.254   2.556  0.00  0.00    -0.247 NA
BRANCH  22  25
ATOM     25  S   UNL     1       2.576  -0.752   6.117  0.00  0.00    +0.062 S 
ATOM     26  O   UNL     1       1.754  -0.846   7.272  0.00  0.00    -0.153 OA
ATOM     27  O   UNL     1       3.223  -1.882   5.548  0.00  0.00    -0.153 OA
BRANCH  25  28
ATOM     28  N   UNL     1       3.765   0.346   6.470  0.00  0.00    -0.177 NA
ATOM     29  C   UNL     1       5.013   0.273   5.744  0.00  0.00    +0.109 C 
ATOM     30  C   UNL     1       5.992  -0.670   6.474  0.00  0.00    +0.017 C 
ATOM     31  C   UNL     1       6.469  -0.047   7.718  0.00  0.00    +0.001 C 
ATOM     32  C   UNL     1       5.374   0.231   8.743  0.00  0.00    +0.001 C 
ATOM     33  C   UNL     1       4.726   1.559   8.436  0.00  0.00    +0.017 C 
ATOM     34  C   UNL     1       3.509   1.354   7.518  0.00  0.00    +0.109 C 
ENDBRANCH  25  28
ENDBRANCH  22  25
ENDBRANCH  18  19
ENDBRANCH   1  18
TORSDOF 7
