REMARK  Name = ZINC67297970
REMARK  6 active torsions:
REMARK  status: ('A' for Active; 'I' for Inactive)
REMARK    1  A    between atoms: C_1  and  C_2
REMARK    2  A    between atoms: C_6  and  N_8
REMARK    3  A    between atoms: C_9  and  C_11
REMARK    4  A    between atoms: C_16  and  O_32
REMARK    5  A    between atoms: N_21  and  C_22
REMARK    6  A    between atoms: C_25  and  C_28
REMARK                            x       y       z     vdW  Elec       q    Type
REMARK                         _______ _______ _______ _____ _____    ______ ____
ROOT
ATOM      1  C   UNL     1      -0.178  -4.645   3.752  0.00  0.00    +0.098 A 
ATOM      2  C   UNL     1      -0.148  -6.031   3.821  0.00  0.00    +0.030 A 
ATOM      3  C   UNL     1      -0.223  -6.639   5.099  0.00  0.00    +0.018 A 
ATOM      4  C   UNL     1       0.004  -8.017   5.244  0.00  0.00    +0.015 A 
ATOM      5  C   UNL     1      -0.029  -8.584   6.484  0.00  0.00    +0.046 A 
ATOM      6  C   UNL     1      -0.295  -7.807   7.610  0.00  0.00    +0.120 A 
ATOM      7  C   UNL     1      -0.541  -6.448   7.485  0.00  0.00    +0.092 A 
ATOM      8  C   UNL     1      -0.518  -5.857   6.233  0.00  0.00    +0.141 A 
ATOM      9  O   UNL     1      -0.800  -4.538   6.094  0.00  0.00    -0.438 OA
ATOM     10  C   UNL     1      -0.246  -3.903   5.026  0.00  0.00    +0.212 A 
ATOM     11  N   UNL     1       0.208  -2.672   5.123  0.00  0.00    -0.325 N 
ATOM     12  H   UNL     1       0.693  -2.275   4.382  0.00  0.00    +0.169 HD
ENDROOT
BRANCH  11  13
ATOM     13  C   UNL     1      -0.003  -1.953   6.266  0.00  0.00    +0.042 A 
ATOM     14  C   UNL     1      -1.260  -1.956   6.875  0.00  0.00    +0.026 A 
ATOM     15  C   UNL     1      -1.466  -1.228   8.028  0.00  0.00    +0.014 A 
ATOM     16  C   UNL     1      -0.430  -0.496   8.583  0.00  0.00    +0.055 A 
ATOM     17  C   UNL     1       0.818  -0.489   7.985  0.00  0.00    +0.014 A 
ATOM     18  C   UNL     1       1.040  -1.217   6.835  0.00  0.00    +0.026 A 
BRANCH  16  19
ATOM     19  C   UNL     1      -0.663   0.297   9.843  0.00  0.00    +0.417 C 
ATOM     20  F   UNL     1      -0.383  -0.503  10.956  0.00  0.00    -0.166 F 
ATOM     21  F   UNL     1       0.176   1.416   9.851  0.00  0.00    -0.166 F 
ATOM     22  F   UNL     1      -1.998   0.713   9.892  0.00  0.00    -0.166 F 
ENDBRANCH  16  19
ENDBRANCH  11  13
BRANCH   1  24
ATOM     23  N   UNL     1      -0.310  -2.607   2.413  0.00  0.00    -0.266 N 
ATOM     24  C   UNL     1      -0.138  -3.943   2.460  0.00  0.00    +0.254 C 
ATOM     25  O   UNL     1       0.052  -4.568   1.433  0.00  0.00    -0.270 OA
ATOM     26  H   UNL     1      -0.413  -2.102   3.235  0.00  0.00    +0.157 HD
BRANCH  23  32
ATOM     27  C   UNL     1      -1.583   1.267  -0.099  0.00  0.00    +0.065 C 
ATOM     28  C   UNL     1      -0.943  -0.096  -0.049  0.00  0.00    +0.040 A 
ATOM     29  C   UNL     1      -0.415  -0.643  -1.202  0.00  0.00    +0.023 A 
ATOM     30  C   UNL     1       0.174  -1.899  -1.151  0.00  0.00    +0.005 A 
ATOM     31  C   UNL     1       0.211  -2.562   0.064  0.00  0.00    +0.044 A 
ATOM     32  C   UNL     1      -0.340  -1.951   1.184  0.00  0.00    +0.125 A 
ATOM     33  N   UNL     1      -0.888  -0.749   1.096  0.00  0.00    -0.237 NA
ENDBRANCH  23  32
ENDBRANCH   1  24
BRANCH   6  34
ATOM     34  O   UNL     1      -0.314  -8.385   8.838  0.00  0.00    -0.507 OA
ATOM     35  H   UNL     1       0.544  -8.388   9.284  0.00  0.00    +0.292 HD
ENDBRANCH   6  34
TORSDOF 5
