REMARK  Name = ZINC57846375
REMARK  11 active torsions:
REMARK  status: ('A' for Active; 'I' for Inactive)
REMARK    1  A    between atoms: C_1  and  C_2
REMARK    2  A    between atoms: C_2  and  C_3
REMARK    3  A    between atoms: C_3  and  C_5
REMARK    4  A    between atoms: C_3  and  N_24
REMARK    5  A    between atoms: C_5  and  N_6
REMARK    6  A    between atoms: C_9  and  C_13
REMARK    7  A    between atoms: C_9  and  C_14
REMARK    8  A    between atoms: C_17  and  O_20
REMARK    9  A    between atoms: O_20  and  C_21
REMARK   10  A    between atoms: C_21  and  C_22
REMARK   11  A    between atoms: C_21  and  C_23
REMARK                            x       y       z     vdW  Elec       q    Type
REMARK                         _______ _______ _______ _____ _____    ______ ____
ROOT
ATOM      1  N   UNL     1       1.377  -1.884  -3.496  0.00  0.00    -0.226 N 
ATOM      2  C   UNL     1       0.940  -2.248  -4.718  0.00  0.00    +0.251 C 
ATOM      3  O   UNL     1      -0.169  -2.077  -5.179  0.00  0.00    -0.272 OA
ATOM      4  C   UNL     1       2.121  -2.914  -5.395  0.00  0.00    +0.135 C 
ATOM      5  N   UNL     1       3.187  -2.841  -4.381  0.00  0.00    -0.281 N 
ATOM      6  C   UNL     1       2.659  -2.220  -3.311  0.00  0.00    +0.310 C 
ATOM      7  O   UNL     1       3.276  -1.992  -2.289  0.00  0.00    -0.252 OA
ATOM      8  C   UNL     1       2.523  -2.145  -6.655  0.00  0.00    +0.047 C 
ATOM      9  H   UNL     1       4.094  -3.174  -4.469  0.00  0.00    +0.152 HD
ENDROOT
BRANCH   4  10
ATOM     10  C   UNL     1       1.802  -4.349  -5.727  0.00  0.00    -0.015 A 
ATOM     11  C   UNL     1       0.500  -4.719  -6.010  0.00  0.00    +0.010 A 
ATOM     12  C   UNL     1       0.205  -6.034  -6.314  0.00  0.00    +0.046 A 
ATOM     13  C   UNL     1       1.216  -6.983  -6.336  0.00  0.00    +0.121 A 
ATOM     14  C   UNL     1       2.522  -6.609  -6.052  0.00  0.00    +0.046 A 
ATOM     15  C   UNL     1       2.812  -5.292  -5.754  0.00  0.00    +0.010 A 
BRANCH  13  16
ATOM     16  O   UNL     1       0.928  -8.277  -6.634  0.00  0.00    -0.489 OA
BRANCH  16  17
ATOM     17  C   UNL     1      -0.451  -8.614  -6.799  0.00  0.00    +0.167 C 
ATOM     18  C   UNL     1      -0.882  -8.309  -8.235  0.00  0.00    +0.051 C 
ATOM     19  C   UNL     1      -0.650 -10.103  -6.512  0.00  0.00    +0.051 C 
ENDBRANCH  16  17
ENDBRANCH  13  16
ENDBRANCH   4  10
BRANCH   1  20
ATOM     20  C   UNL     1       0.553  -1.200  -2.497  0.00  0.00    +0.102 C 
BRANCH  20  21
ATOM     21  C   UNL     1       0.678   0.314  -2.682  0.00  0.00    -0.057 C 
BRANCH  21  22
ATOM     22  N   UNL     1       2.095   0.698  -2.635  0.00  0.00    +0.381 N 
ATOM     23  H   UNL     1       2.596   0.226  -3.373  0.00  0.00    -0.090 HD
ATOM     24  H   UNL     1       2.177   1.696  -2.758  0.00  0.00    -0.090 HD
ATOM     25  H   UNL     1       2.485   0.435  -1.743  0.00  0.00    -0.090 HD
ENDBRANCH  21  22
BRANCH  21  27
ATOM     26  C   UNL     1      -0.063   2.538  -1.817  0.00  0.00    +0.002 C 
ATOM     27  C   UNL     1      -0.082   1.029  -1.563  0.00  0.00    -0.018 C 
ENDBRANCH  21  27
ENDBRANCH  20  21
ENDBRANCH   1  20
TORSDOF 7
