REMARK  Name = ZINC14952740
REMARK  17 active torsions:
REMARK  status: ('A' for Active; 'I' for Inactive)
REMARK    1  A    between atoms: C_1  and  C_2
REMARK    2  A    between atoms: C_4  and  C_7
REMARK    3  A    between atoms: C_7  and  N_56
REMARK    4  A    between atoms: C_8  and  C_9
REMARK    5  A    between atoms: C_8  and  N_56
REMARK    6  A    between atoms: C_12  and  O_25
REMARK    7  A    between atoms: C_13  and  O_15
REMARK    8  A    between atoms: O_15  and  C_16
REMARK    9  A    between atoms: C_16  and  C_17
REMARK   10  A    between atoms: C_17  and  C_19
REMARK   11  A    between atoms: C_17  and  O_24
REMARK   12  A    between atoms: C_19  and  N_59
REMARK   13  A    between atoms: C_20  and  N_59
REMARK   14  A    between atoms: C_21  and  C_22
REMARK   15  A    between atoms: C_21  and  C_23
REMARK   16  A    between atoms: C_21  and  N_59
REMARK   17  A    between atoms: O_25  and  C_26
REMARK                            x       y       z     vdW  Elec       q    Type
REMARK                         _______ _______ _______ _____ _____    ______ ____
ROOT
ATOM      1  C   UNL     1       1.171   2.089   0.002  0.00  0.00    -0.061 A 
ATOM      2  C   UNL     1       2.379   1.417  -0.013  0.00  0.00    +0.005 A 
ATOM      3  C   UNL     1       2.405   0.035  -0.021  0.00  0.00    +0.049 A 
ATOM      4  C   UNL     1       1.218  -0.680  -0.013  0.00  0.00    +0.162 A 
ATOM      5  C   UNL     1       0.002  -0.004   0.002  0.00  0.00    +0.162 A 
ATOM      6  C   UNL     1      -0.017   1.381   0.010  0.00  0.00    +0.051 A 
ENDROOT
BRANCH   4   7
ATOM      7  O   UNL     1       1.242  -2.040  -0.021  0.00  0.00    -0.491 OA
ATOM      8  C   UNL     1       2.526  -2.666  -0.037  0.00  0.00    +0.277 C 
ENDBRANCH   4   7
BRANCH   1   9
ATOM      9  C   UNL     1       1.149   3.596   0.010  0.00  0.00    -0.046 C 
BRANCH   9  10
ATOM     10  N   UNL     1       1.155   4.072   1.407  0.00  0.00    +0.385 N 
ATOM     11  H   UNL     1       0.326   3.708   1.892  0.00  0.00    -0.085 HD
ATOM     12  H   UNL     1       2.003   3.733   1.876  0.00  0.00    -0.085 HD
BRANCH  10  13
ATOM     13  C   UNL     1       1.133   5.546   1.445  0.00  0.00    -0.025 C 
BRANCH  13  17
ATOM     14  C   UNL     1      -1.163   6.659   5.748  0.00  0.00    +0.073 C 
ATOM     15  C   UNL     1       0.010   6.492   4.816  0.00  0.00    +0.075 A 
ATOM     16  N   UNL     1       0.018   6.101   3.563  0.00  0.00    -0.251 NA
ATOM     17  C   UNL     1       1.140   6.002   2.881  0.00  0.00    +0.032 A 
ATOM     18  C   UNL     1       2.303   6.327   3.502  0.00  0.00    +0.068 A 
ATOM     19  S   UNL     1       1.696   6.774   5.122  0.00  0.00    -0.081 S 
ENDBRANCH  13  17
ENDBRANCH  10  13
ENDBRANCH   9  10
ENDBRANCH   1   9
BRANCH   5  20
ATOM     20  O   UNL     1      -1.165  -0.702   0.010  0.00  0.00    -0.486 OA
BRANCH  20  21
ATOM     21  C   UNL     1      -2.375   0.059   0.026  0.00  0.00    +0.258 C 
BRANCH  21  22
ATOM     22  C   UNL     1      -3.575  -0.891   0.033  0.00  0.00    +0.135 C 
BRANCH  22  23
ATOM     23  O   UNL     1      -3.582  -1.640   1.250  0.00  0.00    -0.390 OA
ATOM     24  H   UNL     1      -3.645  -1.095   2.046  0.00  0.00    +0.210 HD
ENDBRANCH  22  23
BRANCH  22  25
ATOM     25  C   UNL     1      -4.868  -0.081  -0.076  0.00  0.00    -0.044 C 
BRANCH  25  27
ATOM     26  C   UNL     1      -6.032  -1.834  -1.274  0.00  0.00    -0.096 C 
ATOM     27  N   UNL     1      -6.017  -1.010  -0.046  0.00  0.00    +0.381 N 
ATOM     28  H   UNL     1      -5.925  -1.628   0.769  0.00  0.00    -0.082 HD
BRANCH  27  29
ATOM     29  C   UNL     1      -7.279  -0.249   0.067  0.00  0.00    -0.075 C 
ATOM     30  C   UNL     1      -7.551   0.533  -1.220  0.00  0.00    -0.014 C 
ATOM     31  C   UNL     1      -8.425  -1.230   0.320  0.00  0.00    -0.014 C 
ENDBRANCH  27  29
ENDBRANCH  25  27
ENDBRANCH  22  25
ENDBRANCH  21  22
ENDBRANCH  20  21
ENDBRANCH   5  20
TORSDOF 12
