REMARK  Name = ZINC12886609
REMARK  9 active torsions:
REMARK  status: ('A' for Active; 'I' for Inactive)
REMARK    1  A    between atoms: C_1  and  O_2
REMARK    2  A    between atoms: O_2  and  C_3
REMARK    3  A    between atoms: C_5  and  N_13
REMARK    4  A    between atoms: C_7  and  O_11
REMARK    5  A    between atoms: C_8  and  O_9
REMARK    6  A    between atoms: O_9  and  C_10
REMARK    7  A    between atoms: O_11  and  C_12
REMARK    8  A    between atoms: C_16  and  C_23
REMARK    9  A    between atoms: C_17  and  O_22
REMARK                            x       y       z     vdW  Elec       q    Type
REMARK                         _______ _______ _______ _____ _____    ______ ____
ROOT
ATOM      1  N   UNL     1       2.361   4.170   0.002  0.00  0.00    -0.229 N 
ATOM      2  C   UNL     1       2.339   5.514  -0.092  0.00  0.00    +0.267 A 
ATOM      3  O   UNL     1       1.277   6.107  -0.172  0.00  0.00    -0.267 OA
ATOM      4  C   UNL     1       3.550   6.229  -0.099  0.00  0.00    +0.069 A 
ATOM      5  C   UNL     1       4.725   5.542  -0.009  0.00  0.00    +0.201 A 
ATOM      6  N   UNL     1       4.702   4.174   0.085  0.00  0.00    -0.278 N 
ATOM      7  H   UNL     1       5.535   3.681   0.149  0.00  0.00    +0.173 HD
ATOM      8  C   UNL     1       3.531   3.511   0.096  0.00  0.00    +0.336 A 
ATOM      9  O   UNL     1       3.529   2.299   0.185  0.00  0.00    -0.246 OA
ENDROOT
BRANCH   4  10
ATOM     10  C   UNL     1       3.550   7.732  -0.203  0.00  0.00    +0.018 C 
ATOM     11  C   UNL     1       2.985   8.148  -1.541  0.00  0.00    +0.011 A 
ATOM     12  C   UNL     1       2.100   9.160  -1.685  0.00  0.00    -0.022 A 
ATOM     13  C   UNL     1       1.790   9.261  -3.094  0.00  0.00    +0.003 A 
ATOM     14  C   UNL     1       0.952  10.107  -3.825  0.00  0.00    +0.010 A 
ATOM     15  C   UNL     1       0.905   9.913  -5.184  0.00  0.00    +0.001 A 
ATOM     16  C   UNL     1       1.649   8.928  -5.813  0.00  0.00    +0.002 A 
ATOM     17  C   UNL     1       2.485   8.076  -5.114  0.00  0.00    +0.026 A 
ATOM     18  C   UNL     1       2.554   8.249  -3.733  0.00  0.00    +0.047 A 
ATOM     19  N   UNL     1       3.261   7.598  -2.763  0.00  0.00    -0.359 N 
ATOM     20  H   UNL     1       3.869   6.858  -2.918  0.00  0.00    +0.166 HD
ATOM     21  C   UNL     1       1.585   9.985  -0.532  0.00  0.00    +0.018 C 
ATOM     22  C   UNL     1       2.507   9.745   0.671  0.00  0.00    -0.076 C 
ATOM     23  N   UNL     1       2.702   8.294   0.871  0.00  0.00    +0.388 N 
ATOM     24  H   UNL     1       3.157   8.136   1.778  0.00  0.00    -0.084 HD
ATOM     25  H   UNL     1       1.788   7.826   0.860  0.00  0.00    -0.084 HD
ENDBRANCH   4  10
BRANCH   1  28
ATOM     26  C   UNL     1      -0.587   2.303  -1.179  0.00  0.00    +0.167 A 
ATOM     27  C   UNL     1       0.604   3.012  -1.185  0.00  0.00    +0.076 A 
ATOM     28  C   UNL     1       1.156   3.453   0.010  0.00  0.00    +0.062 A 
ATOM     29  C   UNL     1       0.516   3.184   1.212  0.00  0.00    +0.076 A 
ATOM     30  C   UNL     1      -0.675   2.476   1.220  0.00  0.00    +0.167 A 
ATOM     31  C   UNL     1      -1.232   2.039   0.023  0.00  0.00    +0.204 A 
BRANCH  26  33
ATOM     32  C   UNL     1      -0.414   2.184  -3.548  0.00  0.00    +0.277 C 
ATOM     33  O   UNL     1      -1.127   1.871  -2.350  0.00  0.00    -0.491 OA
ENDBRANCH  26  33
BRANCH  31  34
ATOM     34  O   UNL     1      -2.405   1.348   0.030  0.00  0.00    -0.488 OA
ATOM     35  C   UNL     1      -2.319  -0.075   0.138  0.00  0.00    +0.277 C 
ENDBRANCH  31  34
BRANCH  30  36
ATOM     36  O   UNL     1      -1.302   2.213   2.398  0.00  0.00    -0.491 OA
ATOM     37  C   UNL     1      -0.677   2.698   3.588  0.00  0.00    +0.277 C 
ENDBRANCH  30  36
ENDBRANCH   1  28
BRANCH   5  38
ATOM     38  O   UNL     1       5.901   6.204  -0.014  0.00  0.00    -0.493 OA
ATOM     39  H   UNL     1       6.676   5.630   0.053  0.00  0.00    +0.294 HD
ENDBRANCH   5  38
TORSDOF 6
