REMARK  Name = ZINC63375933
REMARK  5 active torsions:
REMARK  status: ('A' for Active; 'I' for Inactive)
REMARK    1  A    between atoms: C_2  and  C_3
REMARK    2  A    between atoms: C_3  and  N_4
REMARK    3  A    between atoms: C_5  and  C_7
REMARK    4  A    between atoms: C_12  and  N_13
REMARK    5  A    between atoms: C_29  and  C_34
REMARK                            x       y       z     vdW  Elec       q    Type
REMARK                         _______ _______ _______ _____ _____    ______ ____
ROOT
ATOM      1  N   UNL     1       5.065  -3.536   1.706  0.00  0.00    -0.192 N 
ATOM      2  C   UNL     1       6.123  -2.704   1.616  0.00  0.00    +0.248 C 
ATOM      3  O   UNL     1       6.368  -1.752   2.326  0.00  0.00    -0.273 OA
ATOM      4  C   UNL     1       6.940  -3.206   0.446  0.00  0.00    +0.169 C 
ATOM      5  C   UNL     1       7.080  -2.097  -0.612  0.00  0.00    +0.065 C 
ATOM      6  C   UNL     1       7.349  -2.794  -1.925  0.00  0.00    -0.034 C 
ATOM      7  C   UNL     1       8.331  -2.633  -2.805  0.00  0.00    -0.001 A 
ATOM      8  C   UNL     1       9.440  -1.667  -2.868  0.00  0.00    +0.010 A 
ATOM      9  C   UNL     1      10.293  -1.801  -3.918  0.00  0.00    +0.001 A 
ATOM     10  C   UNL     1      10.154  -2.787  -4.901  0.00  0.00    +0.002 A 
ATOM     11  C   UNL     1       9.160  -3.710  -4.926  0.00  0.00    +0.026 A 
ATOM     12  C   UNL     1       8.197  -3.666  -3.877  0.00  0.00    +0.043 A 
ATOM     13  N   UNL     1       7.147  -4.404  -3.667  0.00  0.00    -0.375 N 
ATOM     14  C   UNL     1       6.459  -3.900  -2.477  0.00  0.00    +0.131 C 
ATOM     15  C   UNL     1       6.357  -4.977  -1.387  0.00  0.00    +0.135 C 
ATOM     16  N   UNL     1       6.107  -4.293  -0.107  0.00  0.00    -0.264 N 
ATOM     17  C   UNL     1       5.082  -4.463   0.738  0.00  0.00    +0.317 C 
ATOM     18  O   UNL     1       4.260  -5.353   0.636  0.00  0.00    -0.252 OA
ATOM     19  H   UNL     1       6.868  -5.159  -4.207  0.00  0.00    +0.160 HD
ENDROOT
BRANCH  15  20
ATOM     20  C   UNL     1       7.651  -5.744  -1.298  0.00  0.00    -0.023 A 
ATOM     21  C   UNL     1       8.799  -5.114  -0.853  0.00  0.00    +0.005 A 
ATOM     22  C   UNL     1       9.986  -5.817  -0.772  0.00  0.00    +0.002 A 
ATOM     23  C   UNL     1      10.026  -7.151  -1.135  0.00  0.00    +0.020 A 
ATOM     24  C   UNL     1       8.878  -7.781  -1.579  0.00  0.00    +0.041 A 
ATOM     25  C   UNL     1       7.689  -7.079  -1.655  0.00  0.00    +0.025 A 
ATOM     26 CL   UNL     1       8.928  -9.456  -2.035  0.00  0.00    -0.084 Cl
ENDBRANCH  15  20
BRANCH   1  32
ATOM     27  C   UNL     1       2.934  -2.666   2.469  0.00  0.00    +0.059 A 
ATOM     28  C   UNL     1       1.951  -2.588   3.458  0.00  0.00    +0.015 A 
ATOM     29  C   UNL     1       2.112  -3.273   4.643  0.00  0.00    +0.001 A 
ATOM     30  C   UNL     1       3.246  -4.040   4.859  0.00  0.00    +0.002 A 
ATOM     31  C   UNL     1       4.226  -4.125   3.890  0.00  0.00    +0.025 A 
ATOM     32  C   UNL     1       4.077  -3.446   2.689  0.00  0.00    +0.058 A 
BRANCH  27  34
ATOM     33  N   UNL     1       1.667  -1.185   0.992  0.00  0.00    -0.308 N 
ATOM     34  C   UNL     1       2.767  -1.935   1.198  0.00  0.00    +0.246 C 
ATOM     35  O   UNL     1       3.623  -2.008   0.338  0.00  0.00    -0.270 OA
ATOM     36  H   UNL     1       0.984  -1.126   1.678  0.00  0.00    +0.149 HD
BRANCH  33  37
ATOM     37  C   UNL     1       1.501  -0.459  -0.270  0.00  0.00    +0.131 C 
BRANCH  37  39
ATOM     38  C   UNL     1       0.184   1.587  -0.470  0.00  0.00    +0.005 C 
ATOM     39  C   UNL     1       0.197   0.296  -0.248  0.00  0.00    -0.016 C 
ENDBRANCH  37  39
ENDBRANCH  33  37
ENDBRANCH  27  34
ENDBRANCH   1  32
TORSDOF 5
