REMARK  Name = ZINC55749534
REMARK  11 active torsions:
REMARK  status: ('A' for Active; 'I' for Inactive)
REMARK    1  A    between atoms: C_1  and  C_2
REMARK    2  A    between atoms: C_5  and  C_33
REMARK    3  A    between atoms: N_8  and  C_10
REMARK    4  A    between atoms: C_10  and  C_11
REMARK    5  A    between atoms: C_11  and  C_13
REMARK    6  A    between atoms: C_11  and  N_14
REMARK    7  A    between atoms: C_15  and  C_17
REMARK    8  A    between atoms: C_17  and  C_18
REMARK    9  A    between atoms: C_18  and  C_19
REMARK   10  A    between atoms: C_19  and  C_20
REMARK   11  A    between atoms: C_20  and  C_21
REMARK                            x       y       z     vdW  Elec       q    Type
REMARK                         _______ _______ _______ _____ _____    ______ ____
ROOT
ATOM      1  N   UNL     1       3.510  -2.495   0.951  0.00  0.00    -0.315 N 
ATOM      2  C   UNL     1       4.540  -1.852   0.365  0.00  0.00    +0.213 C 
ATOM      3  O   UNL     1       5.038  -0.887   0.905  0.00  0.00    -0.276 OA
ATOM      4  H   UNL     1       3.112  -3.266   0.519  0.00  0.00    +0.149 HD
ENDROOT
BRANCH   1   5
ATOM      5  C   UNL     1       2.993  -2.028   2.239  0.00  0.00    +0.053 C 
ATOM      6  C   UNL     1       3.825  -2.634   3.372  0.00  0.00    +0.026 C 
BRANCH   5   7
ATOM      7  C   UNL     1       1.534  -2.461   2.390  0.00  0.00    -0.057 C 
BRANCH   7  13
ATOM      8  C   UNL     1      -0.019   1.526   0.010  0.00  0.00    +0.005 C 
ATOM      9  C   UNL     1       0.002  -0.004   0.002  0.00  0.00    -0.031 C 
ATOM     10  C   UNL     1      -1.434  -0.535   0.015  0.00  0.00    +0.003 C 
ATOM     11  C   UNL     1      -1.402  -2.064   0.086  0.00  0.00    -0.031 C 
ATOM     12  C   UNL     1      -0.613  -2.496   1.324  0.00  0.00    -0.076 C 
ATOM     13  N   UNL     1       0.758  -1.980   1.239  0.00  0.00    +0.381 N 
ATOM     14  C   UNL     1       0.740  -0.512   1.242  0.00  0.00    -0.076 C 
ATOM     15  C   UNL     1      -2.832  -2.602   0.177  0.00  0.00    +0.005 C 
ATOM     16  H   UNL     1       1.188  -2.307   0.386  0.00  0.00    -0.082 HD
ENDBRANCH   7  13
ENDBRANCH   5   7
ENDBRANCH   1   5
BRANCH   2  17
ATOM     17  C   UNL     1       5.072  -2.332  -0.961  0.00  0.00    +0.096 C 
BRANCH  17  18
ATOM     18  C   UNL     1       6.230  -1.434  -1.401  0.00  0.00    +0.009 C 
BRANCH  18  19
ATOM     19  C   UNL     1       6.771  -1.922  -2.747  0.00  0.00    +0.002 C 
BRANCH  19  20
ATOM     20  C   UNL     1       7.929  -1.024  -3.187  0.00  0.00    +0.016 C 
BRANCH  20  21
ATOM     21  C   UNL     1       8.469  -1.512  -4.532  0.00  0.00    +0.069 C 
ATOM     22  C   UNL     1       9.614  -0.604  -5.032  0.00  0.00    +0.108 C 
ATOM     23  C   UNL     1      10.770  -1.372  -5.680  0.00  0.00    +0.105 C 
ATOM     24  C   UNL     1      10.566  -2.902  -5.697  0.00  0.00    +0.093 C 
ATOM     25  S   UNL     1       9.338  -3.130  -4.351  0.00  0.00    -0.154 S 
ATOM     26  N   UNL     1      11.928  -1.058  -4.829  0.00  0.00    -0.294 N 
ATOM     27  C   UNL     1      11.536  -0.243  -3.840  0.00  0.00    +0.300 C 
ATOM     28  O   UNL     1      12.293   0.176  -2.987  0.00  0.00    -0.253 OA
ATOM     29  N   UNL     1      10.240   0.060  -3.877  0.00  0.00    -0.294 N 
ATOM     30  H   UNL     1      12.831  -1.389  -4.962  0.00  0.00    +0.151 HD
ATOM     31  H   UNL     1       9.783   0.632  -3.241  0.00  0.00    +0.151 HD
ENDBRANCH  20  21
ENDBRANCH  19  20
ENDBRANCH  18  19
ENDBRANCH  17  18
ENDBRANCH   2  17
TORSDOF 8
