REMARK  Name = ZINC54409701
REMARK  11 active torsions:
REMARK  status: ('A' for Active; 'I' for Inactive)
REMARK    1  A    between atoms: C_1  and  C_2
REMARK    2  A    between atoms: C_5  and  C_29
REMARK    3  A    between atoms: N_8  and  C_10
REMARK    4  A    between atoms: C_10  and  C_11
REMARK    5  A    between atoms: C_10  and  C_12
REMARK    6  A    between atoms: C_10  and  C_13
REMARK    7  A    between atoms: C_13  and  N_14
REMARK    8  A    between atoms: N_17  and  C_18
REMARK    9  A    between atoms: C_21  and  O_24
REMARK   10  A    between atoms: O_24  and  C_25
REMARK   11  A    between atoms: C_25  and  C_26
REMARK                            x       y       z     vdW  Elec       q    Type
REMARK                         _______ _______ _______ _____ _____    ______ ____
ROOT
ATOM      1  N   UNL     1       1.991   1.661   3.429  0.00  0.00    -0.300 N 
ATOM      2  C   UNL     1       1.506   2.456   4.402  0.00  0.00    +0.304 C 
ATOM      3  O   UNL     1       1.160   1.976   5.464  0.00  0.00    -0.253 OA
ATOM      4  N   UNL     1       1.403   3.785   4.198  0.00  0.00    -0.269 N 
ATOM      5  H   UNL     1       2.266   2.044   2.581  0.00  0.00    +0.150 HD
ATOM      6  H   UNL     1       1.738   4.176   3.377  0.00  0.00    +0.156 HD
ENDROOT
BRANCH   4   7
ATOM      7  C   UNL     1       0.813   4.600   5.174  0.00  0.00    +0.035 A 
ATOM      8  C   UNL     1       0.033   5.683   4.794  0.00  0.00    +0.027 A 
ATOM      9  C   UNL     1      -0.549   6.486   5.756  0.00  0.00    +0.047 A 
ATOM     10  C   UNL     1      -0.353   6.210   7.101  0.00  0.00    +0.121 A 
ATOM     11  C   UNL     1       0.427   5.128   7.481  0.00  0.00    +0.047 A 
ATOM     12  C   UNL     1       1.004   4.321   6.520  0.00  0.00    +0.027 A 
BRANCH  10  13
ATOM     13  O   UNL     1      -0.926   7.000   8.047  0.00  0.00    -0.483 OA
BRANCH  13  14
ATOM     14  C   UNL     1      -0.683   6.658   9.413  0.00  0.00    +0.324 C 
BRANCH  14  15
ATOM     15  C   UNL     1      -1.392   7.638  10.311  0.00  0.00    +0.248 C 
ATOM     16  O   UNL     1      -2.042   8.541   9.829  0.00  0.00    -0.272 OA
ATOM     17  N   UNL     1      -1.304   7.511  11.650  0.00  0.00    -0.327 N 
ATOM     18  H   UNL     1      -0.784   6.789  12.036  0.00  0.00    +0.145 HD
ATOM     19  H   UNL     1      -1.761   8.142  12.228  0.00  0.00    +0.145 HD
ENDBRANCH  14  15
ENDBRANCH  13  14
ENDBRANCH  10  13
ENDBRANCH   4   7
BRANCH   1  20
ATOM     20  C   UNL     1       2.102   0.217   3.650  0.00  0.00    +0.093 C 
BRANCH  20  21
ATOM     21  C   UNL     1       2.775  -0.434   2.440  0.00  0.00    -0.055 C 
ATOM     22  C   UNL     1       2.819  -1.951   2.636  0.00  0.00    -0.008 C 
ATOM     23  C   UNL     1       4.201   0.103   2.300  0.00  0.00    -0.008 C 
BRANCH  21  29
ATOM     24  C   UNL     1      -0.204   1.308   0.013  0.00  0.00    +0.005 C 
ATOM     25  C   UNL     1      -0.186  -0.217   0.145  0.00  0.00    -0.031 C 
ATOM     26  C   UNL     1       0.447  -0.831  -1.107  0.00  0.00    +0.003 C 
ATOM     27  C   UNL     1       1.904  -0.368  -1.209  0.00  0.00    -0.031 C 
ATOM     28  C   UNL     1       2.649  -0.759   0.069  0.00  0.00    -0.075 C 
ATOM     29  N   UNL     1       2.011  -0.120   1.226  0.00  0.00    +0.384 N 
ATOM     30  C   UNL     1       0.636  -0.613   1.374  0.00  0.00    -0.075 C 
ATOM     31  C   UNL     1       2.568  -1.037  -2.414  0.00  0.00    +0.005 C 
ATOM     32  H   UNL     1       1.996   0.880   1.091  0.00  0.00    -0.081 HD
ENDBRANCH  21  29
ENDBRANCH  20  21
ENDBRANCH   1  20
TORSDOF 7
