REMARK  Name = ZINC63985723
REMARK  14 active torsions:
REMARK  status: ('A' for Active; 'I' for Inactive)
REMARK    1  A    between atoms: C_1  and  C_2
REMARK    2  A    between atoms: C_2  and  C_3
REMARK    3  A    between atoms: C_2  and  C_4
REMARK    4  A    between atoms: C_5  and  C_6
REMARK    5  A    between atoms: C_6  and  N_7
REMARK    6  A    between atoms: N_7  and  C_8
REMARK    7  A    between atoms: N_14  and  C_27
REMARK    8  A    between atoms: C_15  and  C_23
REMARK    9  A    between atoms: C_17  and  N_19
REMARK   10  A    between atoms: C_20  and  C_22
REMARK   11  A    between atoms: C_23  and  O_25
REMARK   12  A    between atoms: O_25  and  C_26
REMARK   13  A    between atoms: C_27  and  C_28
REMARK   14  A    between atoms: C_28  and  C_29
REMARK                            x       y       z     vdW  Elec       q    Type
REMARK                         _______ _______ _______ _____ _____    ______ ____
ROOT
ATOM      1  C   UNL     1      -5.257  -1.790  -2.424  0.00  0.00    +0.044 A 
ATOM      2  C   UNL     1      -5.907  -1.435  -3.605  0.00  0.00    +0.033 A 
ATOM      3  C   UNL     1      -7.221  -1.827  -3.776  0.00  0.00    +0.015 A 
ATOM      4  C   UNL     1      -7.863  -2.557  -2.786  0.00  0.00    +0.105 A 
ATOM      5  N   UNL     1      -7.205  -2.875  -1.673  0.00  0.00    -0.348 N 
ATOM      6  C   UNL     1      -5.951  -2.524  -1.475  0.00  0.00    +0.107 A 
ATOM      7  N   UNL     1      -9.176  -2.856  -3.143  0.00  0.00    -0.301 N 
ATOM      8  C   UNL     1      -9.479  -2.304  -4.466  0.00  0.00    +0.208 C 
ATOM      9  C   UNL     1      -8.185  -1.606  -4.918  0.00  0.00    +0.138 C 
ATOM     10  H   UNL     1      -7.662  -3.385  -0.986  0.00  0.00    +0.167 HD
ENDROOT
BRANCH   9  11
ATOM     11  N   UNL     1      -7.675  -2.221  -6.146  0.00  0.00    -0.306 N 
ATOM     12  C   UNL     1      -6.835  -1.534  -6.945  0.00  0.00    +0.210 C 
ATOM     13  O   UNL     1      -6.502  -0.406  -6.647  0.00  0.00    -0.276 OA
ATOM     14  C   UNL     1      -6.309  -2.166  -8.208  0.00  0.00    +0.109 C 
ATOM     15  H   UNL     1      -7.941  -3.123  -6.384  0.00  0.00    +0.149 HD
ENDBRANCH   9  11
BRANCH   1  16
ATOM     16  N   UNL     1      -3.925  -1.416  -2.203  0.00  0.00    -0.339 N 
ATOM     17  H   UNL     1      -3.448  -0.901  -2.873  0.00  0.00    +0.146 HD
BRANCH  16  18
ATOM     18  C   UNL     1      -3.253  -1.801  -0.959  0.00  0.00    +0.128 C 
BRANCH  18  20
ATOM     19  C   UNL     1      -1.412  -0.526   0.013  0.00  0.00    -0.027 C 
ATOM     20  C   UNL     1      -1.839  -1.279  -0.970  0.00  0.00    -0.012 C 
BRANCH  19  22
ATOM     21  C   UNL     1      -0.019   1.526   0.010  0.00  0.00    +0.011 C 
ATOM     22  C   UNL     1       0.002  -0.004   0.002  0.00  0.00    +0.005 C 
ATOM     23  C   UNL     1       0.742  -0.511   1.242  0.00  0.00    +0.011 C 
ENDBRANCH  19  22
ENDBRANCH  18  20
ENDBRANCH  16  18
ENDBRANCH   1  16
BRANCH   8  24
ATOM     24  C   UNL     1      -9.842  -3.409  -5.424  0.00  0.00    +0.330 C 
ATOM     25  O   UNL     1      -9.536  -4.551  -5.172  0.00  0.00    -0.249 OA
BRANCH  24  26
ATOM     26  O   UNL     1     -10.504  -3.126  -6.557  0.00  0.00    -0.467 OA
ATOM     27  C   UNL     1     -10.814  -4.223  -7.418  0.00  0.00    +0.280 C 
ENDBRANCH  24  26
ENDBRANCH   8  24
BRANCH   7  28
ATOM     28  C   UNL     1     -10.118  -3.614  -2.316  0.00  0.00    +0.112 C 
BRANCH  28  29
ATOM     29  C   UNL     1     -10.893  -2.652  -1.413  0.00  0.00    +0.052 C 
BRANCH  29  30
ATOM     30  C   UNL     1     -11.861  -3.432  -0.562  0.00  0.00    -0.040 C 
ATOM     31  C   UNL     1     -11.661  -3.874   0.700  0.00  0.00    -0.001 A 
ATOM     32  C   UNL     1     -10.524  -3.767   1.623  0.00  0.00    +0.010 A 
ATOM     33  C   UNL     1     -10.621  -4.325   2.851  0.00  0.00    +0.001 A 
ATOM     34  C   UNL     1     -11.777  -5.003   3.263  0.00  0.00    +0.002 A 
ATOM     35  C   UNL     1     -12.862  -5.143   2.472  0.00  0.00    +0.026 A 
ATOM     36  C   UNL     1     -12.870  -4.594   1.160  0.00  0.00    +0.043 A 
ATOM     37  N   UNL     1     -13.783  -4.596   0.219  0.00  0.00    -0.380 N 
ATOM     38  C   UNL     1     -13.257  -3.872  -0.944  0.00  0.00    +0.144 C 
ATOM     39  H   UNL     1     -14.660  -5.005   0.282  0.00  0.00    +0.160 HD
ENDBRANCH  29  30
ENDBRANCH  28  29
ENDBRANCH   7  28
TORSDOF 10
