REMARK  Name = ZINC15523018
REMARK  12 active torsions:
REMARK  status: ('A' for Active; 'I' for Inactive)
REMARK    1  A    between atoms: C_1  and  C_2
REMARK    2  A    between atoms: C_5  and  C_7
REMARK    3  A    between atoms: C_7  and  N_58
REMARK    4  A    between atoms: C_8  and  C_9
REMARK    5  A    between atoms: C_8  and  N_58
REMARK    6  A    between atoms: C_9  and  C_10
REMARK    7  A    between atoms: C_16  and  C_17
REMARK    8  A    between atoms: C_16  and  N_58
REMARK    9  A    between atoms: N_19  and  C_20
REMARK   10  A    between atoms: C_20  and  C_21
REMARK   11  A    between atoms: C_24  and  S_27
REMARK   12  A    between atoms: S_27  and  N_30
REMARK                            x       y       z     vdW  Elec       q    Type
REMARK                         _______ _______ _______ _____ _____    ______ ____
ROOT
ATOM      1  C   UNL     1       1.965  -3.810  -1.314  0.00  0.00    +0.019 C 
ENDROOT
BRANCH   1   2
ATOM      2  C   UNL     1       3.437  -3.790  -0.991  0.00  0.00    +0.197 C 
ATOM      3  O   UNL     1       4.022  -2.732  -0.890  0.00  0.00    -0.278 OA
ATOM      4  N   UNL     1       4.104  -4.948  -0.813  0.00  0.00    -0.313 N 
ATOM      5  H   UNL     1       3.636  -5.794  -0.893  0.00  0.00    +0.149 HD
BRANCH   4   6
ATOM      6  C   UNL     1       5.534  -4.929  -0.498  0.00  0.00    +0.139 C 
BRANCH   6   7
ATOM      7  C   UNL     1       6.035  -6.343  -0.350  0.00  0.00    -0.030 A 
ATOM      8  C   UNL     1       6.013  -6.957   0.888  0.00  0.00    +0.007 A 
ATOM      9  C   UNL     1       6.468  -8.256   1.023  0.00  0.00    +0.029 A 
ATOM     10  C   UNL     1       6.954  -8.936  -0.078  0.00  0.00    +0.105 A 
ATOM     11  C   UNL     1       6.981  -8.319  -1.315  0.00  0.00    +0.029 A 
ATOM     12  C   UNL     1       6.522  -7.022  -1.451  0.00  0.00    +0.007 A 
BRANCH  10  13
ATOM     13  S   UNL     1       7.538 -10.589   0.095  0.00  0.00    +0.056 S 
ATOM     14  O   UNL     1       6.900 -11.127   1.245  0.00  0.00    -0.153 OA
ATOM     15  O   UNL     1       7.433 -11.193  -1.187  0.00  0.00    -0.153 OA
BRANCH  13  16
ATOM     16  N   UNL     1       9.154 -10.503   0.447  0.00  0.00    -0.204 NA
ATOM     17  H   UNL     1       9.570 -11.193   0.987  0.00  0.00    +0.144 HD
ATOM     18  H   UNL     1       9.684  -9.763   0.113  0.00  0.00    +0.144 HD
ENDBRANCH  13  16
ENDBRANCH  10  13
ENDBRANCH   6   7
ENDBRANCH   4   6
ENDBRANCH   1   2
BRANCH   1  19
ATOM     19  N   UNL     1       1.494  -2.418  -1.477  0.00  0.00    +0.389 N 
ATOM     20  H   UNL     1       2.108  -1.935  -2.143  0.00  0.00    -0.081 HD
BRANCH  19  21
ATOM     21  C   UNL     1       1.544  -1.713  -0.179  0.00  0.00    -0.035 C 
BRANCH  21  26
ATOM     22  C   UNL     1       1.998   3.826  -1.280  0.00  0.00    +0.051 C 
ATOM     23  C   UNL     1       1.621   2.404  -0.952  0.00  0.00    -0.013 A 
ATOM     24  C   UNL     1       0.405   1.893  -0.642  0.00  0.00    +0.011 A 
ATOM     25  C   UNL     1       0.294   0.541  -0.374  0.00  0.00    +0.009 A 
ATOM     26  C   UNL     1       1.406  -0.233  -0.427  0.00  0.00    -0.026 A 
ATOM     27  S   UNL     1       2.663   0.956  -0.868  0.00  0.00    -0.100 S 
ENDBRANCH  21  26
ENDBRANCH  19  21
BRANCH  19  28
ATOM     28  C   UNL     1       0.113  -2.411  -2.003  0.00  0.00    -0.073 C 
BRANCH  28  29
ATOM     29  C   UNL     1       0.145  -2.824  -3.476  0.00  0.00    +0.016 C 
BRANCH  29  30
ATOM     30  C   UNL     1      -1.242  -2.725  -4.056  0.00  0.00    -0.049 A 
ATOM     31  C   UNL     1      -2.088  -3.817  -4.014  0.00  0.00    +0.003 A 
ATOM     32  C   UNL     1      -3.362  -3.724  -4.542  0.00  0.00    +0.000 A 
ATOM     33  C   UNL     1      -3.787  -2.543  -5.120  0.00  0.00    +0.000 A 
ATOM     34  C   UNL     1      -2.938  -1.453  -5.168  0.00  0.00    +0.000 A 
ATOM     35  C   UNL     1      -1.666  -1.543  -4.635  0.00  0.00    +0.003 A 
ENDBRANCH  29  30
ENDBRANCH  28  29
ENDBRANCH  19  28
ENDBRANCH   1  19
TORSDOF 11
