REMARK  Name = ZINC04583426
REMARK  3 active torsions:
REMARK  status: ('A' for Active; 'I' for Inactive)
REMARK    1  A    between atoms: C_1  and  O_2
REMARK    2  A    between atoms: O_2  and  C_3
REMARK    3  A    between atoms: C_18  and  C_20
REMARK                            x       y       z     vdW  Elec       q    Type
REMARK                         _______ _______ _______ _____ _____    ______ ____
ROOT
ATOM      1  C   UNL     1       0.530   0.843   5.743  0.00  0.00    +0.121 A 
ATOM      2  C   UNL     1       0.690   2.223   5.823  0.00  0.00    +0.048 A 
ATOM      3  C   UNL     1       1.694   2.867   5.149  0.00  0.00    +0.032 A 
ATOM      4  C   UNL     1       2.604   2.145   4.344  0.00  0.00    +0.081 A 
ATOM      5  C   UNL     1       2.414   0.747   4.284  0.00  0.00    +0.044 A 
ATOM      6  C   UNL     1       1.407   0.105   4.962  0.00  0.00    +0.063 A 
ATOM      7  S   UNL     1       3.726   0.232   3.202  0.00  0.00    -0.052 S 
ATOM      8  C   UNL     1       4.422   1.851   2.906  0.00  0.00    +0.162 A 
ATOM      9  N   UNL     1       3.640   2.627   3.620  0.00  0.00    -0.225 NA
ATOM     10  N   UNL     1       5.507   2.197   2.125  0.00  0.00    -0.307 N 
ATOM     11  C   UNL     1       6.707   1.455   2.532  0.00  0.00    +0.126 C 
ATOM     12  C   UNL     1       7.837   1.729   1.534  0.00  0.00    +0.127 C 
ATOM     13  N   UNL     1       8.015   3.184   1.418  0.00  0.00    -0.295 N 
ATOM     14  C   UNL     1       6.830   4.011   1.146  0.00  0.00    +0.127 C 
ATOM     15  C   UNL     1       5.739   3.647   2.160  0.00  0.00    +0.126 C 
ATOM     16  C   UNL     1       9.233   3.745   1.556  0.00  0.00    +0.247 C 
ATOM     17  O   UNL     1      10.185   3.060   1.876  0.00  0.00    -0.270 OA
ENDROOT
BRANCH  16  18
ATOM     18  C   UNL     1       9.410   5.193   1.320  0.00  0.00    +0.037 A 
ATOM     19  C   UNL     1       8.626   5.843   0.351  0.00  0.00    +0.013 A 
ATOM     20  C   UNL     1       8.766   7.173   0.119  0.00  0.00    +0.009 A 
ATOM     21  C   UNL     1       9.714   7.918   0.845  0.00  0.00    -0.018 A 
ATOM     22  C   UNL     1       9.883   9.294   0.618  0.00  0.00    +0.008 A 
ATOM     23  C   UNL     1      10.808   9.988   1.336  0.00  0.00    +0.001 A 
ATOM     24  C   UNL     1      11.596   9.354   2.295  0.00  0.00    +0.001 A 
ATOM     25  C   UNL     1      11.462   8.023   2.542  0.00  0.00    +0.008 A 
ATOM     26  C   UNL     1      10.516   7.272   1.821  0.00  0.00    -0.017 A 
ATOM     27  C   UNL     1      10.352   5.898   2.051  0.00  0.00    +0.021 A 
ENDBRANCH  16  18
BRANCH   1  29
ATOM     28  C   UNL     1      -1.334   1.056   7.204  0.00  0.00    +0.277 C 
ATOM     29  O   UNL     1      -0.473   0.226   6.422  0.00  0.00    -0.495 OA
ENDBRANCH   1  29
TORSDOF 2
