REMARK  Name = ZINC09587946
REMARK  5 active torsions:
REMARK  status: ('A' for Active; 'I' for Inactive)
REMARK    1  A    between atoms: C_1  and  C_2
REMARK    2  A    between atoms: C_5  and  N_9
REMARK    3  A    between atoms: C_18  and  S_19
REMARK    4  A    between atoms: S_19  and  C_20
REMARK    5  A    between atoms: C_20  and  C_21
REMARK                            x       y       z     vdW  Elec       q    Type
REMARK                         _______ _______ _______ _____ _____    ______ ____
ROOT
ATOM      1  N   UNL     1       1.304  -4.546  -0.364  0.00  0.00    -0.255 N 
ATOM      2  C   UNL     1       1.815  -3.352   0.018  0.00  0.00    +0.268 A 
ATOM      3  O   UNL     1       3.013  -3.174   0.153  0.00  0.00    -0.267 OA
ATOM      4  C   UNL     1       0.861  -2.309   0.252  0.00  0.00    +0.076 A 
ATOM      5  C   UNL     1       1.148  -0.946   0.666  0.00  0.00    -0.023 A 
ATOM      6  C   UNL     1       0.086  -0.124   0.830  0.00  0.00    -0.004 A 
ATOM      7  S   UNL     1      -1.334  -1.117   0.444  0.00  0.00    -0.073 S 
ATOM      8  C   UNL     1      -0.504  -2.628   0.065  0.00  0.00    +0.117 A 
ATOM      9  N   UNL     1      -0.942  -3.823  -0.312  0.00  0.00    -0.215 NA
ATOM     10  C   UNL     1      -0.033  -4.765  -0.520  0.00  0.00    +0.178 A 
ATOM     11  C   UNL     1       0.108   1.314   1.247  0.00  0.00    +0.043 C 
ATOM     12  C   UNL     1       1.494   1.633   1.824  0.00  0.00    +0.005 C 
ATOM     13  C   UNL     1       2.560   1.090   0.868  0.00  0.00    +0.005 C 
ATOM     14  C   UNL     1       2.567  -0.438   0.911  0.00  0.00    +0.037 C 
ENDROOT
BRANCH   1  19
ATOM     15  C   UNL     1       4.888  -8.836  -1.349  0.00  0.00    +0.045 C 
ATOM     16  C   UNL     1       3.936  -7.697  -1.088  0.00  0.00    -0.032 A 
ATOM     17  C   UNL     1       3.418  -7.508   0.180  0.00  0.00    +0.007 A 
ATOM     18  C   UNL     1       2.549  -6.462   0.424  0.00  0.00    +0.026 A 
ATOM     19  C   UNL     1       2.189  -5.605  -0.608  0.00  0.00    +0.053 A 
ATOM     20  C   UNL     1       2.711  -5.796  -1.879  0.00  0.00    +0.046 A 
ATOM     21  C   UNL     1       3.583  -6.842  -2.117  0.00  0.00    +0.046 A 
ATOM     22 CL   UNL     1       4.237  -7.082  -3.707  0.00  0.00    -0.083 Cl
ENDBRANCH   1  19
BRANCH  10  23
ATOM     23  S   UNL     1      -0.574  -6.366  -1.021  0.00  0.00    -0.079 S 
BRANCH  23  24
ATOM     24  C   UNL     1      -2.363  -6.092  -1.067  0.00  0.00    +0.153 C 
BRANCH  24  25
ATOM     25  C   UNL     1      -3.055  -7.365  -1.483  0.00  0.00    +0.146 A 
ATOM     26  N   UNL     1      -3.285  -7.601  -2.763  0.00  0.00    -0.199 NA
ATOM     27  C   UNL     1      -3.892  -8.726  -3.134  0.00  0.00    +0.217 A 
ATOM     28  N   UNL     1      -4.275  -9.607  -2.216  0.00  0.00    -0.181 NA
ATOM     29  C   UNL     1      -4.046  -9.363  -0.930  0.00  0.00    +0.217 A 
ATOM     30  N   UNL     1      -3.434  -8.238  -0.567  0.00  0.00    -0.199 NA
ATOM     31  N   UNL     1      -4.442 -10.275   0.027  0.00  0.00    -0.327 N 
ATOM     32  N   UNL     1      -4.128  -8.975  -4.471  0.00  0.00    -0.327 N 
ATOM     33  H   UNL     1      -4.275 -10.096   0.965  0.00  0.00    +0.145 HD
ATOM     34  H   UNL     1      -4.888 -11.094  -0.239  0.00  0.00    +0.145 HD
ATOM     35  H   UNL     1      -4.574  -9.793  -4.741  0.00  0.00    +0.145 HD
ATOM     36  H   UNL     1      -3.848  -8.332  -5.141  0.00  0.00    +0.145 HD
ENDBRANCH  24  25
ENDBRANCH  23  24
ENDBRANCH  10  23
TORSDOF 4
