REMARK  Name = ZINC02680225
REMARK  13 active torsions:
REMARK  status: ('A' for Active; 'I' for Inactive)
REMARK    1  A    between atoms: C_1  and  C_2
REMARK    2  A    between atoms: C_2  and  O_3
REMARK    3  A    between atoms: O_3  and  C_4
REMARK    4  A    between atoms: C_4  and  C_6
REMARK    5  A    between atoms: C_7  and  C_19
REMARK    6  A    between atoms: C_10  and  N_11
REMARK    7  A    between atoms: C_12  and  C_14
REMARK    8  A    between atoms: C_14  and  N_49
REMARK    9  A    between atoms: C_15  and  C_16
REMARK   10  A    between atoms: C_15  and  N_49
REMARK   11  A    between atoms: C_16  and  C_17
REMARK   12  A    between atoms: C_17  and  O_18
REMARK   13  A    between atoms: C_22  and  C_25
REMARK                            x       y       z     vdW  Elec       q    Type
REMARK                         _______ _______ _______ _____ _____    ______ ____
ROOT
ATOM      1  C   UNL     1      -3.678   1.654   0.029  0.00  0.00    +0.095 A 
ATOM      2  C   UNL     1      -4.751   0.677   0.028  0.00  0.00    +0.005 A 
ATOM      3  C   UNL     1      -4.386  -0.630   0.019  0.00  0.00    +0.056 A 
ATOM      4  S   UNL     1      -2.607  -0.559   0.004  0.00  0.00    -0.080 S 
ATOM      5  C   UNL     1      -2.381   1.157   0.020  0.00  0.00    +0.086 A 
ENDROOT
BRANCH   2   6
ATOM      6  C   UNL     1      -6.175   1.087   0.038  0.00  0.00    -0.017 A 
ATOM      7  C   UNL     1      -6.630   2.016   0.973  0.00  0.00    +0.009 A 
ATOM      8  C   UNL     1      -7.956   2.398   0.973  0.00  0.00    +0.004 A 
ATOM      9  C   UNL     1      -8.836   1.853   0.055  0.00  0.00    -0.050 A 
ATOM     10  C   UNL     1      -8.392   0.926  -0.871  0.00  0.00    +0.004 A 
ATOM     11  C   UNL     1      -7.066   0.541  -0.885  0.00  0.00    +0.009 A 
ATOM     12  C   UNL     1     -10.284   2.269   0.065  0.00  0.00    +0.044 C 
ENDBRANCH   2   6
BRANCH   5  13
ATOM     13  N   UNL     1      -1.191   1.867   0.018  0.00  0.00    -0.281 N 
ATOM     14  C   UNL     1      -0.014   1.209   0.009  0.00  0.00    +0.201 C 
ATOM     15  O   UNL     1       0.002  -0.004   0.002  0.00  0.00    -0.278 OA
ATOM     16  H   UNL     1      -1.204   2.836   0.023  0.00  0.00    +0.155 HD
BRANCH  14  17
ATOM     17  C   UNL     1       1.280   1.980   0.001  0.00  0.00    +0.015 C 
BRANCH  17  18
ATOM     18  N   UNL     1       2.409   1.030  -0.015  0.00  0.00    +0.385 N 
ATOM     19  H   UNL     1       2.346   0.444  -0.857  0.00  0.00    -0.085 HD
ATOM     20  H   UNL     1       2.362   0.435   0.820  0.00  0.00    -0.085 HD
BRANCH  18  21
ATOM     21  C   UNL     1       3.691   1.758  -0.024  0.00  0.00    -0.080 C 
BRANCH  21  22
ATOM     22  C   UNL     1       4.841   0.749  -0.040  0.00  0.00    +0.009 C 
BRANCH  22  23
ATOM     23  C   UNL     1       6.176   1.496  -0.049  0.00  0.00    +0.154 C 
BRANCH  23  24
ATOM     24  O   UNL     1       7.250   0.554  -0.064  0.00  0.00    -0.395 OA
ATOM     25  H   UNL     1       8.128   0.958  -0.070  0.00  0.00    +0.209 HD
ENDBRANCH  23  24
ENDBRANCH  22  23
ENDBRANCH  21  22
ENDBRANCH  18  21
ENDBRANCH  17  18
ENDBRANCH  14  17
ENDBRANCH   5  13
BRANCH   1  26
ATOM     26  C   UNL     1      -3.949   3.092   0.038  0.00  0.00    +0.342 C 
ATOM     27  O   UNL     1      -4.067   3.695  -1.012  0.00  0.00    -0.245 OA
BRANCH  26  28
ATOM     28  O   UNL     1      -4.068   3.748   1.211  0.00  0.00    -0.461 OA
BRANCH  28  30
ATOM     29  C   UNL     1      -4.438   5.740   2.562  0.00  0.00    +0.048 C 
ATOM     30  C   UNL     1      -4.337   5.173   1.144  0.00  0.00    +0.229 C 
ENDBRANCH  28  30
ENDBRANCH  26  28
ENDBRANCH   1  26
TORSDOF 11
