REMARK  Name = ZINC14003249
REMARK  7 active torsions:
REMARK  status: ('A' for Active; 'I' for Inactive)
REMARK    1  A    between atoms: C_3  and  C_6
REMARK    2  A    between atoms: C_7  and  C_8
REMARK    3  A    between atoms: N_10  and  C_11
REMARK    4  A    between atoms: C_11  and  N_13
REMARK    5  A    between atoms: N_13  and  N_14
REMARK    6  A    between atoms: C_15  and  C_17
REMARK    7  A    between atoms: C_17  and  C_18
REMARK                            x       y       z     vdW  Elec       q    Type
REMARK                         _______ _______ _______ _____ _____    ______ ____
ROOT
ATOM      1  N   UNL     1       2.366   1.214  -0.014  0.00  0.00    -0.246 N 
ATOM      2  H   UNL     1       2.379   0.244  -0.019  0.00  0.00    +0.172 HD
ENDROOT
BRANCH   1   3
ATOM      3  N   UNL     1       1.143   1.898   0.001  0.00  0.00    -0.235 N 
ATOM      4  C   UNL     1      -0.014   1.209   0.009  0.00  0.00    +0.233 C 
ATOM      5  O   UNL     1       0.002  -0.004   0.002  0.00  0.00    -0.274 OA
ATOM      6  H   UNL     1       1.130   2.868   0.007  0.00  0.00    +0.173 HD
BRANCH   4   7
ATOM      7  C   UNL     1      -1.330   1.944   0.019  0.00  0.00    +0.132 C 
BRANCH   7   8
ATOM      8  C   UNL     1      -2.462   0.950   0.019  0.00  0.00    -0.038 A 
ATOM      9  C   UNL     1      -2.990   0.504  -1.178  0.00  0.00    +0.005 A 
ATOM     10  C   UNL     1      -4.024  -0.412  -1.179  0.00  0.00    +0.020 A 
ATOM     11  C   UNL     1      -4.539  -0.876   0.019  0.00  0.00    +0.041 A 
ATOM     12  C   UNL     1      -4.013  -0.425   1.217  0.00  0.00    +0.020 A 
ATOM     13  C   UNL     1      -2.975   0.487   1.216  0.00  0.00    +0.005 A 
ATOM     14 CL   UNL     1      -5.842  -2.022   0.019  0.00  0.00    -0.084 Cl
ENDBRANCH   7   8
ENDBRANCH   4   7
ENDBRANCH   1   3
BRANCH   1  15
ATOM     15  C   UNL     1       3.524   1.904  -0.021  0.00  0.00    +0.153 C 
ATOM     16  S   UNL     1       5.018   1.068  -0.040  0.00  0.00    -0.017 S 
BRANCH  15  19
ATOM     17  C   UNL     1       4.664   3.941  -0.021  0.00  0.00    +0.242 C 
ATOM     18  O   UNL     1       5.726   3.347  -0.035  0.00  0.00    -0.270 OA
ATOM     19  N   UNL     1       3.506   3.252  -0.014  0.00  0.00    -0.263 N 
ATOM     20  H   UNL     1       2.659   3.725  -0.003  0.00  0.00    +0.157 HD
BRANCH  17  22
ATOM     21  C   UNL     1       5.811   6.049  -0.021  0.00  0.00    +0.020 C 
ATOM     22  C   UNL     1       4.644   5.354  -0.013  0.00  0.00    +0.069 C 
BRANCH  21  25
ATOM     23  C   UNL     1       6.553   9.693  -0.009  0.00  0.00    +0.008 A 
ATOM     24  C   UNL     1       6.859   8.355  -0.013  0.00  0.00    +0.015 A 
ATOM     25  C   UNL     1       5.792   7.464  -0.013  0.00  0.00    +0.012 A 
ATOM     26  S   UNL     1       4.392   8.570   0.007  0.00  0.00    -0.097 S 
ATOM     27  C   UNL     1       5.249  10.076   0.006  0.00  0.00    +0.046 A 
ENDBRANCH  21  25
ENDBRANCH  17  22
ENDBRANCH  15  19
ENDBRANCH   1  15
TORSDOF 7
