REMARK  Name = ZINC08339027
REMARK  5 active torsions:
REMARK  status: ('A' for Active; 'I' for Inactive)
REMARK    1  A    between atoms: C_1  and  C_2
REMARK    2  A    between atoms: C_2  and  C_4
REMARK    3  A    between atoms: C_2  and  N_51
REMARK    4  A    between atoms: N_6  and  C_7
REMARK    5  A    between atoms: C_8  and  C_15
REMARK                            x       y       z     vdW  Elec       q    Type
REMARK                         _______ _______ _______ _____ _____    ______ ____
ROOT
ATOM      1  C   UNL     1      -4.756  -1.095  -1.429  0.00  0.00    +0.204 C 
ATOM      2  O   UNL     1      -4.942  -0.664  -0.310  0.00  0.00    -0.277 OA
ATOM      3  N   UNL     1      -5.722  -1.801  -2.049  0.00  0.00    -0.281 N 
ATOM      4  H   UNL     1      -5.574  -2.145  -2.943  0.00  0.00    +0.155 HD
ENDROOT
BRANCH   3   5
ATOM      5  C   UNL     1      -6.930  -2.034  -1.408  0.00  0.00    +0.084 A 
ATOM      6  C   UNL     1      -8.034  -2.724  -1.878  0.00  0.00    +0.068 A 
ATOM      7  C   UNL     1      -9.193  -2.830  -0.992  0.00  0.00    -0.023 A 
ATOM      8  C   UNL     1      -9.058  -2.225   0.201  0.00  0.00    -0.004 A 
ATOM      9  S   UNL     1      -7.425  -1.526   0.171  0.00  0.00    -0.077 S 
ATOM     10  C   UNL     1     -10.289  -2.375   1.053  0.00  0.00    +0.043 C 
ATOM     11  C   UNL     1     -11.074  -3.534   0.401  0.00  0.00    +0.010 C 
ATOM     12  C   UNL     1     -10.583  -3.464  -1.059  0.00  0.00    +0.037 C 
BRANCH   6  13
ATOM     13  C   UNL     1      -8.040  -3.329  -3.213  0.00  0.00    +0.244 C 
ATOM     14  O   UNL     1      -7.656  -4.474  -3.364  0.00  0.00    -0.270 OA
ATOM     15  N   UNL     1      -8.470  -2.618  -4.274  0.00  0.00    -0.325 N 
ATOM     16  H   UNL     1      -8.776  -1.705  -4.154  0.00  0.00    +0.145 HD
ATOM     17  H   UNL     1      -8.474  -3.018  -5.157  0.00  0.00    +0.145 HD
ENDBRANCH   6  13
ENDBRANCH   3   5
BRANCH   1  19
ATOM     18  C   UNL     1      -2.774  -2.178  -2.453  0.00  0.00    -0.004 C 
ATOM     19  C   UNL     1      -3.443  -0.842  -2.125  0.00  0.00    +0.016 C 
BRANCH  19  27
ATOM     20  C   UNL     1      -1.375   0.412  -1.973  0.00  0.00    -0.078 C 
ATOM     21  C   UNL     1      -0.757   1.595  -1.230  0.00  0.00    -0.019 C 
ATOM     22  C   UNL     1      -0.013   1.086   0.008  0.00  0.00    -0.002 C 
ATOM     23  C   UNL     1      -0.733   1.581   1.264  0.00  0.00    -0.000 C 
ATOM     24  C   UNL     1      -2.244   1.405   1.068  0.00  0.00    -0.002 C 
ATOM     25  C   UNL     1      -2.604  -0.074   1.206  0.00  0.00    -0.019 C 
ATOM     26  C   UNL     1      -2.184  -0.830  -0.057  0.00  0.00    -0.078 C 
ATOM     27  N   UNL     1      -2.580  -0.035  -1.238  0.00  0.00    +0.387 N 
ATOM     28  H   UNL     1      -3.104   0.791  -0.923  0.00  0.00    -0.081 HD
ENDBRANCH  19  27
ENDBRANCH   1  19
TORSDOF 4
