REMARK  Name = ZINC36142295
REMARK  8 active torsions:
REMARK  status: ('A' for Active; 'I' for Inactive)
REMARK    1  A    between atoms: C_1  and  C_2
REMARK    2  A    between atoms: C_2  and  C_20
REMARK    3  A    between atoms: C_4  and  C_16
REMARK    4  A    between atoms: C_4  and  N_19
REMARK    5  A    between atoms: C_8  and  O_13
REMARK    6  A    between atoms: C_10  and  O_11
REMARK    7  A    between atoms: O_11  and  C_12
REMARK    8  A    between atoms: O_13  and  C_14
REMARK                            x       y       z     vdW  Elec       q    Type
REMARK                         _______ _______ _______ _____ _____    ______ ____
ROOT
ATOM      1  C   UNL     1       0.817   0.978   0.381  0.00  0.00    +0.055 C 
ATOM      2  C   UNL     1       0.405  -0.486   0.215  0.00  0.00    +0.105 C 
ATOM      3  C   UNL     1      -1.123  -0.584   0.107  0.00  0.00    +0.050 C 
ATOM      4  C   UNL     1      -1.492  -2.043  -0.168  0.00  0.00    +0.069 C 
ATOM      5  C   UNL     1      -0.761  -2.943   0.797  0.00  0.00    +0.036 A 
ATOM      6  C   UNL     1       0.348  -2.501   1.495  0.00  0.00    +0.131 A 
ATOM      7  C   UNL     1       1.000  -3.361   2.373  0.00  0.00    +0.091 A 
ATOM      8  C   UNL     1       0.541  -4.656   2.552  0.00  0.00    +0.127 A 
ATOM      9  C   UNL     1      -0.573  -5.097   1.854  0.00  0.00    +0.091 A 
ATOM     10  C   UNL     1      -1.222  -4.242   0.979  0.00  0.00    +0.129 A 
ATOM     11  O   UNL     1       0.825  -1.236   1.356  0.00  0.00    -0.486 OA
ATOM     12  C   UNL     1       1.049  -1.063  -1.047  0.00  0.00    +0.055 C 
ENDROOT
BRANCH   4  13
ATOM     13  N   UNL     1      -1.114  -2.392  -1.544  0.00  0.00    +0.392 N 
ATOM     14  H   UNL     1      -0.435  -1.728  -1.885  0.00  0.00    -0.088 HD
ATOM     15  H   UNL     1      -0.715  -3.319  -1.558  0.00  0.00    -0.088 HD
ATOM     16  H   UNL     1      -1.933  -2.370  -2.134  0.00  0.00    -0.088 HD
ENDBRANCH   4  13
BRANCH   4  17
ATOM     17  C   UNL     1      -2.978  -2.225   0.004  0.00  0.00    +0.350 C 
ATOM     18  O   UNL     1      -3.658  -2.612  -0.931  0.00  0.00    -0.248 OA
ATOM     19  O   UNL     1      -3.501  -1.986   1.080  0.00  0.00    -0.248 OA
ENDBRANCH   4  17
BRANCH  10  20
ATOM     20  O   UNL     1      -2.314  -4.674   0.295  0.00  0.00    -0.495 OA
ATOM     21  C   UNL     1      -2.735  -6.020   0.528  0.00  0.00    +0.277 C 
ENDBRANCH  10  20
BRANCH   8  22
ATOM     22  O   UNL     1       1.182  -5.492   3.410  0.00  0.00    -0.495 OA
ATOM     23  C   UNL     1       0.653  -6.813   3.545  0.00  0.00    +0.277 C 
ENDBRANCH   8  22
TORSDOF 4
