REMARK  Name = ZINC34997537
REMARK  12 active torsions:
REMARK  status: ('A' for Active; 'I' for Inactive)
REMARK    1  A    between atoms: C_1  and  C_2
REMARK    2  A    between atoms: C_2  and  C_3
REMARK    3  A    between atoms: C_3  and  C_4
REMARK    4  A    between atoms: C_4  and  N_5
REMARK    5  A    between atoms: N_8  and  C_9
REMARK    6  A    between atoms: N_8  and  C_30
REMARK    7  A    between atoms: C_9  and  C_10
REMARK    8  A    between atoms: C_10  and  N_11
REMARK    9  A    between atoms: N_19  and  C_20
REMARK   10  A    between atoms: C_30  and  C_31
REMARK   11  A    between atoms: C_39  and  C_40
REMARK   12  A    between atoms: C_39  and  C_41
REMARK                            x       y       z     vdW  Elec       q    Type
REMARK                         _______ _______ _______ _____ _____    ______ ____
ROOT
ATOM      1  C   UNL     1      -4.521  -6.174   1.910  0.00  0.00    -0.059 C 
ENDROOT
BRANCH   1   2
ATOM      2  N   UNL     1      -4.889  -7.586   1.739  0.00  0.00    +0.383 N 
ATOM      3  C   UNL     1      -6.297  -7.677   1.334  0.00  0.00    -0.059 C 
ATOM      4  C   UNL     1      -6.651  -9.139   1.044  0.00  0.00    +0.091 C 
ATOM      5  N   UNL     1      -6.305  -9.945   2.225  0.00  0.00    -0.289 N 
ATOM      6  C   UNL     1      -4.959  -9.793   2.798  0.00  0.00    +0.091 C 
ATOM      7  C   UNL     1      -4.686  -8.300   3.005  0.00  0.00    -0.059 C 
ATOM      8  C   UNL     1      -7.197 -10.799   2.766  0.00  0.00    +0.306 C 
ATOM      9  O   UNL     1      -8.334 -10.844   2.337  0.00  0.00    -0.252 OA
ATOM     10  N   UNL     1      -6.828 -11.603   3.783  0.00  0.00    -0.269 N 
ATOM     11  H   UNL     1      -5.941 -11.522   4.168  0.00  0.00    +0.156 HD
ATOM     12  H   UNL     1      -4.309  -7.999   1.024  0.00  0.00    -0.082 HD
BRANCH  10  13
ATOM     13  C   UNL     1      -7.722 -12.552   4.282  0.00  0.00    +0.042 A 
ATOM     14  C   UNL     1      -8.811 -12.943   3.533  0.00  0.00    +0.024 A 
ATOM     15  C   UNL     1      -9.709 -13.888   4.021  0.00  0.00    +0.002 A 
ATOM     16  C   UNL     1      -9.537 -14.452   5.249  0.00  0.00    +0.008 A 
ATOM     17  C   UNL     1      -8.440 -14.081   6.044  0.00  0.00    -0.016 A 
ATOM     18  C   UNL     1      -7.516 -13.125   5.555  0.00  0.00    +0.003 A 
ATOM     19  C   UNL     1      -6.417 -12.760   6.348  0.00  0.00    +0.010 A 
ATOM     20  C   UNL     1      -6.249 -13.333   7.572  0.00  0.00    +0.001 A 
ATOM     21  C   UNL     1      -7.153 -14.279   8.051  0.00  0.00    +0.001 A 
ATOM     22  C   UNL     1      -8.237 -14.647   7.315  0.00  0.00    +0.008 A 
ENDBRANCH  10  13
ENDBRANCH   1   2
BRANCH   1  23
ATOM     23  C   UNL     1      -4.613  -5.456   0.562  0.00  0.00    +0.091 C 
BRANCH  23  27
ATOM     24  N   UNL     1      -2.623  -2.369   0.751  0.00  0.00    -0.299 N 
ATOM     25  C   UNL     1      -2.961  -3.665   0.594  0.00  0.00    +0.302 C 
ATOM     26  O   UNL     1      -2.107  -4.487   0.328  0.00  0.00    -0.253 OA
ATOM     27  N   UNL     1      -4.246  -4.048   0.733  0.00  0.00    -0.283 N 
ATOM     28  H   UNL     1      -3.305  -1.713   0.964  0.00  0.00    +0.150 HD
BRANCH  24  29
ATOM     29  C   UNL     1      -1.227  -1.953   0.601  0.00  0.00    +0.106 C 
BRANCH  29  30
ATOM     30  C   UNL     1      -1.117  -0.444   0.828  0.00  0.00    +0.018 C 
BRANCH  30  32
ATOM     31  C   UNL     1       0.450   1.500   0.898  0.00  0.00    +0.004 C 
ATOM     32  C   UNL     1       0.341  -0.009   0.671  0.00  0.00    -0.002 C 
ENDBRANCH  30  32
ENDBRANCH  29  30
ENDBRANCH  24  29
BRANCH  27  33
ATOM     33  C   UNL     1      -5.275  -3.056   1.054  0.00  0.00    +0.140 C 
BRANCH  33  34
ATOM     34  C   UNL     1      -5.845  -2.492  -0.222  0.00  0.00    -0.053 C 
ATOM     35  C   UNL     1      -6.942  -2.979  -0.754  0.00  0.00    -0.025 C 
ATOM     36  C   UNL     1      -7.475  -2.390  -2.038  0.00  0.00    +0.031 C 
ATOM     37  C   UNL     1      -6.603  -1.201  -2.462  0.00  0.00    -0.000 C 
ATOM     38  C   UNL     1      -6.268  -0.259  -1.292  0.00  0.00    +0.012 C 
ATOM     39  C   UNL     1      -5.175  -1.333  -0.940  0.00  0.00    +0.022 C 
ATOM     40  C   UNL     1      -5.110  -1.587  -2.462  0.00  0.00    -0.025 C 
ATOM     41  C   UNL     1      -4.215  -0.602  -3.216  0.00  0.00    +0.012 C 
ATOM     42  C   UNL     1      -4.848  -3.047  -2.839  0.00  0.00    +0.012 C 
ENDBRANCH  33  34
ENDBRANCH  27  33
ENDBRANCH  23  27
ENDBRANCH   1  23
TORSDOF 9
