REMARK  Name = ZINC34734879
REMARK  9 active torsions:
REMARK  status: ('A' for Active; 'I' for Inactive)
REMARK    1  A    between atoms: C_1  and  C_2
REMARK    2  A    between atoms: C_5  and  C_9
REMARK    3  A    between atoms: C_6  and  C_8
REMARK    4  A    between atoms: C_9  and  N_10
REMARK    5  A    between atoms: C_25  and  C_27
REMARK    6  A    between atoms: C_25  and  C_28
REMARK    7  A    between atoms: N_31  and  C_32
REMARK    8  A    between atoms: C_32  and  C_33
REMARK    9  A    between atoms: C_33  and  C_35
REMARK                            x       y       z     vdW  Elec       q    Type
REMARK                         _______ _______ _______ _____ _____    ______ ____
ROOT
ATOM      1  N   UNL     1      -2.484  -3.871   0.098  0.00  0.00    +0.384 N 
ATOM      2  C   UNL     1      -3.906  -4.052   0.414  0.00  0.00    -0.059 C 
ATOM      3  C   UNL     1      -4.180  -5.532   0.700  0.00  0.00    +0.089 C 
ATOM      4  N   UNL     1      -3.707  -6.324  -0.446  0.00  0.00    -0.304 N 
ATOM      5  C   UNL     1      -2.340  -6.087  -0.936  0.00  0.00    +0.089 C 
ATOM      6  C   UNL     1      -2.153  -4.581  -1.144  0.00  0.00    -0.059 C 
ATOM      7  C   UNL     1      -4.519  -7.258  -1.042  0.00  0.00    +0.202 A 
ATOM      8  N   UNL     1      -5.434  -6.867  -1.904  0.00  0.00    -0.208 NA
ATOM      9  C   UNL     1      -6.233  -7.748  -2.496  0.00  0.00    +0.118 A 
ATOM     10  C   UNL     1      -6.145  -9.127  -2.237  0.00  0.00    +0.076 A 
ATOM     11  C   UNL     1      -7.092  -9.970  -2.962  0.00  0.00    -0.018 A 
ATOM     12  C   UNL     1      -7.950  -9.351  -3.803  0.00  0.00    +0.021 A 
ATOM     13  S   UNL     1      -7.552  -7.631  -3.678  0.00  0.00    -0.071 S 
ATOM     14  C   UNL     1      -8.998 -10.011  -4.644  0.00  0.00    +0.203 C 
ATOM     15  O   UNL     1      -8.733 -11.423  -4.652  0.00  0.00    -0.368 OA
ATOM     16  C   UNL     1      -8.501 -11.968  -3.350  0.00  0.00    +0.068 C 
ATOM     17  C   UNL     1      -7.150 -11.489  -2.811  0.00  0.00    +0.071 C 
ATOM     18  C   UNL     1      -9.615 -11.512  -2.404  0.00  0.00    +0.041 C 
ATOM     19  C   UNL     1      -8.502 -13.496  -3.431  0.00  0.00    +0.041 C 
ATOM     20  C   UNL     1      -5.141  -9.521  -1.297  0.00  0.00    +0.264 A 
ATOM     21  O   UNL     1      -4.991 -10.696  -1.010  0.00  0.00    -0.267 OA
ATOM     22  N   UNL     1      -4.362  -8.577  -0.737  0.00  0.00    -0.276 N 
ATOM     23  H   UNL     1      -1.925  -4.238   0.853  0.00  0.00    -0.081 HD
ENDROOT
BRANCH   1  24
ATOM     24  C   UNL     1      -2.200  -2.439  -0.069  0.00  0.00    -0.043 C 
BRANCH  24  29
ATOM     25  C   UNL     1      -3.052   0.286   4.955  0.00  0.00    +0.044 C 
ATOM     26  C   UNL     1      -2.829  -0.424   3.645  0.00  0.00    -0.050 A 
ATOM     27  C   UNL     1      -3.800  -0.380   2.661  0.00  0.00    +0.003 A 
ATOM     28  C   UNL     1      -3.596  -1.032   1.460  0.00  0.00    +0.002 A 
ATOM     29  C   UNL     1      -2.422  -1.728   1.241  0.00  0.00    -0.061 A 
ATOM     30  C   UNL     1      -1.451  -1.772   2.224  0.00  0.00    -0.049 A 
ATOM     31  C   UNL     1      -1.653  -1.116   3.425  0.00  0.00    +0.007 A 
ATOM     32  C   UNL     1      -0.171  -2.531   1.987  0.00  0.00    +0.044 C 
ENDBRANCH  24  29
ENDBRANCH   1  24
BRANCH  22  33
ATOM     33  C   UNL     1      -3.328  -8.975   0.222  0.00  0.00    +0.158 C 
BRANCH  33  34
ATOM     34  C   UNL     1      -3.946  -9.143   1.586  0.00  0.00    -0.060 C 
ATOM     35  C   UNL     1      -4.355 -10.324   1.979  0.00  0.00    +0.009 C 
ATOM     36  C   UNL     1      -4.094  -7.952   2.498  0.00  0.00    +0.040 C 
ENDBRANCH  33  34
ENDBRANCH  22  33
TORSDOF 4
