REMARK  Name = ZINC03239072
REMARK  7 active torsions:
REMARK  status: ('A' for Active; 'I' for Inactive)
REMARK    1  A    between atoms: C_6  and  N_7
REMARK    2  A    between atoms: C_8  and  C_10
REMARK    3  A    between atoms: C_10  and  O_11
REMARK    4  A    between atoms: O_11  and  C_12
REMARK    5  A    between atoms: C_12  and  C_14
REMARK    6  A    between atoms: C_14  and  O_15
REMARK    7  A    between atoms: O_15  and  C_16
REMARK                            x       y       z     vdW  Elec       q    Type
REMARK                         _______ _______ _______ _____ _____    ______ ____
ROOT
ATOM      1  O   UNL     1       3.408   2.286  -0.310  0.00  0.00    -0.453 OA
ENDROOT
BRANCH   1   2
ATOM      2  C   UNL     1       4.708   1.955  -0.257  0.00  0.00    +0.346 C 
ATOM      3  O   UNL     1       5.033   0.815  -0.024  0.00  0.00    -0.247 OA
BRANCH   2   4
ATOM      4  C   UNL     1       5.763   3.007  -0.489  0.00  0.00    +0.349 C 
BRANCH   4   5
ATOM      5  O   UNL     1       7.058   2.414  -0.382  0.00  0.00    -0.479 OA
BRANCH   5   6
ATOM      6  C   UNL     1       8.129   3.231  -0.565  0.00  0.00    +0.141 A 
ATOM      7  C   UNL     1       7.935   4.576  -0.843  0.00  0.00    +0.068 A 
ATOM      8  C   UNL     1       9.025   5.407  -1.029  0.00  0.00    +0.063 A 
ATOM      9  C   UNL     1      10.309   4.896  -0.938  0.00  0.00    +0.061 A 
ATOM     10  C   UNL     1      10.504   3.555  -0.661  0.00  0.00    +0.045 A 
ATOM     11  C   UNL     1       9.416   2.723  -0.469  0.00  0.00    +0.084 A 
ATOM     12 CL   UNL     1       9.662   1.041  -0.115  0.00  0.00    -0.080 Cl
ATOM     13 CL   UNL     1      11.676   5.940  -1.172  0.00  0.00    -0.082 Cl
ATOM     14 CL   UNL     1       8.783   7.090  -1.376  0.00  0.00    -0.082 Cl
ENDBRANCH   5   6
ENDBRANCH   4   5
ENDBRANCH   2   4
ENDBRANCH   1   2
BRANCH   1  15
ATOM     15  C   UNL     1       2.448   1.222  -0.076  0.00  0.00    +0.328 C 
BRANCH  15  17
ATOM     16  N   UNL     1      -0.011   0.966   0.007  0.00  0.00    -0.283 N 
ATOM     17  C   UNL     1       1.050   1.777  -0.175  0.00  0.00    +0.255 C 
ATOM     18  O   UNL     1       0.880   2.953  -0.417  0.00  0.00    -0.272 OA
ATOM     19  H   UNL     1       0.122   0.012   0.124  0.00  0.00    +0.155 HD
BRANCH  16  25
ATOM     20  C   UNL     1      -1.528   2.770   0.536  0.00  0.00    +0.025 A 
ATOM     21  C   UNL     1      -2.804   3.297   0.544  0.00  0.00    +0.023 A 
ATOM     22  C   UNL     1      -3.864   2.556   0.051  0.00  0.00    +0.059 A 
ATOM     23  C   UNL     1      -3.646   1.286  -0.457  0.00  0.00    +0.061 A 
ATOM     24  C   UNL     1      -2.369   0.756  -0.472  0.00  0.00    +0.044 A 
ATOM     25  C   UNL     1      -1.305   1.499   0.022  0.00  0.00    +0.035 A 
ATOM     26 CL   UNL     1      -4.977   0.358  -1.074  0.00  0.00    -0.082 Cl
ATOM     27 CL   UNL     1      -5.468   3.219   0.069  0.00  0.00    -0.082 Cl
ENDBRANCH  16  25
ENDBRANCH  15  17
ENDBRANCH   1  15
TORSDOF 7
