REMARK  Name = ZINC66728052
REMARK  6 active torsions:
REMARK  status: ('A' for Active; 'I' for Inactive)
REMARK    1  A    between atoms: C_1  and  C_2
REMARK    2  A    between atoms: C_6  and  C_7
REMARK    3  A    between atoms: C_16  and  C_18
REMARK    4  A    between atoms: C_18  and  C_19
REMARK    5  A    between atoms: C_18  and  C_20
REMARK    6  A    between atoms: C_18  and  C_21
REMARK                            x       y       z     vdW  Elec       q    Type
REMARK                         _______ _______ _______ _____ _____    ______ ____
ROOT
ATOM      1  C   UNL     1      -0.746  -0.460   3.103  0.00  0.00    +0.282 C 
ATOM      2  O   UNL     1      -0.889  -0.726   1.924  0.00  0.00    -0.267 OA
ATOM      3  N   UNL     1      -0.438  -1.435   3.981  0.00  0.00    -0.293 N 
ATOM      4  C   UNL     1      -0.376  -1.183   5.378  0.00  0.00    +0.110 C 
ATOM      5  C   UNL     1       0.987  -0.598   5.875  0.00  0.00    +0.038 C 
ATOM      6  C   UNL     1       2.119  -1.304   5.060  0.00  0.00    +0.109 C 
ATOM      7  N   UNL     1       1.891  -2.683   4.800  0.00  0.00    -0.299 N 
ATOM      8  C   UNL     1       1.293  -3.032   3.485  0.00  0.00    +0.126 C 
ATOM      9  C   UNL     1      -0.156  -2.822   3.532  0.00  0.00    +0.127 C 
ATOM     10  C   UNL     1       2.203  -3.631   5.705  0.00  0.00    +0.221 C 
ATOM     11  O   UNL     1       2.595  -3.311   6.807  0.00  0.00    -0.275 OA
ENDROOT
BRANCH   1  17
ATOM     12  C   UNL     1      -1.212   2.032   1.273  0.00  0.00    +0.048 C 
ATOM     13  C   UNL     1      -1.111   2.015   2.776  0.00  0.00    +0.001 A 
ATOM     14  C   UNL     1      -1.216   3.120   3.635  0.00  0.00    +0.061 A 
ATOM     15  C   UNL     1      -1.067   2.659   4.898  0.00  0.00    +0.171 A 
ATOM     16  O   UNL     1      -0.878   1.333   4.853  0.00  0.00    -0.443 OA
ATOM     17  C   UNL     1      -0.907   0.921   3.568  0.00  0.00    +0.194 A 
ATOM     18 BR   UNL     1      -1.117   3.711   6.468  0.00  0.00    -0.008 Br
ENDBRANCH   1  17
BRANCH  10  19
ATOM     19  C   UNL     1       2.063  -5.088   5.348  0.00  0.00    +0.039 C 
ATOM     20  C   UNL     1       2.449  -5.948   6.554  0.00  0.00    +0.020 C 
ATOM     21  C   UNL     1       0.614  -5.381   4.956  0.00  0.00    +0.020 C 
ATOM     22  C   UNL     1       2.986  -5.416   4.173  0.00  0.00    +0.020 C 
ENDBRANCH  10  19
TORSDOF 2
