REMARK  Name = ZINC50430315
REMARK  7 active torsions:
REMARK  status: ('A' for Active; 'I' for Inactive)
REMARK    1  A    between atoms: C_1  and  C_2
REMARK    2  A    between atoms: C_5  and  C_19
REMARK    3  A    between atoms: C_7  and  N_8
REMARK    4  A    between atoms: N_8  and  C_9
REMARK    5  A    between atoms: C_9  and  C_11
REMARK    6  A    between atoms: C_9  and  C_12
REMARK    7  A    between atoms: N_17  and  C_18
REMARK                            x       y       z     vdW  Elec       q    Type
REMARK                         _______ _______ _______ _____ _____    ______ ____
ROOT
ATOM      1  N   UNL     1       0.025  -0.009   2.416  0.00  0.00    -0.333 N 
ATOM      2  H   UNL     1       0.011   0.961   2.419  0.00  0.00    +0.147 HD
ENDROOT
BRANCH   1   9
ATOM      3  C   UNL     1      -0.018   1.503   0.010  0.00  0.00    +0.045 C 
ATOM      4  C   UNL     1       0.002  -0.004   0.002  0.00  0.00    -0.030 A 
ATOM      5  C   UNL     1       0.006  -0.686  -1.200  0.00  0.00    +0.006 A 
ATOM      6  C   UNL     1       0.024  -2.066  -1.216  0.00  0.00    +0.019 A 
ATOM      7  C   UNL     1       0.040  -2.778  -0.015  0.00  0.00    +0.054 A 
ATOM      8  C   UNL     1       0.037  -2.090   1.198  0.00  0.00    +0.042 A 
ATOM      9  C   UNL     1       0.023  -0.703   1.203  0.00  0.00    +0.032 A 
BRANCH   7  10
ATOM     10  C   UNL     1       0.059  -4.210  -0.029  0.00  0.00    +0.099 C 
ATOM     11  N   UNL     1       0.074  -5.346  -0.040  0.00  0.00    -0.191 NA
ENDBRANCH   7  10
ENDBRANCH   1   9
BRANCH   1  12
ATOM     12  C   UNL     1       0.046  -0.745   3.682  0.00  0.00    +0.154 C 
ATOM     13  C   UNL     1       1.492  -1.090   4.046  0.00  0.00    +0.038 C 
BRANCH  12  14
ATOM     14  C   UNL     1      -0.556   0.107   4.769  0.00  0.00    +0.240 C 
ATOM     15  O   UNL     1      -0.963   1.219   4.512  0.00  0.00    -0.273 OA
ATOM     16  N   UNL     1      -0.642  -0.368   6.027  0.00  0.00    -0.239 N 
ATOM     17  C   UNL     1      -1.180   0.394   7.000  0.00  0.00    +0.306 C 
ATOM     18  O   UNL     1      -1.589   1.509   6.742  0.00  0.00    -0.252 OA
ATOM     19  N   UNL     1      -1.266  -0.081   8.258  0.00  0.00    -0.302 N 
ATOM     20  C   UNL     1      -1.852   0.747   9.315  0.00  0.00    +0.129 C 
ATOM     21  H   UNL     1      -0.316  -1.258   6.233  0.00  0.00    +0.159 HD
ATOM     22  H   UNL     1      -0.940  -0.971   8.464  0.00  0.00    +0.150 HD
ENDBRANCH  12  14
ENDBRANCH   1  12
TORSDOF 4
