REMARK  Name = ZINC63800247
REMARK  6 active torsions:
REMARK  status: ('A' for Active; 'I' for Inactive)
REMARK    1  A    between atoms: C_7  and  C_10
REMARK    2  A    between atoms: C_10  and  C_11
REMARK    3  A    between atoms: C_11  and  C_12
REMARK    4  A    between atoms: C_12  and  C_13
REMARK    5  A    between atoms: N_15  and  C_16
REMARK    6  A    between atoms: C_18  and  C_26
REMARK                            x       y       z     vdW  Elec       q    Type
REMARK                         _______ _______ _______ _____ _____    ______ ____
ROOT
ATOM      1  C   UNL     1      -0.729  -5.309  -2.876  0.00  0.00    +0.214 C 
ATOM      2  O   UNL     1      -0.183  -4.738  -3.796  0.00  0.00    -0.276 OA
ATOM      3  N   UNL     1      -1.542  -6.356  -3.120  0.00  0.00    -0.302 N 
ATOM      4  H   UNL     1      -1.979  -6.813  -2.385  0.00  0.00    +0.150 HD
ENDROOT
BRANCH   3   5
ATOM      5  C   UNL     1      -1.766  -6.804  -4.497  0.00  0.00    +0.151 C 
ATOM      6  C   UNL     1      -1.794  -8.346  -4.595  0.00  0.00    +0.132 C 
ATOM      7  C   UNL     1      -3.204  -8.888  -4.461  0.00  0.00    -0.046 C 
ATOM      8  C   UNL     1      -4.203  -8.050  -4.674  0.00  0.00    -0.013 C 
ATOM      9  S   UNL     1      -3.488  -6.458  -5.049  0.00  0.00    -0.106 S 
ATOM     10  C   UNL     1      -5.551  -8.716  -4.532  0.00  0.00    +0.042 C 
ATOM     11  C   UNL     1      -5.245 -10.228  -4.602  0.00  0.00    +0.009 C 
ATOM     12  C   UNL     1      -3.785 -10.264  -4.112  0.00  0.00    +0.033 C 
BRANCH   6  13
ATOM     13  C   UNL     1      -1.233  -8.765  -5.929  0.00  0.00    +0.220 C 
ATOM     14  O   UNL     1      -1.926  -9.377  -6.714  0.00  0.00    -0.275 OA
ATOM     15  N   UNL     1       0.040  -8.460  -6.251  0.00  0.00    -0.329 N 
ATOM     16  H   UNL     1       0.595  -7.971  -5.624  0.00  0.00    +0.145 HD
ATOM     17  H   UNL     1       0.401  -8.729  -7.110  0.00  0.00    +0.145 HD
ENDBRANCH   6  13
ENDBRANCH   3   5
BRANCH   1  18
ATOM     18  C   UNL     1      -0.499  -4.848  -1.460  0.00  0.00    +0.096 C 
BRANCH  18  19
ATOM     19  C   UNL     1       0.457  -3.653  -1.462  0.00  0.00    +0.014 C 
BRANCH  19  20
ATOM     20  C   UNL     1       0.691  -3.186  -0.024  0.00  0.00    +0.033 C 
BRANCH  20  27
ATOM     21  C   UNL     1      -0.016   1.348   0.009  0.00  0.00    +0.001 A 
ATOM     22  C   UNL     1       1.166   2.101   0.002  0.00  0.00    +0.002 A 
ATOM     23  C   UNL     1       2.391   1.535  -0.013  0.00  0.00    +0.026 A 
ATOM     24  C   UNL     1       2.529   0.120  -0.022  0.00  0.00    +0.043 A 
ATOM     25  N   UNL     1       3.587  -0.654  -0.037  0.00  0.00    -0.380 N 
ATOM     26  C   UNL     1       3.143  -2.053  -0.041  0.00  0.00    +0.144 C 
ATOM     27  C   UNL     1       1.631  -2.008  -0.025  0.00  0.00    -0.042 C 
ATOM     28  C   UNL     1       1.295  -0.698  -0.014  0.00  0.00    -0.001 A 
ATOM     29  C   UNL     1       0.002  -0.004   0.002  0.00  0.00    +0.010 A 
ATOM     30  H   UNL     1       4.509  -0.353  -0.045  0.00  0.00    +0.160 HD
ENDBRANCH  20  27
ENDBRANCH  19  20
ENDBRANCH  18  19
ENDBRANCH   1  18
TORSDOF 6
