REMARK  Name = ZINC12651051
REMARK  8 active torsions:
REMARK  status: ('A' for Active; 'I' for Inactive)
REMARK    1  A    between atoms: C_1  and  C_2
REMARK    2  A    between atoms: C_2  and  C_3
REMARK    3  A    between atoms: C_2  and  C_4
REMARK    4  A    between atoms: C_4  and  C_6
REMARK    5  A    between atoms: C_4  and  N_13
REMARK    6  A    between atoms: N_13  and  C_14
REMARK    7  A    between atoms: C_15  and  N_26
REMARK    8  A    between atoms: N_26  and  C_27
REMARK                            x       y       z     vdW  Elec       q    Type
REMARK                         _______ _______ _______ _____ _____    ______ ____
ROOT
ATOM      1  C   UNL     1      -2.693   1.406  -0.975  0.00  0.00    +0.115 A 
ATOM      2  C   UNL     1      -3.378   1.859  -2.086  0.00  0.00    +0.067 A 
ATOM      3  C   UNL     1      -3.934   3.219  -2.051  0.00  0.00    +0.021 A 
ATOM      4  C   UNL     1      -4.638   3.739  -3.140  0.00  0.00    +0.012 A 
ATOM      5  C   UNL     1      -5.144   5.007  -3.078  0.00  0.00    +0.001 A 
ATOM      6  C   UNL     1      -4.963   5.783  -1.941  0.00  0.00    +0.002 A 
ATOM      7  C   UNL     1      -4.271   5.289  -0.856  0.00  0.00    +0.026 A 
ATOM      8  C   UNL     1      -3.749   4.001  -0.898  0.00  0.00    +0.051 A 
ATOM      9  N   UNL     1      -3.053   3.484   0.177  0.00  0.00    -0.320 N 
ATOM     10  H   UNL     1      -2.929   4.030   0.969  0.00  0.00    +0.169 HD
ATOM     11  C   UNL     1      -2.548   2.239   0.150  0.00  0.00    +0.272 A 
ATOM     12  O   UNL     1      -1.944   1.822   1.124  0.00  0.00    -0.266 OA
ENDROOT
BRANCH   1  13
ATOM     13  N   UNL     1      -2.145   0.111  -0.966  0.00  0.00    -0.331 N 
ATOM     14  H   UNL     1      -2.317  -0.493  -1.706  0.00  0.00    +0.147 HD
BRANCH  13  15
ATOM     15  C   UNL     1      -1.316  -0.326   0.160  0.00  0.00    +0.103 C 
BRANCH  15  16
ATOM     16  C   UNL     1      -2.203  -0.809   1.279  0.00  0.00    -0.027 A 
ATOM     17  C   UNL     1      -3.327  -1.561   0.993  0.00  0.00    +0.008 A 
ATOM     18  C   UNL     1      -4.141  -2.005   2.018  0.00  0.00    +0.038 A 
ATOM     19  C   UNL     1      -3.829  -1.696   3.332  0.00  0.00    +0.123 A 
ATOM     20  C   UNL     1      -2.703  -0.943   3.616  0.00  0.00    +0.038 A 
ATOM     21  C   UNL     1      -1.888  -0.505   2.590  0.00  0.00    +0.008 A 
ATOM     22  F   UNL     1      -4.624  -2.130   4.335  0.00  0.00    -0.205 F 
ENDBRANCH  15  16
BRANCH  15  24
ATOM     23  C   UNL     1       0.540  -0.959  -1.389  0.00  0.00    +0.009 C 
ATOM     24  C   UNL     1      -0.400  -1.465  -0.293  0.00  0.00    +0.007 C 
ATOM     25  C   UNL     1       0.424  -1.961   0.897  0.00  0.00    +0.009 C 
ENDBRANCH  15  24
ENDBRANCH  13  15
ENDBRANCH   1  13
BRANCH   2  26
ATOM     26  N   UNL     1      -3.536   1.054  -3.202  0.00  0.00    -0.312 N 
ATOM     27  H   UNL     1      -4.000   0.206  -3.126  0.00  0.00    +0.152 HD
BRANCH  26  28
ATOM     28  C   UNL     1      -3.027   1.464  -4.437  0.00  0.00    +0.031 A 
ATOM     29  C   UNL     1      -2.216   2.589  -4.517  0.00  0.00    +0.023 A 
ATOM     30  C   UNL     1      -1.714   2.991  -5.739  0.00  0.00    +0.002 A 
ATOM     31  C   UNL     1      -2.018   2.275  -6.882  0.00  0.00    +0.000 A 
ATOM     32  C   UNL     1      -2.826   1.155  -6.806  0.00  0.00    +0.002 A 
ATOM     33  C   UNL     1      -3.326   0.744  -5.587  0.00  0.00    +0.023 A 
ENDBRANCH  26  28
ENDBRANCH   2  26
TORSDOF 6
