REMARK  Name = ZINC34749091
REMARK  10 active torsions:
REMARK  status: ('A' for Active; 'I' for Inactive)
REMARK    1  A    between atoms: C_1  and  C_2
REMARK    2  A    between atoms: C_2  and  C_3
REMARK    3  A    between atoms: C_4  and  C_37
REMARK    4  A    between atoms: N_10  and  C_23
REMARK    5  A    between atoms: N_16  and  C_19
REMARK    6  A    between atoms: C_19  and  C_20
REMARK    7  A    between atoms: C_20  and  C_21
REMARK    8  A    between atoms: C_20  and  C_22
REMARK    9  A    between atoms: C_23  and  C_24
REMARK   10  A    between atoms: N_26  and  C_27
REMARK                            x       y       z     vdW  Elec       q    Type
REMARK                         _______ _______ _______ _____ _____    ______ ____
ROOT
ATOM      1  C   UNL     1      -0.786   0.464  -0.926  0.00  0.00    -0.023 A 
ATOM      2  C   UNL     1      -1.179   0.335   0.349  0.00  0.00    -0.007 A 
ATOM      3  S   UNL     1      -2.772  -0.455   0.215  0.00  0.00    -0.073 S 
ATOM      4  C   UNL     1      -2.864  -0.589  -1.552  0.00  0.00    +0.117 A 
ATOM      5  C   UNL     1      -1.657  -0.011  -1.988  0.00  0.00    +0.076 A 
ATOM      6  C   UNL     1      -1.459   0.022  -3.405  0.00  0.00    +0.264 A 
ATOM      7  O   UNL     1      -0.441   0.500  -3.875  0.00  0.00    -0.267 OA
ATOM      8  N   UNL     1      -2.411  -0.481  -4.211  0.00  0.00    -0.271 N 
ATOM      9  C   UNL     1      -3.557  -1.019  -3.704  0.00  0.00    +0.202 A 
ATOM     10  N   UNL     1      -3.761  -1.072  -2.404  0.00  0.00    -0.208 NA
ATOM     11  N   UNL     1      -4.505  -1.522  -4.559  0.00  0.00    -0.304 N 
ATOM     12  C   UNL     1      -4.532  -2.953  -4.902  0.00  0.00    +0.089 C 
ATOM     13  C   UNL     1      -5.955  -3.477  -4.690  0.00  0.00    -0.060 C 
ATOM     14  N   UNL     1      -6.899  -2.653  -5.455  0.00  0.00    +0.382 N 
ATOM     15  C   UNL     1      -6.902  -1.280  -4.933  0.00  0.00    -0.060 C 
ATOM     16  C   UNL     1      -5.528  -0.648  -5.153  0.00  0.00    +0.089 C 
ATOM     17  C   UNL     1      -0.449   0.756   1.598  0.00  0.00    +0.052 C 
ATOM     18  H   UNL     1      -6.623  -2.642  -6.426  0.00  0.00    -0.082 HD
ENDROOT
BRANCH   1  20
ATOM     19  C   UNL     1       0.354   2.608  -1.424  0.00  0.00    +0.009 C 
ATOM     20  C   UNL     1       0.540   1.099  -1.255  0.00  0.00    +0.033 C 
ENDBRANCH   1  20
BRANCH  14  21
ATOM     21  C   UNL     1      -8.249  -3.221  -5.339  0.00  0.00    -0.076 C 
BRANCH  21  22
ATOM     22  C   UNL     1      -8.283  -4.595  -6.011  0.00  0.00    -0.034 C 
ATOM     23  C   UNL     1      -9.670  -5.216  -5.834  0.00  0.00    +0.005 C 
ATOM     24  C   UNL     1      -7.980  -4.441  -7.503  0.00  0.00    +0.005 C 
ENDBRANCH  21  22
ENDBRANCH  14  21
BRANCH   8  25
ATOM     25  C   UNL     1      -2.214  -0.450  -5.662  0.00  0.00    +0.224 C 
BRANCH  25  26
ATOM     26  C   UNL     1      -1.415  -1.655  -6.087  0.00  0.00    +0.237 C 
ATOM     27  O   UNL     1      -1.048  -2.461  -5.258  0.00  0.00    -0.274 OA
ATOM     28  N   UNL     1      -1.110  -1.838  -7.387  0.00  0.00    -0.283 N 
ATOM     29  H   UNL     1      -1.345  -1.160  -8.040  0.00  0.00    +0.155 HD
BRANCH  28  30
ATOM     30  C   UNL     1      -0.456  -3.002  -7.793  0.00  0.00    +0.041 A 
ATOM     31  C   UNL     1       0.348  -3.692  -6.912  0.00  0.00    +0.024 A 
ATOM     32  C   UNL     1       1.005  -4.854  -7.307  0.00  0.00    +0.002 A 
ATOM     33  C   UNL     1       0.871  -5.341  -8.571  0.00  0.00    +0.008 A 
ATOM     34  C   UNL     1       0.060  -4.668  -9.501  0.00  0.00    -0.016 A 
ATOM     35  C   UNL     1      -0.617  -3.487  -9.109  0.00  0.00    +0.003 A 
ATOM     36  C   UNL     1      -1.431  -2.819 -10.037  0.00  0.00    +0.010 A 
ATOM     37  C   UNL     1      -1.563  -3.315 -11.298  0.00  0.00    +0.001 A 
ATOM     38  C   UNL     1      -0.901  -4.479 -11.683  0.00  0.00    +0.001 A 
ATOM     39  C   UNL     1      -0.096  -5.148 -10.813  0.00  0.00    +0.008 A 
ENDBRANCH  28  30
ENDBRANCH  25  26
ENDBRANCH   8  25
TORSDOF 6
