REMARK  Name = ZINC67573583
REMARK  11 active torsions:
REMARK  status: ('A' for Active; 'I' for Inactive)
REMARK    1  A    between atoms: C_1  and  C_2
REMARK    2  A    between atoms: N_5  and  C_8
REMARK    3  A    between atoms: C_8  and  C_9
REMARK    4  A    between atoms: C_9  and  C_11
REMARK    5  A    between atoms: C_9  and  O_27
REMARK    6  A    between atoms: C_11  and  N_12
REMARK    7  A    between atoms: N_15  and  C_16
REMARK    8  A    between atoms: C_21  and  O_22
REMARK    9  A    between atoms: O_22  and  C_23
REMARK   10  A    between atoms: C_23  and  C_24
REMARK   11  A    between atoms: C_23  and  C_25
REMARK                            x       y       z     vdW  Elec       q    Type
REMARK                         _______ _______ _______ _____ _____    ______ ____
ROOT
ATOM      1  N   UNL     1       3.433  -6.309   2.314  0.00  0.00    -0.297 N 
ATOM      2  C   UNL     1       3.708  -7.611   2.529  0.00  0.00    +0.304 C 
ATOM      3  O   UNL     1       3.342  -8.450   1.728  0.00  0.00    -0.253 OA
ATOM      4  N   UNL     1       4.388  -7.983   3.631  0.00  0.00    -0.266 N 
ATOM      5  H   UNL     1       3.725  -5.640   2.953  0.00  0.00    +0.150 HD
ATOM      6  H   UNL     1       4.731  -7.310   4.239  0.00  0.00    +0.156 HD
ENDROOT
BRANCH   4   7
ATOM      7  C   UNL     1       4.599  -9.343   3.898  0.00  0.00    +0.080 A 
ATOM      8  C   UNL     1       4.793 -10.235   2.854  0.00  0.00    +0.065 A 
ATOM      9  C   UNL     1       5.003 -11.576   3.121  0.00  0.00    +0.125 A 
ATOM     10  C   UNL     1       5.018 -12.030   4.429  0.00  0.00    +0.042 A 
ATOM     11  C   UNL     1       4.825 -11.146   5.473  0.00  0.00    +0.050 A 
ATOM     12  C   UNL     1       4.621  -9.800   5.214  0.00  0.00    +0.142 A 
ATOM     13  F   UNL     1       5.191 -12.445   2.103  0.00  0.00    -0.205 F 
BRANCH  12  14
ATOM     14  O   UNL     1       4.437  -8.928   6.242  0.00  0.00    -0.488 OA
BRANCH  14  15
ATOM     15  C   UNL     1       4.561  -9.451   7.566  0.00  0.00    +0.167 C 
ATOM     16  C   UNL     1       6.036  -9.468   7.971  0.00  0.00    +0.051 C 
ATOM     17  C   UNL     1       3.775  -8.569   8.538  0.00  0.00    +0.051 C 
ENDBRANCH  14  15
ENDBRANCH  12  14
ENDBRANCH   4   7
BRANCH   1  18
ATOM     18  C   UNL     1       2.693  -5.905   1.116  0.00  0.00    +0.135 C 
BRANCH  18  19
ATOM     19  C   UNL     1       2.516  -4.385   1.114  0.00  0.00    +0.115 C 
BRANCH  19  20
ATOM     20  O   UNL     1       3.795  -3.757   0.999  0.00  0.00    -0.392 OA
ATOM     21  H   UNL     1       4.276  -3.989   0.193  0.00  0.00    +0.210 HD
ENDBRANCH  19  20
BRANCH  19  22
ATOM     22  C   UNL     1       1.638  -3.975  -0.070  0.00  0.00    -0.046 C 
BRANCH  22  27
ATOM     23  C   UNL     1      -0.164   1.436  -0.074  0.00  0.00    +0.007 C 
ATOM     24  C   UNL     1      -0.120  -0.094  -0.072  0.00  0.00    -0.018 C 
ATOM     25  C   UNL     1       0.619  -0.586  -1.320  0.00  0.00    -0.016 C 
ATOM     26  C   UNL     1       0.728  -2.112  -1.272  0.00  0.00    -0.078 C 
ATOM     27  N   UNL     1       1.469  -2.516  -0.071  0.00  0.00    +0.381 N 
ATOM     28  C   UNL     1       0.730  -2.109   1.130  0.00  0.00    -0.078 C 
ATOM     29  C   UNL     1       0.621  -0.584   1.175  0.00  0.00    -0.016 C 
ATOM     30  H   UNL     1       2.376  -2.074  -0.072  0.00  0.00    -0.082 HD
ENDBRANCH  22  27
ENDBRANCH  19  22
ENDBRANCH  18  19
ENDBRANCH   1  18
TORSDOF 8
