REMARK  Name = ZINC42399481
REMARK  9 active torsions:
REMARK  status: ('A' for Active; 'I' for Inactive)
REMARK    1  A    between atoms: C_1  and  C_2
REMARK    2  A    between atoms: C_2  and  C_3
REMARK    3  A    between atoms: C_3  and  C_5
REMARK    4  A    between atoms: C_3  and  N_10
REMARK    5  A    between atoms: C_5  and  C_6
REMARK    6  A    between atoms: N_7  and  O_8
REMARK    7  A    between atoms: N_10  and  C_11
REMARK    8  A    between atoms: N_10  and  C_12
REMARK    9  A    between atoms: C_12  and  C_13
REMARK                            x       y       z     vdW  Elec       q    Type
REMARK                         _______ _______ _______ _____ _____    ______ ____
ROOT
ATOM      1  C   UNL     1       0.824  -0.650   1.135  0.00  0.00    -0.062 C 
ENDROOT
BRANCH   1   2
ATOM      2  N   UNL     1      -0.287  -0.911   2.059  0.00  0.00    +0.383 N 
ATOM      3  C   UNL     1      -1.212  -1.878   1.452  0.00  0.00    -0.095 C 
ATOM      4  H   UNL     1      -0.778  -0.050   2.248  0.00  0.00    -0.081 HD
BRANCH   2   5
ATOM      5  C   UNL     1       0.240  -1.461   3.316  0.00  0.00    -0.036 C 
BRANCH   5   6
ATOM      6  C   UNL     1      -0.880  -1.591   4.316  0.00  0.00    -0.026 A 
ATOM      7  C   UNL     1      -1.705  -2.643   4.541  0.00  0.00    +0.024 A 
ATOM      8  C   UNL     1      -2.673  -2.538   5.522  0.00  0.00    +0.025 A 
ATOM      9  C   UNL     1      -2.769  -1.386   6.230  0.00  0.00    +0.060 A 
ATOM     10  S   UNL     1      -1.459  -0.404   5.516  0.00  0.00    -0.102 S 
ATOM     11 BR   UNL     1      -3.847  -3.979   5.871  0.00  0.00    -0.050 Br
ENDBRANCH   5   6
ENDBRANCH   2   5
ENDBRANCH   1   2
BRANCH   1  13
ATOM     12  C   UNL     1      -0.433   1.176  -0.017  0.00  0.00    +0.002 C 
ATOM     13  C   UNL     1       0.268  -0.170  -0.208  0.00  0.00    -0.018 C 
ENDBRANCH   1  13
BRANCH   1  14
ATOM     14  C   UNL     1       1.626  -1.936   0.924  0.00  0.00    +0.059 C 
BRANCH  14  15
ATOM     15  C   UNL     1       2.631  -2.089   2.037  0.00  0.00    +0.130 C 
ATOM     16  N   UNL     1       2.789  -1.140   2.899  0.00  0.00    -0.077 NA
ATOM     17  N   UNL     1       3.381  -3.240   2.134  0.00  0.00    -0.344 N 
ATOM     18  H   UNL     1       3.262  -3.952   1.486  0.00  0.00    +0.143 HD
ATOM     19  H   UNL     1       4.028  -3.338   2.850  0.00  0.00    +0.143 HD
BRANCH  16  20
ATOM     20  O   UNL     1       3.734  -1.283   3.944  0.00  0.00    -0.408 OA
ATOM     21  H   UNL     1       3.781  -0.522   4.539  0.00  0.00    +0.328 HD
ENDBRANCH  16  20
ENDBRANCH  14  15
ENDBRANCH   1  14
TORSDOF 7
