REMARK  Name = ZINC04139843
REMARK  10 active torsions:
REMARK  status: ('A' for Active; 'I' for Inactive)
REMARK    1  A    between atoms: C_1  and  C_2
REMARK    2  A    between atoms: C_2  and  CA_3
REMARK    3  A    between atoms: CA_3  and  C_5
REMARK    4  A    between atoms: CA_3  and  N_46
REMARK    5  A    between atoms: C_5  and  O_6
REMARK    6  A    between atoms: C_7  and  C_8
REMARK    7  A    between atoms: C_7  and  N_46
REMARK    8  A    between atoms: C_8  and  C_10
REMARK    9  A    between atoms: C_8  and  O_26
REMARK   10  A    between atoms: C_10  and  N_11
REMARK                            x       y       z     vdW  Elec       q    Type
REMARK                         _______ _______ _______ _____ _____    ______ ____
ROOT
ATOM      1  N   UNL     1       1.173   4.866  -5.897  0.00  0.00    -0.337 N 
ATOM      2  C   UNL     1       0.602   4.112  -6.907  0.00  0.00    +0.050 A 
ATOM      3  C   UNL     1       0.468   2.739  -7.090  0.00  0.00    +0.028 A 
ATOM      4  C   UNL     1      -0.166   2.251  -8.213  0.00  0.00    +0.022 A 
ATOM      5  C   UNL     1      -0.681   3.118  -9.166  0.00  0.00    +0.042 A 
ATOM      6  C   UNL     1      -0.562   4.482  -8.999  0.00  0.00    +0.030 A 
ATOM      7  C   UNL     1       0.076   4.988  -7.869  0.00  0.00    +0.009 A 
ATOM      8  C   UNL     1       0.366   6.354  -7.394  0.00  0.00    +0.009 A 
ATOM      9  C   UNL     1       1.044   6.216  -6.174  0.00  0.00    +0.050 A 
ATOM     10  C   UNL     1       1.448   7.356  -5.486  0.00  0.00    +0.028 A 
ATOM     11  C   UNL     1       1.182   8.605  -6.004  0.00  0.00    +0.022 A 
ATOM     12  C   UNL     1       0.512   8.740  -7.211  0.00  0.00    +0.042 A 
ATOM     13  C   UNL     1       0.103   7.622  -7.907  0.00  0.00    +0.030 A 
ATOM     14 CL   UNL     1       0.186  10.322  -7.848  0.00  0.00    -0.084 Cl
ATOM     15 CL   UNL     1      -1.476   2.485 -10.573  0.00  0.00    -0.084 Cl
ENDROOT
BRANCH   1  16
ATOM     16  C   UNL     1       1.826   4.314  -4.707  0.00  0.00    +0.151 C 
BRANCH  16  17
ATOM     17  C   UNL     1       0.793   4.145  -3.591  0.00  0.00    +0.117 C 
BRANCH  17  18
ATOM     18  O   UNL     1      -0.173   3.167  -3.979  0.00  0.00    -0.392 OA
ATOM     19  H   UNL     1       0.201   2.293  -4.157  0.00  0.00    +0.210 HD
ENDBRANCH  17  18
BRANCH  17  20
ATOM     20  C   UNL     1       1.496   3.687  -2.311  0.00  0.00    -0.049 C 
BRANCH  20  21
ATOM     21  N   UNL     1       0.494   3.527  -1.240  0.00  0.00    +0.384 N 
ATOM     22  H1  UNL     1       0.026   4.426  -1.078  0.00  0.00    -0.085 HD
ATOM     23  H2  UNL     1      -0.199   2.826  -1.527  0.00  0.00    -0.085 HD
BRANCH  21  24
ATOM     24  CA  UNL     1       1.145   3.085   0.008  0.00  0.00    -0.046 C 
BRANCH  24  26
ATOM     25  C   UNL     1       0.246   5.037   1.282  0.00  0.00    +0.002 C 
ATOM     26  C   UNL     1       0.285   3.510   1.200  0.00  0.00    -0.017 C 
ENDBRANCH  24  26
BRANCH  24  27
ATOM     27  C   UNL     1       1.286   1.562  -0.002  0.00  0.00    +0.140 C 
BRANCH  27  28
ATOM     28  O   UNL     1      -0.011   0.963   0.007  0.00  0.00    -0.397 OA
ATOM     29  H   UNL     1       0.002  -0.004   0.002  0.00  0.00    +0.209 HD
ENDBRANCH  27  28
ENDBRANCH  24  27
ENDBRANCH  21  24
ENDBRANCH  20  21
ENDBRANCH  17  20
ENDBRANCH  16  17
ENDBRANCH   1  16
TORSDOF 9
