REMARK  Name = ZINC65440287
REMARK  9 active torsions:
REMARK  status: ('A' for Active; 'I' for Inactive)
REMARK    1  A    between atoms: C_1  and  C_2
REMARK    2  A    between atoms: C_2  and  C_3
REMARK    3  A    between atoms: C_2  and  N_4
REMARK    4  A    between atoms: C_7  and  C_9
REMARK    5  A    between atoms: C_9  and  N_10
REMARK    6  A    between atoms: N_13  and  C_14
REMARK    7  A    between atoms: C_14  and  C_15
REMARK    8  A    between atoms: N_17  and  C_18
REMARK    9  A    between atoms: C_22  and  C_24
REMARK                            x       y       z     vdW  Elec       q    Type
REMARK                         _______ _______ _______ _____ _____    ______ ____
ROOT
ATOM      1  N   UNL     1       4.953  -2.085  -2.605  0.00  0.00    -0.299 N 
ATOM      2  C   UNL     1       6.228  -2.446  -2.361  0.00  0.00    +0.300 C 
ATOM      3  O   UNL     1       6.798  -2.031  -1.371  0.00  0.00    -0.253 OA
ATOM      4  N   UNL     1       6.872  -3.266  -3.216  0.00  0.00    -0.291 N 
ATOM      5  H   UNL     1       4.498  -2.416  -3.396  0.00  0.00    +0.150 HD
ATOM      6  H   UNL     1       6.417  -3.597  -4.006  0.00  0.00    +0.151 HD
ENDROOT
BRANCH   1   7
ATOM      7  C   UNL     1       4.253  -1.194  -1.677  0.00  0.00    +0.107 C 
BRANCH   7  11
ATOM      8  N   UNL     1       0.695  -0.468  -1.204  0.00  0.00    +0.381 N 
ATOM      9  C   UNL     1       0.841  -1.946  -1.165  0.00  0.00    -0.078 C 
ATOM     10  C   UNL     1       2.007  -2.248  -2.130  0.00  0.00    -0.015 C 
ATOM     11  C   UNL     1       2.831  -0.945  -2.183  0.00  0.00    -0.012 C 
ATOM     12  C   UNL     1       2.092   0.035  -1.246  0.00  0.00    -0.074 C 
ATOM     13  H   UNL     1       0.193  -0.183  -2.031  0.00  0.00    -0.081 HD
BRANCH   8  15
ATOM     14  C   UNL     1      -0.011   1.543   0.002  0.00  0.00    -0.014 C 
ATOM     15  C   UNL     1       0.011   0.013   0.004  0.00  0.00    -0.075 C 
ATOM     16  C   UNL     1      -1.423  -0.518   0.023  0.00  0.00    -0.014 C 
ENDBRANCH   8  15
ENDBRANCH   7  11
ENDBRANCH   1   7
BRANCH   4  17
ATOM     17  C   UNL     1       8.258  -3.658  -2.951  0.00  0.00    +0.202 C 
BRANCH  17  18
ATOM     18  C   UNL     1       8.741  -4.571  -4.048  0.00  0.00    +0.234 C 
ATOM     19  O   UNL     1       7.999  -4.865  -4.962  0.00  0.00    -0.274 OA
ATOM     20  N   UNL     1       9.996  -5.060  -4.014  0.00  0.00    -0.284 N 
ATOM     21  H   UNL     1      10.610  -4.772  -3.321  0.00  0.00    +0.155 HD
BRANCH  20  22
ATOM     22  C   UNL     1      10.413  -5.984  -4.979  0.00  0.00    +0.035 A 
ATOM     23  C   UNL     1      11.292  -7.003  -4.632  0.00  0.00    +0.023 A 
ATOM     24  C   UNL     1      11.707  -7.917  -5.582  0.00  0.00    +0.003 A 
ATOM     25  C   UNL     1      11.251  -7.825  -6.881  0.00  0.00    +0.017 A 
ATOM     26  C   UNL     1      10.368  -6.805  -7.239  0.00  0.00    +0.026 A 
ATOM     27  C   UNL     1       9.946  -5.886  -6.280  0.00  0.00    +0.040 A 
BRANCH  26  28
ATOM     28  C   UNL     1       9.893  -6.707  -8.587  0.00  0.00    -0.070 C 
ATOM     29  C   UNL     1       9.504  -6.627  -9.692  0.00  0.00    +0.009 C 
ENDBRANCH  26  28
ENDBRANCH  20  22
ENDBRANCH  17  18
ENDBRANCH   4  17
TORSDOF 7
