REMARK  Name = ZINC10341693
REMARK  7 active torsions:
REMARK  status: ('A' for Active; 'I' for Inactive)
REMARK    1  A    between atoms: C_1  and  C_2
REMARK    2  A    between atoms: C_4  and  S_21
REMARK    3  A    between atoms: C_6  and  N_9
REMARK    4  A    between atoms: C_7  and  C_8
REMARK    5  A    between atoms: C_10  and  C_12
REMARK    6  A    between atoms: C_12  and  N_46
REMARK    7  A    between atoms: S_21  and  N_24
REMARK                            x       y       z     vdW  Elec       q    Type
REMARK                         _______ _______ _______ _____ _____    ______ ____
ROOT
ATOM      1  N   UNL     1      -3.601   0.606   3.584  0.00  0.00    -0.287 N 
ATOM      2  C   UNL     1      -3.744  -0.650   3.117  0.00  0.00    +0.201 C 
ATOM      3  O   UNL     1      -2.983  -1.074   2.272  0.00  0.00    -0.278 OA
ATOM      4  H   UNL     1      -4.161   0.920   4.311  0.00  0.00    +0.155 HD
ENDROOT
BRANCH   1  10
ATOM      5  C   UNL     1      -2.105   5.162   2.499  0.00  0.00    +0.044 C 
ATOM      6  C   UNL     1      -1.894   3.670   2.480  0.00  0.00    -0.044 A 
ATOM      7  C   UNL     1      -0.751   3.141   1.909  0.00  0.00    +0.032 A 
ATOM      8  C   UNL     1      -0.556   1.773   1.885  0.00  0.00    +0.107 A 
ATOM      9  C   UNL     1      -1.498   0.929   2.441  0.00  0.00    +0.052 A 
ATOM     10  C   UNL     1      -2.645   1.457   3.019  0.00  0.00    +0.038 A 
ATOM     11  C   UNL     1      -2.840   2.832   3.037  0.00  0.00    -0.026 A 
ATOM     12  C   UNL     1      -4.083   3.410   3.664  0.00  0.00    +0.046 C 
BRANCH   8  13
ATOM     13  S   UNL     1       0.900   1.104   1.151  0.00  0.00    +0.056 S 
ATOM     14  O   UNL     1       1.106  -0.170   1.746  0.00  0.00    -0.153 OA
ATOM     15  O   UNL     1       1.882   2.130   1.188  0.00  0.00    -0.153 OA
BRANCH  13  16
ATOM     16  N   UNL     1       0.561   0.830  -0.447  0.00  0.00    -0.204 NA
ATOM     17  H   UNL     1      -0.318   1.041  -0.799  0.00  0.00    +0.144 HD
ATOM     18  H   UNL     1       1.241   0.459  -1.030  0.00  0.00    +0.144 HD
ENDBRANCH  13  16
ENDBRANCH   8  13
ENDBRANCH   1  10
BRANCH   2  19
ATOM     19  C   UNL     1      -4.849  -1.528   3.644  0.00  0.00    +0.019 C 
BRANCH  19  28
ATOM     20  C   UNL     1      -5.258  -2.560   1.491  0.00  0.00    -0.073 C 
ATOM     21  C   UNL     1      -4.877  -3.799   0.662  0.00  0.00    +0.024 C 
ATOM     22  C   UNL     1      -5.342  -5.006   1.409  0.00  0.00    -0.011 A 
ATOM     23  C   UNL     1      -5.745  -5.053   2.710  0.00  0.00    -0.054 A 
ATOM     24  C   UNL     1      -6.141  -6.298   3.194  0.00  0.00    +0.009 A 
ATOM     25  C   UNL     1      -6.111  -7.380   2.382  0.00  0.00    +0.045 A 
ATOM     26  S   UNL     1      -5.507  -6.679   0.854  0.00  0.00    -0.101 S 
ATOM     27  C   UNL     1      -5.741  -3.777   3.546  0.00  0.00    -0.042 C 
ATOM     28  N   UNL     1      -4.839  -2.799   2.893  0.00  0.00    +0.388 N 
ATOM     29  H   UNL     1      -3.885  -3.178   2.893  0.00  0.00    -0.081 HD
ENDBRANCH  19  28
ENDBRANCH   2  19
TORSDOF 5
