REMARK  Name = ZINC04899642
REMARK  13 active torsions:
REMARK  status: ('A' for Active; 'I' for Inactive)
REMARK    1  A    between atoms: C_1  and  C_2
REMARK    2  A    between atoms: C_3  and  C_30
REMARK    3  A    between atoms: C_4  and  S_14
REMARK    4  A    between atoms: C_5  and  C_13
REMARK    5  A    between atoms: C_9  and  C_11
REMARK    6  A    between atoms: C_9  and  C_12
REMARK    7  A    between atoms: S_14  and  N_17
REMARK    8  A    between atoms: N_20  and  C_21
REMARK    9  A    between atoms: C_21  and  C_22
REMARK   10  A    between atoms: C_22  and  C_23
REMARK   11  A    between atoms: C_23  and  C_24
REMARK   12  A    between atoms: C_24  and  C_26
REMARK   13  A    between atoms: C_24  and  N_59
REMARK                            x       y       z     vdW  Elec       q    Type
REMARK                         _______ _______ _______ _____ _____    ______ ____
ROOT
ATOM      1  N   UNK     1      -7.255   8.275  -7.874  0.00  0.00    -0.227 N 
ATOM      2  C   UNK     1      -8.556   8.117  -8.288  0.00  0.00    +0.189 C 
ATOM      3  H   UNK     1      -9.226   7.101  -6.654  0.00  0.00    +0.159 HD
ATOM      4  N   UNK     1      -8.966   8.651  -9.487  0.00  0.00    -0.356 N 
ATOM      5  H   UNK     1      -6.656   8.855  -8.369  0.00  0.00    +0.191 HD
ATOM      6  H   UNK     1      -8.337   9.140 -10.040  0.00  0.00    +0.162 HD
ATOM      7  N   UNK     1      -9.462   7.456  -7.581  0.00  0.00    -0.370 N 
ATOM      8  H   UNK     1     -10.401   7.301  -7.967  0.00  0.00    +0.159 HD
ENDROOT
BRANCH   1   9
ATOM      9  S   UNK     1      -6.711   7.477  -6.529  0.00  0.00    +0.081 S 
ATOM     10  O   UNK     1      -5.320   7.750  -6.429  0.00  0.00    -0.148 OA
ATOM     11  O   UNK     1      -7.623   7.776  -5.482  0.00  0.00    -0.148 OA
BRANCH   9  15
ATOM     12  C   UNK     1      -5.516   3.211  -9.298  0.00  0.00    +0.048 C 
ATOM     13  C   UNK     1      -6.280   3.826  -8.154  0.00  0.00    -0.004 A 
ATOM     14  C   UNK     1      -6.171   5.178  -7.902  0.00  0.00    -0.017 A 
ATOM     15  C   UNK     1      -6.863   5.751  -6.851  0.00  0.00    +0.117 A 
ATOM     16  C   UNK     1      -7.680   4.965  -6.057  0.00  0.00    -0.017 A 
ATOM     17  C   UNK     1      -7.797   3.618  -6.311  0.00  0.00    +0.003 A 
ATOM     18  C   UNK     1      -7.097   3.028  -7.357  0.00  0.00    +0.128 A 
ATOM     19  O   UNK     1      -7.343   1.691  -7.422  0.00  0.00    -0.485 OA
ATOM     20  C   UNK     1      -8.554   1.396  -6.706  0.00  0.00    +0.109 C 
ATOM     21  C   UNK     1      -8.607   2.522  -5.646  0.00  0.00    +0.086 C 
ATOM     22  C   UNK     1      -9.767   1.470  -7.636  0.00  0.00    +0.056 C 
ATOM     23  C   UNK     1      -8.469   0.022  -6.039  0.00  0.00    +0.056 C 
ATOM     24  C   UNK     1      -8.440   5.585  -4.913  0.00  0.00    +0.046 C 
ATOM     25  C   UNK     1      -5.289   6.034  -8.774  0.00  0.00    +0.046 C 
ENDBRANCH   9  15
ENDBRANCH   1   9
BRANCH   4  26
ATOM     26  C   UNK     1     -10.353   8.482  -9.928  0.00  0.00    +0.115 C 
BRANCH  26  27
ATOM     27  C   UNK     1     -10.544   9.167 -11.283  0.00  0.00    +0.020 C 
BRANCH  27  28
ATOM     28  C   UNK     1     -11.992   8.990 -11.744  0.00  0.00    -0.003 C 
BRANCH  28  29
ATOM     29  C   UNK     1     -12.183   9.675 -13.099  0.00  0.00    +0.040 C 
BRANCH  29  32
ATOM     30  H   UNK     1     -11.634   8.023 -14.198  0.00  0.00    -0.089 HD
ATOM     31  H   UNK     1     -11.426   9.464 -15.001  0.00  0.00    -0.089 HD
ATOM     32  N   UNK     1     -11.344   8.995 -14.101  0.00  0.00    +0.387 N 
ATOM     33  H   UNK     1     -10.364   9.023 -13.796  0.00  0.00    -0.089 HD
ENDBRANCH  29  32
BRANCH  29  34
ATOM     34  C   UNK     1     -13.636   9.608 -13.495  0.00  0.00    +0.342 C 
ATOM     35  O   UNK     1     -14.008   8.773 -14.285  0.00  0.00    -0.248 OA
ATOM     36  O   UNK     1     -14.516  10.472 -12.966  0.00  0.00    -0.248 OA
ENDBRANCH  29  34
ENDBRANCH  28  29
ENDBRANCH  27  28
ENDBRANCH  26  27
ENDBRANCH   4  26
TORSDOF 8
