REMARK  Name = ZINC14748887
REMARK  9 active torsions:
REMARK  status: ('A' for Active; 'I' for Inactive)
REMARK    1  A    between atoms: C_1  and  C_2
REMARK    2  A    between atoms: C_4  and  C_8
REMARK    3  A    between atoms: C_8  and  N_9
REMARK    4  A    between atoms: N_9  and  C_10
REMARK    5  A    between atoms: C_12  and  C_21
REMARK    6  A    between atoms: C_14  and  S_16
REMARK    7  A    between atoms: S_16  and  N_19
REMARK    8  A    between atoms: N_19  and  C_20
REMARK    9  A    between atoms: N_23  and  C_24
REMARK                            x       y       z     vdW  Elec       q    Type
REMARK                         _______ _______ _______ _____ _____    ______ ____
ROOT
ATOM      1  C   UNL     1      -0.811   1.610  -6.891  0.00  0.00    +0.030 A 
ATOM      2  C   UNL     1      -0.592   2.859  -7.452  0.00  0.00    +0.036 A 
ATOM      3  C   UNL     1      -0.408   2.976  -8.830  0.00  0.00    +0.041 A 
ATOM      4  C   UNL     1      -0.447   1.835  -9.634  0.00  0.00    +0.041 A 
ATOM      5  C   UNL     1      -0.666   0.598  -9.066  0.00  0.00    +0.108 A 
ATOM      6  C   UNL     1      -0.842   0.480  -7.699  0.00  0.00    +0.051 A 
ENDROOT
BRANCH   3   7
ATOM      7  C   UNL     1      -0.174   4.304  -9.436  0.00  0.00    +0.248 C 
ATOM      8  O   UNL     1      -0.014   4.404 -10.637  0.00  0.00    -0.270 OA
ATOM      9  N   UNL     1      -0.138   5.403  -8.658  0.00  0.00    -0.281 N 
ATOM     10  H   UNL     1      -0.332   5.333  -7.710  0.00  0.00    +0.155 HD
BRANCH   9  11
ATOM     11  C   UNL     1       0.180   6.646  -9.216  0.00  0.00    +0.034 A 
ATOM     12  C   UNL     1      -0.237   6.957 -10.504  0.00  0.00    +0.023 A 
ATOM     13  C   UNL     1       0.079   8.185 -11.050  0.00  0.00    +0.006 A 
ATOM     14  C   UNL     1       0.810   9.108 -10.320  0.00  0.00    -0.044 A 
ATOM     15  C   UNL     1       1.227   8.800  -9.038  0.00  0.00    -0.042 A 
ATOM     16  C   UNL     1       0.908   7.572  -8.484  0.00  0.00    +0.027 A 
ATOM     17  C   UNL     1       2.002   9.964  -8.459  0.00  0.00    +0.036 C 
ATOM     18  C   UNL     1       2.388  10.836  -9.672  0.00  0.00    +0.009 C 
ATOM     19  C   UNL     1       1.277  10.500 -10.689  0.00  0.00    +0.036 C 
ENDBRANCH   9  11
ENDBRANCH   3   7
BRANCH   5  20
ATOM     20  S   UNL     1      -0.716  -0.840 -10.084  0.00  0.00    +0.058 S 
ATOM     21  O   UNL     1      -1.478  -1.810  -9.380  0.00  0.00    -0.153 OA
ATOM     22  O   UNL     1      -1.061  -0.400 -11.390  0.00  0.00    -0.153 OA
BRANCH  20  23
ATOM     23  N   UNL     1       0.830  -1.428 -10.176  0.00  0.00    -0.193 NA
ATOM     24  C   UNL     1       1.491  -1.940  -8.973  0.00  0.00    +0.127 C 
ATOM     25  H   UNL     1       1.297  -1.433 -11.026  0.00  0.00    +0.148 HD
ENDBRANCH  20  23
ENDBRANCH   5  20
BRANCH   1  26
ATOM     26  N   UNL     1      -0.996   1.487  -5.511  0.00  0.00    -0.338 N 
ATOM     27  H   UNL     1      -1.145   0.613  -5.118  0.00  0.00    +0.146 HD
BRANCH  26  28
ATOM     28  C   UNL     1      -0.963   2.678  -4.659  0.00  0.00    +0.156 C 
BRANCH  28  32
ATOM     29  C   UNL     1      -0.076   1.089   0.010  0.00  0.00    +0.084 C 
ATOM     30  C   UNL     1      -0.797   1.590  -1.215  0.00  0.00    +0.081 A 
ATOM     31  N   UNL     1      -0.245   1.850  -2.369  0.00  0.00    -0.346 N 
ATOM     32  C   UNL     1      -1.187   2.275  -3.224  0.00  0.00    +0.051 A 
ATOM     33  H   UNL     1      -2.776   1.728  -0.596  0.00  0.00    +0.166 HD
ATOM     34  C   UNL     1      -2.367   2.278  -2.576  0.00  0.00    +0.106 A 
ATOM     35  N   UNL     1      -2.121   1.838  -1.303  0.00  0.00    -0.350 N 
ATOM     36  H   UNL     1       0.698   1.752  -2.575  0.00  0.00    +0.167 HD
ENDBRANCH  28  32
ENDBRANCH  26  28
ENDBRANCH   1  26
TORSDOF 7
