REMARK  Name = ZINC59170377
REMARK  10 active torsions:
REMARK  status: ('A' for Active; 'I' for Inactive)
REMARK    1  A    between atoms: C_1  and  C_2
REMARK    2  A    between atoms: C_2  and  C_3
REMARK    3  A    between atoms: C_2  and  C_4
REMARK    4  A    between atoms: C_2  and  C_5
REMARK    5  A    between atoms: C_9  and  C_27
REMARK    6  A    between atoms: N_11  and  C_12
REMARK    7  A    between atoms: C_15  and  S_18
REMARK    8  A    between atoms: S_18  and  N_21
REMARK    9  A    between atoms: C_24  and  O_26
REMARK   10  A    between atoms: N_29  and  C_30
REMARK                            x       y       z     vdW  Elec       q    Type
REMARK                         _______ _______ _______ _____ _____    ______ ____
ROOT
ATOM      1  C   UNL     1       0.189  -0.453  -1.638  0.00  0.00    -0.038 A 
ATOM      2  C   UNL     1       0.107  -1.649  -2.315  0.00  0.00    +0.016 A 
ATOM      3  C   UNL     1       1.139  -2.029  -3.181  0.00  0.00    +0.022 A 
ATOM      4  C   UNL     1       1.080  -3.301  -3.905  0.00  0.00    +0.030 A 
ATOM      5  C   UNL     1       2.243  -3.738  -4.525  0.00  0.00    +0.098 A 
ATOM      6  C   UNL     1       3.437  -2.878  -4.397  0.00  0.00    +0.212 A 
ATOM      7  N   UNL     1       4.649  -3.386  -4.467  0.00  0.00    -0.325 N 
ATOM      8  O   UNL     1       3.246  -1.548  -4.205  0.00  0.00    -0.435 OA
ATOM      9  C   UNL     1       2.250  -1.185  -3.359  0.00  0.00    +0.179 A 
ATOM     10  C   UNL     1       2.315   0.019  -2.665  0.00  0.00    +0.160 A 
ATOM     11  C   UNL     1       1.284   0.380  -1.814  0.00  0.00    +0.053 A 
ATOM     12  H   UNL     1       4.775  -4.346  -4.425  0.00  0.00    +0.169 HD
ENDROOT
BRANCH   7  13
ATOM     13  C   UNL     1       5.730  -2.559  -4.600  0.00  0.00    +0.042 A 
ATOM     14  C   UNL     1       5.695  -1.499  -5.510  0.00  0.00    +0.027 A 
ATOM     15  C   UNL     1       6.789  -0.669  -5.638  0.00  0.00    +0.030 A 
ATOM     16  C   UNL     1       7.919  -0.884  -4.870  0.00  0.00    +0.105 A 
ATOM     17  C   UNL     1       7.961  -1.932  -3.967  0.00  0.00    +0.030 A 
ATOM     18  C   UNL     1       6.872  -2.766  -3.823  0.00  0.00    +0.027 A 
BRANCH  16  19
ATOM     19  S   UNL     1       9.312   0.182  -5.041  0.00  0.00    +0.056 S 
ATOM     20  O   UNL     1      10.444  -0.557  -4.605  0.00  0.00    -0.153 OA
ATOM     21  O   UNL     1       9.229   0.753  -6.339  0.00  0.00    -0.153 OA
BRANCH  19  22
ATOM     22  N   UNL     1       9.114   1.424  -3.964  0.00  0.00    -0.204 NA
ATOM     23  H   UNL     1       8.329   1.451  -3.393  0.00  0.00    +0.144 HD
ATOM     24  H   UNL     1       9.782   2.124  -3.903  0.00  0.00    +0.144 HD
ENDBRANCH  19  22
ENDBRANCH  16  19
ENDBRANCH   7  13
BRANCH   1  26
ATOM     25  C   UNL     1      -0.592   1.319  -0.089  0.00  0.00    +0.015 C 
ATOM     26  C   UNL     1      -0.921  -0.043  -0.705  0.00  0.00    -0.013 C 
ATOM     27  C   UNL     1      -1.064  -1.084   0.406  0.00  0.00    +0.015 C 
ATOM     28  C   UNL     1      -2.233   0.054  -1.486  0.00  0.00    +0.015 C 
ENDBRANCH   1  26
BRANCH   5  29
ATOM     29  C   UNL     1       2.285  -5.004  -5.276  0.00  0.00    +0.253 C 
ATOM     30  O   UNL     1       1.323  -5.748  -5.268  0.00  0.00    -0.270 OA
ATOM     31  N   UNL     1       3.390  -5.338  -5.973  0.00  0.00    -0.281 N 
ATOM     32  H   UNL     1       4.169  -4.761  -5.952  0.00  0.00    +0.155 HD
BRANCH  31  33
ATOM     33  C   UNL     1       3.412  -6.517  -6.724  0.00  0.00    +0.034 A 
ATOM     34  C   UNL     1       2.666  -7.616  -6.319  0.00  0.00    +0.023 A 
ATOM     35  C   UNL     1       2.689  -8.778  -7.064  0.00  0.00    +0.002 A 
ATOM     36  C   UNL     1       3.456  -8.849  -8.213  0.00  0.00    +0.000 A 
ATOM     37  C   UNL     1       4.200  -7.757  -8.619  0.00  0.00    +0.002 A 
ATOM     38  C   UNL     1       4.176  -6.590  -7.882  0.00  0.00    +0.023 A 
ENDBRANCH  31  33
ENDBRANCH   5  29
BRANCH  10  39
ATOM     39  O   UNL     1       3.386   0.842  -2.826  0.00  0.00    -0.503 OA
ATOM     40  H   UNL     1       3.283   1.486  -3.539  0.00  0.00    +0.292 HD
ENDBRANCH  10  39
TORSDOF 7
