REMARK  Name = ZINC58108738
REMARK  5 active torsions:
REMARK  status: ('A' for Active; 'I' for Inactive)
REMARK    1  A    between atoms: C_1  and  C_2
REMARK    2  A    between atoms: C_2  and  C_22
REMARK    3  A    between atoms: C_5  and  C_13
REMARK    4  A    between atoms: C_13  and  C_15
REMARK    5  A    between atoms: C_13  and  N_21
REMARK                            x       y       z     vdW  Elec       q    Type
REMARK                         _______ _______ _______ _____ _____    ______ ____
ROOT
ATOM      1  C   UNL     1      -0.019   1.526   0.010  0.00  0.00    +0.025 C 
ATOM      2  C   UNL     1       0.002  -0.004   0.002  0.00  0.00    +0.068 C 
ATOM      3  C   UNL     1       0.787  -0.516  -1.184  0.00  0.00    -0.009 A 
ATOM      4  C   UNL     1       0.620  -0.386  -2.545  0.00  0.00    +0.008 A 
ATOM      5  C   UNL     1       1.519  -0.980  -3.412  0.00  0.00    -0.056 A 
ATOM      6  C   UNL     1       2.585  -1.704  -2.908  0.00  0.00    +0.042 A 
ATOM      7  C   UNL     1       2.756  -1.837  -1.544  0.00  0.00    +0.145 A 
ATOM      8  C   UNL     1       1.852  -1.240  -0.664  0.00  0.00    +0.073 A 
ATOM      9  N   UNL     1       1.808  -1.229   0.732  0.00  0.00    -0.282 N 
ATOM     10  C   UNL     1       0.761  -0.531   1.202  0.00  0.00    +0.227 C 
ATOM     11  O   UNL     1       0.476  -0.356   2.368  0.00  0.00    -0.275 OA
ATOM     12  F   UNL     1       3.799  -2.546  -1.061  0.00  0.00    -0.204 F 
ATOM     13  C   UNL     1      -1.424  -0.558  -0.016  0.00  0.00    +0.025 C 
ATOM     14  H   UNL     1       2.458  -1.675   1.297  0.00  0.00    +0.155 HD
ENDROOT
BRANCH   5  15
ATOM     15  C   UNL     1       1.338  -0.840  -4.901  0.00  0.00    -0.015 C 
BRANCH  15  16
ATOM     16  C   UNL     1       0.690  -2.108  -5.458  0.00  0.00    +0.108 C 
ATOM     17  C   UNL     1       0.496  -1.971  -6.984  0.00  0.00    +0.032 C 
ATOM     18  C   UNL     1      -0.890  -2.637  -7.201  0.00  0.00    +0.030 C 
ATOM     19  C   UNL     1      -1.616  -2.240  -5.891  0.00  0.00    +0.160 C 
ATOM     20  O   UNL     1      -0.604  -2.291  -4.871  0.00  0.00    -0.378 OA
ENDBRANCH  15  16
BRANCH  15  21
ATOM     21  N   UNL     1       2.648  -0.639  -5.537  0.00  0.00    +0.384 N 
ATOM     22  H   UNL     1       2.526  -0.545  -6.534  0.00  0.00    -0.089 HD
ATOM     23  H   UNL     1       3.075   0.198  -5.169  0.00  0.00    -0.089 HD
ATOM     24  H   UNL     1       3.240  -1.433  -5.343  0.00  0.00    -0.089 HD
ENDBRANCH  15  21
ENDBRANCH   5  15
TORSDOF 3
