REMARK  Name = ZINC37164467
REMARK  11 active torsions:
REMARK  status: ('A' for Active; 'I' for Inactive)
REMARK    1  A    between atoms: C_1  and  C_2
REMARK    2  A    between atoms: C_2  and  C_3
REMARK    3  A    between atoms: C_3  and  C_4
REMARK    4  A    between atoms: C_4  and  C_5
REMARK    5  A    between atoms: C_5  and  N_6
REMARK    6  A    between atoms: N_6  and  C_7
REMARK    7  A    between atoms: N_6  and  C_8
REMARK    8  A    between atoms: C_8  and  C_10
REMARK    9  A    between atoms: C_8  and  C_11
REMARK   10  A    between atoms: N_13  and  C_14
REMARK   11  A    between atoms: C_15  and  N_22
REMARK                            x       y       z     vdW  Elec       q    Type
REMARK                         _______ _______ _______ _____ _____    ______ ____
ROOT
ATOM      1  C   UNL     1       1.537  -3.481  -5.134  0.00  0.00    +0.203 C 
ATOM      2  O   UNL     1       1.114  -2.345  -5.075  0.00  0.00    -0.277 OA
ATOM      3  N   UNL     1       1.266  -4.246  -6.210  0.00  0.00    -0.284 N 
ATOM      4  H   UNL     1       1.669  -5.124  -6.294  0.00  0.00    +0.155 HD
ENDROOT
BRANCH   3   5
ATOM      5  C   UNL     1       0.401  -3.773  -7.207  0.00  0.00    +0.073 A 
ATOM      6  C   UNL     1       0.699  -3.990  -8.552  0.00  0.00    +0.049 A 
ATOM      7  C   UNL     1      -0.161  -3.521  -9.534  0.00  0.00    +0.044 A 
ATOM      8  C   UNL     1      -1.310  -2.837  -9.178  0.00  0.00    +0.044 A 
ATOM      9  C   UNL     1      -1.606  -2.621  -7.844  0.00  0.00    +0.042 A 
ATOM     10  C   UNL     1      -0.756  -3.091  -6.858  0.00  0.00    +0.065 A 
ATOM     11 CL   UNL     1      -1.135  -2.824  -5.186  0.00  0.00    -0.082 Cl
ATOM     12 CL   UNL     1      -2.384  -2.250 -10.409  0.00  0.00    -0.083 Cl
BRANCH   6  13
ATOM     13  N   UNL     1       1.861  -4.681  -8.909  0.00  0.00    -0.356 N 
ATOM     14  H   UNL     1       2.462  -5.009  -8.222  0.00  0.00    +0.142 HD
ATOM     15  H   UNL     1       2.067  -4.832  -9.845  0.00  0.00    +0.142 HD
ENDBRANCH   6  13
ENDBRANCH   3   5
BRANCH   1  16
ATOM     16  C   UNL     1       2.365  -4.035  -4.004  0.00  0.00    +0.016 C 
ATOM     17  C   UNL     1       1.477  -4.881  -3.089  0.00  0.00    -0.004 C 
BRANCH  16  18
ATOM     18  N   UNL     1       2.947  -2.928  -3.234  0.00  0.00    +0.385 N 
ATOM     19  C   UNL     1       3.683  -3.466  -2.082  0.00  0.00    -0.095 C 
ATOM     20  H   UNL     1       2.210  -2.321  -2.908  0.00  0.00    -0.081 HD
BRANCH  18  21
ATOM     21  C   UNL     1       3.866  -2.166  -4.090  0.00  0.00    -0.078 C 
BRANCH  21  22
ATOM     22  C   UNL     1       4.357  -0.928  -3.337  0.00  0.00    -0.019 C 
BRANCH  22  23
ATOM     23  C   UNL     1       5.315  -0.135  -4.228  0.00  0.00    -0.002 C 
BRANCH  23  25
ATOM     24  C   UNL     1       6.763   1.896  -4.367  0.00  0.00    +0.004 C 
ATOM     25  C   UNL     1       5.806   1.102  -3.475  0.00  0.00    -0.003 C 
ENDBRANCH  23  25
ENDBRANCH  22  23
ENDBRANCH  21  22
ENDBRANCH  18  21
ENDBRANCH  16  18
ENDBRANCH   1  16
TORSDOF 8
