REMARK  Name = ZINC20072532
REMARK  8 active torsions:
REMARK  status: ('A' for Active; 'I' for Inactive)
REMARK    1  A    between atoms: C_1  and  C_2
REMARK    2  A    between atoms: C_5  and  N_9
REMARK    3  A    between atoms: C_10  and  C_12
REMARK    4  A    between atoms: N_14  and  N_15
REMARK    5  A    between atoms: N_15  and  C_16
REMARK    6  A    between atoms: C_16  and  C_17
REMARK    7  A    between atoms: C_18  and  C_19
REMARK    8  A    between atoms: N_21  and  C_22
REMARK                            x       y       z     vdW  Elec       q    Type
REMARK                         _______ _______ _______ _____ _____    ______ ____
ROOT
ATOM      1  N   UNL     1      -7.677   3.312   0.652  0.00  0.00    -0.268 N 
ATOM      2  H   UNL     1      -8.017   3.938   1.490  0.00  0.00    +0.170 HD
ENDROOT
BRANCH   1   5
ATOM      3  C   UNL     1      -5.719   2.708   1.864  0.00  0.00    +0.315 C 
ATOM      4  O   UNL     1      -6.095   3.398   2.789  0.00  0.00    -0.264 OA
ATOM      5  N   UNL     1      -6.466   2.614   0.746  0.00  0.00    -0.229 N 
ATOM      6  H   UNL     1      -6.125   1.988  -0.092  0.00  0.00    +0.173 HD
BRANCH   3   8
ATOM      7  N   UNL     1      -3.682   2.058   3.082  0.00  0.00    -0.278 N 
ATOM      8  C   UNL     1      -4.429   1.964   1.964  0.00  0.00    +0.305 C 
ATOM      9  O   UNL     1      -4.053   1.274   1.039  0.00  0.00    -0.265 OA
ATOM     10  H   UNL     1      -4.061   2.615   3.951  0.00  0.00    +0.155 HD
BRANCH   7  15
ATOM     11  C   UNL     1       1.418  -0.415   3.304  0.00  0.00    +0.045 C 
ATOM     12  C   UNL     1       0.063   0.242   3.244  0.00  0.00    -0.032 A 
ATOM     13  C   UNL     1      -0.715   0.324   4.385  0.00  0.00    +0.006 A 
ATOM     14  C   UNL     1      -1.960   0.920   4.333  0.00  0.00    +0.023 A 
ATOM     15  C   UNL     1      -2.426   1.449   3.135  0.00  0.00    +0.035 A 
ATOM     16  C   UNL     1      -1.643   1.366   1.991  0.00  0.00    +0.043 A 
ATOM     17  C   UNL     1      -0.401   0.763   2.049  0.00  0.00    +0.046 A 
ATOM     18 CL   UNL     1       0.580   0.658   0.620  0.00  0.00    -0.083 Cl
ENDBRANCH   7  15
ENDBRANCH   3   8
ENDBRANCH   1   5
BRANCH   1  19
ATOM     19  C   UNL     1      -8.387   3.223  -0.409  0.00  0.00    +0.024 C 
ATOM     20  C   UNL     1      -7.920   2.366  -1.558  0.00  0.00    +0.062 C 
ATOM     21  C   UNL     1      -9.689   3.974  -0.511  0.00  0.00    +0.087 C 
BRANCH  21  22
ATOM     22  C   UNL     1     -10.324   3.701  -1.850  0.00  0.00    +0.243 C 
ATOM     23  O   UNL     1      -9.773   2.968  -2.644  0.00  0.00    -0.270 OA
ATOM     24  N   UNL     1     -11.504   4.271  -2.165  0.00  0.00    -0.282 N 
ATOM     25  H   UNL     1     -11.966   4.994  -1.478  0.00  0.00    +0.155 HD
BRANCH  24  26
ATOM     26  C   UNL     1     -12.141   3.942  -3.367  0.00  0.00    +0.035 A 
ATOM     27  C   UNL     1     -11.388   3.692  -4.507  0.00  0.00    +0.025 A 
ATOM     28  C   UNL     1     -12.018   3.361  -5.691  0.00  0.00    +0.023 A 
ATOM     29  C   UNL     1     -13.399   3.291  -5.746  0.00  0.00    +0.059 A 
ATOM     30  C   UNL     1     -14.153   3.546  -4.612  0.00  0.00    +0.061 A 
ATOM     31  C   UNL     1     -13.526   3.871  -3.423  0.00  0.00    +0.044 A 
ATOM     32 CL   UNL     1     -15.885   3.457  -4.684  0.00  0.00    -0.082 Cl
ATOM     33 CL   UNL     1     -14.188   2.883  -7.237  0.00  0.00    -0.082 Cl
ENDBRANCH  24  26
ENDBRANCH  21  22
ENDBRANCH   1  19
TORSDOF 6
