REMARK  Name = ZINC03312381
REMARK  11 active torsions:
REMARK  status: ('A' for Active; 'I' for Inactive)
REMARK    1  A    between atoms: C_1  and  O_2
REMARK    2  A    between atoms: O_2  and  C_3
REMARK    3  A    between atoms: C_3  and  C_4
REMARK    4  A    between atoms: C_4  and  N_5
REMARK    5  A    between atoms: N_5  and  C_6
REMARK    6  A    between atoms: C_7  and  C_26
REMARK    7  A    between atoms: C_8  and  N_25
REMARK    8  A    between atoms: C_10  and  C_13
REMARK    9  A    between atoms: C_13  and  C_15
REMARK   10  A    between atoms: C_18  and  O_21
REMARK   11  A    between atoms: O_21  and  C_22
REMARK                            x       y       z     vdW  Elec       q    Type
REMARK                         _______ _______ _______ _____ _____    ______ ____
ROOT
ATOM      1  C   UNL     1      -5.947   2.373  -0.061  0.00  0.00    +0.066 C 
ATOM      2  C   UNL     1      -4.973   3.305   0.039  0.00  0.00    -0.001 C 
ATOM      3  C   UNL     1      -5.340   4.742   0.167  0.00  0.00    -0.018 C 
ATOM      4  C   UNL     1      -6.864   4.973   0.154  0.00  0.00    +0.113 C 
ATOM      5  S   UNL     1      -7.489   3.260  -0.010  0.00  0.00    -0.100 S 
ENDROOT
BRANCH   2   6
ATOM      6  C   UNL     1      -3.614   2.917   0.029  0.00  0.00    +0.106 A 
ATOM      7  N   UNL     1      -3.099   1.698   0.034  0.00  0.00    -0.239 NA
ATOM      8  C   UNL     1      -1.768   1.480   0.027  0.00  0.00    +0.079 A 
ATOM      9  C   UNL     1      -1.088   0.238   0.049  0.00  0.00    +0.029 A 
ATOM     10  C   UNL     1       0.281   0.190   0.039  0.00  0.00    +0.002 A 
ATOM     11  C   UNL     1       1.048   1.346   0.007  0.00  0.00    +0.001 A 
ATOM     12  C   UNL     1       0.416   2.577  -0.015  0.00  0.00    +0.017 A 
ATOM     13  C   UNL     1      -0.954   2.636   0.001  0.00  0.00    +0.040 A 
ATOM     14  S   UNL     1      -2.154   3.947  -0.009  0.00  0.00    -0.067 S 
ENDBRANCH   2   6
BRANCH   3  15
ATOM     15  N   UNL     1      -4.788   5.261   1.425  0.00  0.00    +0.384 N 
ATOM     16  H   UNL     1      -5.053   6.324   1.530  0.00  0.00    -0.089 HD
ATOM     17  H   UNL     1      -3.693   5.156   1.416  0.00  0.00    -0.089 HD
ATOM     18  H   UNL     1      -5.205   4.694   2.270  0.00  0.00    -0.089 HD
ENDBRANCH   3  15
BRANCH   1  19
ATOM     19  N   UNL     1      -5.779   1.010  -0.180  0.00  0.00    -0.336 N 
ATOM     20  H   UNL     1      -4.772   0.572  -0.115  0.00  0.00    +0.147 HD
BRANCH  19  21
ATOM     21  C   UNL     1      -6.942   0.145  -0.392  0.00  0.00    +0.130 C 
BRANCH  21  22
ATOM     22  C   UNL     1      -6.483  -1.312  -0.488  0.00  0.00    +0.178 C 
BRANCH  22  24
ATOM     23  C   UNL     1      -5.469  -3.073   0.783  0.00  0.00    +0.194 C 
ATOM     24  O   UNL     1      -5.931  -1.721   0.765  0.00  0.00    -0.381 OA
ENDBRANCH  22  24
ENDBRANCH  21  22
ENDBRANCH  19  21
ENDBRANCH   1  19
BRANCH   4  25
ATOM     25  C   UNL     1      -7.278   5.816  -1.025  0.00  0.00    +0.175 C 
ATOM     26  O   UNL     1      -7.547   5.287  -2.083  0.00  0.00    -0.291 OA
BRANCH  25  27
ATOM     27  C   UNL     1      -7.356   7.276  -0.893  0.00  0.00    +0.019 A 
ATOM     28  C   UNL     1      -7.051   7.888   0.329  0.00  0.00    +0.015 A 
ATOM     29  C   UNL     1      -7.121   9.253   0.446  0.00  0.00    +0.046 A 
ATOM     30  C   UNL     1      -7.503  10.028  -0.644  0.00  0.00    +0.127 A 
ATOM     31  C   UNL     1      -7.812   9.424  -1.858  0.00  0.00    +0.046 A 
ATOM     32  C   UNL     1      -7.740   8.061  -1.987  0.00  0.00    +0.015 A 
BRANCH  30  33
ATOM     33  O   UNL     1      -7.575  11.377  -0.521  0.00  0.00    -0.434 OA
BRANCH  33  34
ATOM     34  C   UNL     1      -7.245  11.931   0.753  0.00  0.00    +0.541 C 
ATOM     35  F   UNL     1      -8.113  11.419   1.724  0.00  0.00    -0.166 F 
ATOM     36  F   UNL     1      -5.927  11.594   1.081  0.00  0.00    -0.166 F 
ENDBRANCH  33  34
ENDBRANCH  30  33
ENDBRANCH  25  27
ENDBRANCH   4  25
TORSDOF 10
