REMARK  Name = ZINC08199606
REMARK  10 active torsions:
REMARK  status: ('A' for Active; 'I' for Inactive)
REMARK    1  A    between atoms: C_1  and  C_2
REMARK    2  A    between atoms: C_2  and  C_3
REMARK    3  A    between atoms: C_2  and  C_4
REMARK    4  A    between atoms: C_7  and  C_10
REMARK    5  A    between atoms: C_11  and  C_12
REMARK    6  A    between atoms: C_11  and  C_14
REMARK    7  A    between atoms: C_14  and  C_16
REMARK    8  A    between atoms: C_17  and  N_26
REMARK    9  A    between atoms: N_18  and  C_25
REMARK   10  A    between atoms: N_21  and  C_24
REMARK                            x       y       z     vdW  Elec       q    Type
REMARK                         _______ _______ _______ _____ _____    ______ ____
ROOT
ATOM      1  C   UNL     1       1.275   2.106  -0.066  0.00  0.00    +0.212 C 
ATOM      2  O   UNL     1       1.272   3.231  -0.533  0.00  0.00    -0.286 OA
ENDROOT
BRANCH   1   3
ATOM      3  C   UNL     1       2.544   1.419   0.181  0.00  0.00    +0.125 A 
ATOM      4  C   UNL     1       3.439   1.881   1.157  0.00  0.00    +0.116 A 
ATOM      5  N   UNL     1       4.610   1.205   1.355  0.00  0.00    -0.284 N 
ATOM      6  C   UNL     1       4.918   0.118   0.630  0.00  0.00    +0.333 A 
ATOM      7  O   UNL     1       5.974  -0.447   0.841  0.00  0.00    -0.246 OA
ATOM      8  N   UNL     1       4.102  -0.367  -0.320  0.00  0.00    -0.263 N 
ATOM      9  C   UNL     1       2.922   0.228  -0.587  0.00  0.00    +0.269 A 
ATOM     10  O   UNL     1       2.184  -0.214  -1.449  0.00  0.00    -0.267 OA
ATOM     11  C   UNL     1       4.500  -1.558  -1.076  0.00  0.00    +0.157 C 
ATOM     12  C   UNL     1       5.549   1.678   2.375  0.00  0.00    +0.155 C 
BRANCH   4  13
ATOM     13  N   UNL     1       3.144   2.986   1.897  0.00  0.00    -0.344 N 
ATOM     14  H   UNL     1       2.346   3.501   1.703  0.00  0.00    +0.144 HD
ATOM     15  H   UNL     1       3.732   3.257   2.620  0.00  0.00    +0.144 HD
ENDBRANCH   4  13
ENDBRANCH   1   3
BRANCH   1  17
ATOM     16  C   UNL     1      -1.179   2.107   0.095  0.00  0.00    +0.030 C 
ATOM     17  C   UNL     1       0.000   1.437   0.249  0.00  0.00    +0.100 C 
BRANCH  16  21
ATOM     18  C   UNL     1      -4.859   0.050   0.539  0.00  0.00    -0.045 A 
ATOM     19  C   UNL     1      -4.766   1.381   0.907  0.00  0.00    +0.004 A 
ATOM     20  C   UNL     1      -3.573   2.058   0.766  0.00  0.00    +0.008 A 
ATOM     21  C   UNL     1      -2.453   1.395   0.249  0.00  0.00    -0.024 A 
ATOM     22  C   UNL     1      -2.558   0.049  -0.126  0.00  0.00    +0.008 A 
ATOM     23  C   UNL     1      -3.757  -0.614   0.026  0.00  0.00    +0.004 A 
BRANCH  18  25
ATOM     24  C   UNL     1      -6.637  -1.185  -0.671  0.00  0.00    +0.012 C 
ATOM     25  C   UNL     1      -6.167  -0.681   0.696  0.00  0.00    +0.013 C 
ATOM     26  C   UNL     1      -5.977  -1.870   1.640  0.00  0.00    +0.012 C 
ENDBRANCH  18  25
ENDBRANCH  16  21
BRANCH  17  27
ATOM     27  C   UNL     1      -0.001   0.081   0.712  0.00  0.00    +0.103 C 
ATOM     28  N   UNL     1      -0.002  -0.994   1.079  0.00  0.00    -0.191 NA
ENDBRANCH  17  27
ENDBRANCH   1  17
TORSDOF 6
