REMARK  Name = ZINC43146114
REMARK  11 active torsions:
REMARK  status: ('A' for Active; 'I' for Inactive)
REMARK    1  A    between atoms: C_1  and  C_2
REMARK    2  A    between atoms: C_5  and  S_8
REMARK    3  A    between atoms: S_8  and  C_9
REMARK    4  A    between atoms: C_9  and  C_10
REMARK    5  A    between atoms: N_12  and  N_13
REMARK    6  A    between atoms: N_16  and  C_17
REMARK    7  A    between atoms: C_17  and  C_18
REMARK    8  A    between atoms: C_18  and  C_20
REMARK    9  A    between atoms: C_18  and  N_25
REMARK   10  A    between atoms: N_25  and  C_26
REMARK   11  A    between atoms: N_25  and  C_27
REMARK                            x       y       z     vdW  Elec       q    Type
REMARK                         _______ _______ _______ _____ _____    ______ ____
ROOT
ATOM      1  N   UNL     1       0.096  -8.208   3.213  0.00  0.00    -0.218 N 
ATOM      2  C   UNL     1       0.213  -8.821   4.407  0.00  0.00    +0.316 C 
ATOM      3  O   UNL     1       0.373 -10.025   4.459  0.00  0.00    -0.251 OA
ATOM      4  N   UNL     1       0.152  -8.100   5.544  0.00  0.00    -0.299 N 
ATOM      5  H   UNL     1       0.139  -8.727   2.394  0.00  0.00    +0.174 HD
ATOM      6  H   UNL     1       0.025  -7.139   5.502  0.00  0.00    +0.150 HD
ENDROOT
BRANCH   1   9
ATOM      7  C   UNL     1      -0.205  -6.207   1.958  0.00  0.00    +0.239 C 
ATOM      8  O   UNL     1      -0.151  -6.856   0.935  0.00  0.00    -0.273 OA
ATOM      9  N   UNL     1      -0.088  -6.820   3.153  0.00  0.00    -0.233 N 
ATOM     10  H   UNL     1      -0.132  -6.301   3.971  0.00  0.00    +0.173 HD
BRANCH   7  11
ATOM     11  C   UNL     1      -0.404  -4.714   1.894  0.00  0.00    +0.171 C 
BRANCH  11  12
ATOM     12  S   UNL     1      -0.525  -4.195   0.160  0.00  0.00    -0.116 S 
BRANCH  12  17
ATOM     13  C   UNL     1      -1.304   1.782   0.478  0.00  0.00    +0.044 C 
ATOM     14  C   UNL     1      -1.109   0.290   0.399  0.00  0.00    -0.050 A 
ATOM     15  C   UNL     1      -1.063  -0.335  -0.834  0.00  0.00    +0.004 A 
ATOM     16  C   UNL     1      -0.885  -1.702  -0.911  0.00  0.00    +0.015 A 
ATOM     17  C   UNL     1      -0.751  -2.450   0.253  0.00  0.00    +0.008 A 
ATOM     18  C   UNL     1      -0.797  -1.818   1.490  0.00  0.00    +0.015 A 
ATOM     19  C   UNL     1      -0.971  -0.450   1.558  0.00  0.00    +0.004 A 
ENDBRANCH  12  17
ENDBRANCH  11  12
ENDBRANCH   7  11
ENDBRANCH   1   9
BRANCH   4  20
ATOM     20  C   UNL     1       0.280  -8.766   6.842  0.00  0.00    +0.095 C 
BRANCH  20  21
ATOM     21  C   UNL     1       0.291  -7.717   7.955  0.00  0.00    -0.014 C 
BRANCH  21  22
ATOM     22  C   UNL     1      -1.037  -7.005   7.988  0.00  0.00    -0.022 A 
ATOM     23  C   UNL     1      -1.370  -5.796   7.473  0.00  0.00    +0.009 A 
ATOM     24  C   UNL     1      -2.665  -5.337   7.623  0.00  0.00    +0.008 A 
ATOM     25  C   UNL     1      -3.564  -6.109   8.282  0.00  0.00    +0.045 A 
ATOM     26  S   UNL     1      -2.581  -7.537   8.708  0.00  0.00    -0.103 S 
ENDBRANCH  21  22
BRANCH  21  27
ATOM     27  N   UNL     1       0.525  -8.376   9.247  0.00  0.00    +0.382 N 
ATOM     28  C   UNL     1       1.834  -9.041   9.227  0.00  0.00    -0.096 C 
ATOM     29  C   UNL     1       0.502  -7.372  10.320  0.00  0.00    -0.096 C 
ATOM     30  H   UNL     1      -0.198  -9.060   9.412  0.00  0.00    -0.082 HD
ENDBRANCH  21  27
ENDBRANCH  20  21
ENDBRANCH   4  20
TORSDOF 8
