REMARK  Name = ZINC14623696
REMARK  17 active torsions:
REMARK  status: ('A' for Active; 'I' for Inactive)
REMARK    1  A    between atoms: C_1  and  C_2
REMARK    2  A    between atoms: C_2  and  C_3
REMARK    3  A    between atoms: C_3  and  C_4
REMARK    4  A    between atoms: C_4  and  N_5
REMARK    5  A    between atoms: C_6  and  N_35
REMARK    6  A    between atoms: C_7  and  N_14
REMARK    7  A    between atoms: N_14  and  C_15
REMARK    8  A    between atoms: C_15  and  C_16
REMARK    9  A    between atoms: C_16  and  C_17
REMARK   10  A    between atoms: C_17  and  C_18
REMARK   11  A    between atoms: C_19  and  C_21
REMARK   12  A    between atoms: C_22  and  C_23
REMARK   13  A    between atoms: C_25  and  O_32
REMARK   14  A    between atoms: C_26  and  O_30
REMARK   15  A    between atoms: O_30  and  C_31
REMARK   16  A    between atoms: O_32  and  C_33
REMARK   17  A    between atoms: C_33  and  C_34
REMARK                            x       y       z     vdW  Elec       q    Type
REMARK                         _______ _______ _______ _____ _____    ______ ____
ROOT
ATOM      1  N   UNL     1       1.083  -0.672  -0.089  0.00  0.00    -0.261 N 
ATOM      2  C   UNL     1      -0.112  -0.047  -0.116  0.00  0.00    +0.244 C 
ATOM      3  O   UNL     1      -1.131  -0.690  -0.291  0.00  0.00    -0.270 OA
ENDROOT
BRANCH   1   6
ATOM      4  N   UNL     1       0.654  -4.232   0.707  0.00  0.00    -0.280 N 
ATOM      5  C   UNL     1       0.582  -2.863   0.816  0.00  0.00    +0.127 A 
ATOM      6  C   UNL     1       1.145  -2.078  -0.170  0.00  0.00    +0.140 A 
ATOM      7  C   UNL     1       1.788  -2.706  -1.253  0.00  0.00    +0.277 A 
ATOM      8  O   UNL     1       2.298  -2.036  -2.136  0.00  0.00    -0.266 OA
ATOM      9  N   UNL     1       1.836  -4.051  -1.309  0.00  0.00    -0.273 N 
ATOM     10  H   UNL     1       2.292  -4.498  -2.078  0.00  0.00    +0.173 HD
ATOM     11  C   UNL     1       1.277  -4.800  -0.342  0.00  0.00    +0.331 A 
ATOM     12  O   UNL     1       1.335  -6.012  -0.417  0.00  0.00    -0.246 OA
BRANCH   5  13
ATOM     13  N   UNL     1      -0.050  -2.284   1.891  0.00  0.00    -0.343 N 
ATOM     14  H   UNL     1      -0.003  -1.323   2.020  0.00  0.00    +0.144 HD
ATOM     15  H   UNL     1      -0.541  -2.835   2.519  0.00  0.00    +0.144 HD
ENDBRANCH   5  13
BRANCH   4  16
ATOM     16  C   UNL     1       0.055  -5.078   1.743  0.00  0.00    +0.128 C 
BRANCH  16  17
ATOM     17  C   UNL     1       1.091  -5.358   2.834  0.00  0.00    +0.021 C 
BRANCH  17  19
ATOM     18  C   UNL     1       1.500  -6.522   5.007  0.00  0.00    +0.004 C 
ATOM     19  C   UNL     1       0.465  -6.241   3.916  0.00  0.00    -0.002 C 
ENDBRANCH  17  19
ENDBRANCH  16  17
ENDBRANCH   4  16
ENDBRANCH   1   6
BRANCH   2  20
ATOM     20  C   UNL     1      -0.183   1.402   0.065  0.00  0.00    +0.068 C 
ATOM     21  C   UNL     1      -1.379   2.028   0.033  0.00  0.00    +0.013 C 
BRANCH  21  22
ATOM     22  C   UNL     1      -1.451   3.485   0.214  0.00  0.00    -0.020 A 
ATOM     23  C   UNL     1      -2.690   4.136   0.181  0.00  0.00    +0.057 A 
ATOM     24  C   UNL     1      -2.752   5.505   0.353  0.00  0.00    +0.164 A 
ATOM     25  C   UNL     1      -1.582   6.236   0.558  0.00  0.00    +0.180 A 
ATOM     26  C   UNL     1      -0.352   5.591   0.591  0.00  0.00    +0.087 A 
ATOM     27  C   UNL     1      -0.282   4.224   0.427  0.00  0.00    +0.031 A 
ATOM     28 CL   UNL     1       1.099   6.508   0.847  0.00  0.00    -0.080 Cl
BRANCH  25  29
ATOM     29  O   UNL     1      -1.646   7.582   0.727  0.00  0.00    -0.490 OA
ATOM     30  C   UNL     1      -1.796   8.063   2.064  0.00  0.00    +0.277 C 
ENDBRANCH  25  29
BRANCH  24  31
ATOM     31  O   UNL     1      -3.954   6.140   0.322  0.00  0.00    -0.489 OA
BRANCH  31  32
ATOM     32  C   UNL     1      -5.111   5.329   0.107  0.00  0.00    +0.226 C 
ATOM     33  C   UNL     1      -6.359   6.213   0.104  0.00  0.00    +0.048 C 
ENDBRANCH  31  32
ENDBRANCH  24  31
ENDBRANCH  21  22
ENDBRANCH   2  20
BRANCH   1  34
ATOM     34  C   UNL     1       2.316   0.111   0.023  0.00  0.00    +0.114 C 
BRANCH  34  35
ATOM     35  C   UNL     1       2.602   0.404   1.497  0.00  0.00    +0.019 C 
BRANCH  35  36
ATOM     36  C   UNL     1       3.889   1.221   1.614  0.00  0.00    -0.002 C 
ATOM     37  C   UNL     1       4.175   1.514   3.089  0.00  0.00    +0.004 C 
ENDBRANCH  35  36
ENDBRANCH  34  35
ENDBRANCH   1  34
TORSDOF 13
