REMARK  Name = ZINC43285808
REMARK  9 active torsions:
REMARK  status: ('A' for Active; 'I' for Inactive)
REMARK    1  A    between atoms: C_1  and  C_2
REMARK    2  A    between atoms: C_2  and  C_3
REMARK    3  A    between atoms: C_3  and  C_5
REMARK    4  A    between atoms: C_3  and  N_22
REMARK    5  A    between atoms: C_5  and  C_7
REMARK    6  A    between atoms: C_5  and  N_13
REMARK    7  A    between atoms: N_16  and  C_19
REMARK    8  A    between atoms: C_19  and  C_20
REMARK    9  A    between atoms: C_20  and  O_21
REMARK                            x       y       z     vdW  Elec       q    Type
REMARK                         _______ _______ _______ _____ _____    ______ ____
ROOT
ATOM      1  C   UNL     1      -1.523  -2.050   0.192  0.00  0.00    -0.014 C 
ENDROOT
BRANCH   1   2
ATOM      2  N   UNL     1      -0.955  -2.424   1.494  0.00  0.00    +0.387 N 
ATOM      3  C   UNL     1       0.413  -1.900   1.601  0.00  0.00    -0.062 C 
ATOM      4  C   UNL     1       0.998  -2.272   2.965  0.00  0.00    +0.066 C 
ATOM      5  N   UNL     1       1.003  -3.735   3.109  0.00  0.00    -0.304 NA
ATOM      6  C   UNL     1      -0.358  -4.277   2.980  0.00  0.00    +0.066 C 
ATOM      7  C   UNL     1      -0.931  -3.888   1.616  0.00  0.00    -0.062 C 
ATOM      8  H   UNL     1      -1.522  -2.035   2.232  0.00  0.00    -0.081 HD
BRANCH   5   9
ATOM      9  C   UNL     1       1.610  -4.136   4.385  0.00  0.00    +0.112 C 
BRANCH   9  10
ATOM     10  C   UNL     1       1.825  -5.651   4.394  0.00  0.00    +0.171 C 
BRANCH  10  11
ATOM     11  O   UNL     1       2.783  -6.002   3.393  0.00  0.00    -0.394 OA
ATOM     12  H   UNL     1       2.969  -6.949   3.342  0.00  0.00    +0.209 HD
ENDBRANCH  10  11
ENDBRANCH   9  10
ENDBRANCH   5   9
ENDBRANCH   1   2
BRANCH   1  13
ATOM     13  C   UNL     1      -2.949  -2.531   0.109  0.00  0.00    -0.021 A 
ATOM     14  C   UNL     1      -3.602  -3.087  -0.941  0.00  0.00    +0.025 A 
ATOM     15  C   UNL     1      -4.926  -3.456  -0.787  0.00  0.00    +0.025 A 
ATOM     16  C   UNL     1      -5.530  -3.251   0.410  0.00  0.00    +0.060 A 
ATOM     17  S   UNL     1      -4.213  -2.523   1.369  0.00  0.00    -0.102 S 
ATOM     18 BR   UNL     1      -5.878  -4.234  -2.223  0.00  0.00    -0.050 Br
ENDBRANCH   1  13
BRANCH   1  19
ATOM     19  C   UNL     1      -1.487  -0.529   0.038  0.00  0.00    +0.042 C 
BRANCH  19  20
ATOM     20  N   UNL     1      -2.272   0.091   1.114  0.00  0.00    -0.328 NA
ATOM     21  H   UNL     1      -2.212   1.097   1.072  0.00  0.00    +0.118 HD
ATOM     22  H   UNL     1      -3.233  -0.215   1.083  0.00  0.00    +0.118 HD
ENDBRANCH  19  20
BRANCH  19  24
ATOM     23  C   UNL     1      -1.910   1.365  -1.536  0.00  0.00    +0.005 C 
ATOM     24  C   UNL     1      -2.083  -0.139  -1.317  0.00  0.00    +0.014 C 
ENDBRANCH  19  24
ENDBRANCH   1  19
TORSDOF 8
