REMARK  Name = ZINC63722018
REMARK  11 active torsions:
REMARK  status: ('A' for Active; 'I' for Inactive)
REMARK    1  A    between atoms: C_1  and  C_2
REMARK    2  A    between atoms: C_2  and  C_4
REMARK    3  A    between atoms: C_2  and  O_17
REMARK    4  A    between atoms: N_6  and  C_7
REMARK    5  A    between atoms: C_10  and  S_13
REMARK    6  A    between atoms: S_13  and  N_16
REMARK    7  A    between atoms: O_17  and  C_18
REMARK    8  A    between atoms: C_18  and  C_20
REMARK    9  A    between atoms: C_20  and  C_21
REMARK   10  A    between atoms: C_21  and  C_22
REMARK   11  A    between atoms: C_22  and  C_23
REMARK                            x       y       z     vdW  Elec       q    Type
REMARK                         _______ _______ _______ _____ _____    ______ ____
ROOT
ATOM      1  C   UNL     1      -0.033   1.520   0.013  0.00  0.00    +0.062 C 
ATOM      2  C   UNL     1      -0.002  -0.010   0.002  0.00  0.00    +0.259 C 
ENDROOT
BRANCH   2   3
ATOM      3  C   UNL     1       0.708  -0.488  -1.238  0.00  0.00    +0.258 C 
ATOM      4  O   UNL     1       1.758  -1.088  -1.142  0.00  0.00    -0.271 OA
ATOM      5  N   UNL     1       0.176  -0.250  -2.453  0.00  0.00    -0.282 N 
ATOM      6  H   UNL     1      -0.695   0.170  -2.527  0.00  0.00    +0.155 HD
BRANCH   5   7
ATOM      7  C   UNL     1       0.881  -0.608  -3.608  0.00  0.00    +0.034 A 
ATOM      8  C   UNL     1       0.802   0.185  -4.745  0.00  0.00    +0.025 A 
ATOM      9  C   UNL     1       1.499  -0.171  -5.883  0.00  0.00    +0.030 A 
ATOM     10  C   UNL     1       2.275  -1.316  -5.891  0.00  0.00    +0.105 A 
ATOM     11  C   UNL     1       2.355  -2.108  -4.760  0.00  0.00    +0.030 A 
ATOM     12  C   UNL     1       1.665  -1.754  -3.617  0.00  0.00    +0.025 A 
BRANCH  10  13
ATOM     13  S   UNL     1       3.162  -1.767  -7.345  0.00  0.00    +0.056 S 
ATOM     14  O   UNL     1       3.378  -3.170  -7.270  0.00  0.00    -0.153 OA
ATOM     15  O   UNL     1       2.489  -1.157  -8.437  0.00  0.00    -0.153 OA
BRANCH  13  16
ATOM     16  N   UNL     1       4.653  -1.053  -7.250  0.00  0.00    -0.204 NA
ATOM     17  H   UNL     1       5.420  -1.475  -7.666  0.00  0.00    +0.144 HD
ATOM     18  H   UNL     1       4.759  -0.213  -6.777  0.00  0.00    +0.144 HD
ENDBRANCH  13  16
ENDBRANCH  10  13
ENDBRANCH   5   7
ENDBRANCH   2   3
BRANCH   2  19
ATOM     19  O   UNL     1       0.692  -0.480   1.160  0.00  0.00    -0.452 OA
BRANCH  19  20
ATOM     20  C   UNL     1      -0.042  -0.707   2.260  0.00  0.00    +0.308 C 
ATOM     21  O   UNL     1      -1.235  -0.512   2.241  0.00  0.00    -0.251 OA
BRANCH  20  22
ATOM     22  C   UNL     1       0.620  -1.204   3.519  0.00  0.00    +0.121 C 
BRANCH  22  23
ATOM     23  C   UNL     1      -0.433  -1.378   4.615  0.00  0.00    +0.015 C 
BRANCH  23  24
ATOM     24  C   UNL     1       0.239  -1.883   5.893  0.00  0.00    +0.034 C 
BRANCH  24  25
ATOM     25  C   UNL     1      -0.798  -2.055   6.973  0.00  0.00    -0.042 C 
ATOM     26  C   UNL     1      -1.448  -3.194   7.302  0.00  0.00    -0.001 A 
ATOM     27  C   UNL     1      -1.387  -4.562   6.773  0.00  0.00    +0.010 A 
ATOM     28  C   UNL     1      -2.179  -5.513   7.319  0.00  0.00    +0.001 A 
ATOM     29  C   UNL     1      -3.054  -5.225   8.376  0.00  0.00    +0.002 A 
ATOM     30  C   UNL     1      -3.166  -3.993   8.915  0.00  0.00    +0.026 A 
ATOM     31  C   UNL     1      -2.380  -2.917   8.418  0.00  0.00    +0.043 A 
ATOM     32  N   UNL     1      -2.309  -1.654   8.765  0.00  0.00    -0.380 N 
ATOM     33  C   UNL     1      -1.318  -0.989   7.912  0.00  0.00    +0.144 C 
ATOM     34  H   UNL     1      -2.823  -1.232   9.471  0.00  0.00    +0.160 HD
ENDBRANCH  24  25
ENDBRANCH  23  24
ENDBRANCH  22  23
ENDBRANCH  20  22
ENDBRANCH  19  20
ENDBRANCH   2  19
TORSDOF 10
