REMARK  Name = ZINC64012345
REMARK  6 active torsions:
REMARK  status: ('A' for Active; 'I' for Inactive)
REMARK    1  A    between atoms: C_1  and  C_2
REMARK    2  A    between atoms: N_10  and  N_11
REMARK    3  A    between atoms: C_12  and  C_14
REMARK    4  A    between atoms: C_14  and  C_15
REMARK    5  A    between atoms: C_16  and  C_22
REMARK    6  A    between atoms: C_19  and  C_21
REMARK                            x       y       z     vdW  Elec       q    Type
REMARK                         _______ _______ _______ _____ _____    ______ ____
ROOT
ATOM      1  N   UNL     1       3.921  -2.780  -1.157  0.00  0.00    -0.234 N 
ATOM      2  C   UNL     1       5.020  -3.559  -1.113  0.00  0.00    +0.233 C 
ATOM      3  O   UNL     1       5.487  -3.888  -0.043  0.00  0.00    -0.274 OA
ATOM      4  H   UNL     1       3.547  -2.517  -2.013  0.00  0.00    +0.173 HD
ENDROOT
BRANCH   1  13
ATOM      5  C   UNL     1      -0.019   1.526   0.010  0.00  0.00    +0.044 C 
ATOM      6  C   UNL     1       0.002  -0.004   0.002  0.00  0.00    +0.210 C 
ATOM      7  C   UNL     1       0.641  -0.458  -1.297  0.00  0.00    +0.265 C 
ATOM      8  O   UNL     1       0.187  -0.137  -2.377  0.00  0.00    -0.271 OA
ATOM      9  N   UNL     1       1.734  -1.231  -1.194  0.00  0.00    -0.145 NA
ATOM     10  C   UNL     1       2.206  -1.564  -0.013  0.00  0.00    +0.218 C 
ATOM     11  N   UNL     1       1.654  -1.172   1.169  0.00  0.00    -0.253 N 
ATOM     12  N   UNL     1       0.647  -0.458   1.246  0.00  0.00    -0.197 NA
ATOM     13  N   UNL     1       3.317  -2.351   0.032  0.00  0.00    -0.235 N 
ATOM     14  H   UNL     1       3.691  -2.615   0.888  0.00  0.00    +0.173 HD
ATOM     15  H   UNL     1       2.073  -1.467   1.992  0.00  0.00    +0.191 HD
ENDBRANCH   1  13
BRANCH   2  16
ATOM     16  C   UNL     1       5.669  -4.020  -2.393  0.00  0.00    +0.132 C 
BRANCH  16  17
ATOM     17  C   UNL     1       6.870  -4.870  -2.069  0.00  0.00    -0.009 C 
ATOM     18  C   UNL     1       6.894  -6.185  -1.997  0.00  0.00    +0.038 C 
ATOM     19  N   UNL     1       8.159  -6.644  -1.678  0.00  0.00    -0.270 N 
ATOM     20  O   UNL     1       9.044  -5.547  -1.526  0.00  0.00    -0.267 OA
ATOM     21  C   UNL     1       8.264  -4.368  -1.775  0.00  0.00    +0.174 C 
ATOM     22  C   UNL     1       8.255  -3.471  -0.535  0.00  0.00    +0.045 C 
ATOM     23  C   UNL     1       5.699  -7.073  -2.231  0.00  0.00    +0.065 C 
ATOM     24  H   UNL     1       8.404  -7.576  -1.573  0.00  0.00    +0.194 HD
ENDBRANCH  16  17
ENDBRANCH   2  16
TORSDOF 3
