REMARK  Name = ZINC12430076
REMARK  7 active torsions:
REMARK  status: ('A' for Active; 'I' for Inactive)
REMARK    1  A    between atoms: C_10  and  C_11
REMARK    2  A    between atoms: C_11  and  N_61
REMARK    3  A    between atoms: C_17  and  C_19
REMARK    4  A    between atoms: C_19  and  C_20
REMARK    5  A    between atoms: N_22  and  C_23
REMARK    6  A    between atoms: C_23  and  C_24
REMARK    7  A    between atoms: C_24  and  N_25
REMARK                            x       y       z     vdW  Elec       q    Type
REMARK                         _______ _______ _______ _____ _____    ______ ____
ROOT
ATOM      1  C   UNL     1       1.659   2.053   5.999  0.00  0.00    -0.058 C 
ATOM      2  C   UNL     1       0.815   2.926   6.930  0.00  0.00    +0.085 C 
ATOM      3  N   UNL     1      -0.598   2.587   6.789  0.00  0.00    -0.318 N 
ATOM      4  C   UNL     1      -1.084   1.920   5.737  0.00  0.00    +0.200 C 
ATOM      5  O   UNL     1      -2.277   1.707   5.685  0.00  0.00    -0.278 OA
ATOM      6  C   UNL     1      -0.214   1.423   4.617  0.00  0.00    +0.028 C 
ATOM      7  H   UNL     1      -1.212   2.858   7.490  0.00  0.00    +0.149 HD
ATOM      8  N   UNL     1       1.077   2.135   4.644  0.00  0.00    +0.391 N 
ATOM      9  H   UNL     1       0.922   3.121   4.404  0.00  0.00    -0.080 HD
ENDROOT
BRANCH   8  10
ATOM     10  C   UNL     1       2.005   1.538   3.656  0.00  0.00    -0.041 C 
BRANCH  10  20
ATOM     11  C   UNL     1       6.446   1.520   6.202  0.00  0.00    +0.001 A 
ATOM     12  C   UNL     1       5.283   0.753   6.253  0.00  0.00    +0.001 A 
ATOM     13  C   UNL     1       4.238   1.009   5.420  0.00  0.00    +0.009 A 
ATOM     14  C   UNL     1       4.329   2.062   4.493  0.00  0.00    -0.017 A 
ATOM     15  C   UNL     1       5.511   2.841   4.441  0.00  0.00    -0.018 A 
ATOM     16  C   UNL     1       6.570   2.546   5.317  0.00  0.00    +0.008 A 
ATOM     17  C   UNL     1       5.602   3.893   3.515  0.00  0.00    +0.008 A 
ATOM     18  C   UNL     1       4.557   4.149   2.681  0.00  0.00    +0.001 A 
ATOM     19  C   UNL     1       3.397   3.379   2.728  0.00  0.00    +0.002 A 
ATOM     20  C   UNL     1       3.271   2.356   3.617  0.00  0.00    -0.056 A 
ENDBRANCH  10  20
ENDBRANCH   8  10
BRANCH   6  21
ATOM     21  C   UNL     1      -0.904   1.694   3.279  0.00  0.00    +0.089 C 
BRANCH  21  22
ATOM     22  C   UNL     1      -1.055   3.181   3.084  0.00  0.00    +0.212 C 
ATOM     23  O   UNL     1      -0.732   3.945   3.970  0.00  0.00    -0.276 OA
ATOM     24  N   UNL     1      -1.548   3.663   1.926  0.00  0.00    -0.314 N 
ATOM     25  H   UNL     1      -1.806   3.052   1.218  0.00  0.00    +0.149 HD
BRANCH  24  26
ATOM     26  C   UNL     1      -1.694   5.108   1.737  0.00  0.00    +0.125 C 
BRANCH  26  27
ATOM     27  C   UNL     1      -2.271   5.385   0.347  0.00  0.00    +0.140 C 
BRANCH  27  28
ATOM     28  N   UNL     1      -2.418   6.830   0.158  0.00  0.00    -0.345 N 
ATOM     29  C   UNL     1      -3.566   7.540   0.380  0.00  0.00    +0.087 A 
ATOM     30  C   UNL     1      -3.360   8.839   0.115  0.00  0.00    +0.027 A 
ATOM     31  C   UNL     1      -1.968   8.971  -0.322  0.00  0.00    -0.000 A 
ATOM     32  C   UNL     1      -1.421   7.676  -0.276  0.00  0.00    +0.049 A 
ATOM     33  C   UNL     1      -0.093   7.483  -0.642  0.00  0.00    +0.026 A 
ATOM     34  C   UNL     1       0.669   8.558  -1.043  0.00  0.00    +0.002 A 
ATOM     35  C   UNL     1       0.125   9.835  -1.086  0.00  0.00    +0.001 A 
ATOM     36  C   UNL     1      -1.177  10.047  -0.731  0.00  0.00    +0.010 A 
ENDBRANCH  27  28
ENDBRANCH  26  27
ENDBRANCH  24  26
ENDBRANCH  21  22
ENDBRANCH   6  21
TORSDOF 7
