REMARK  Name = ZINC56945649
REMARK  11 active torsions:
REMARK  status: ('A' for Active; 'I' for Inactive)
REMARK    1  A    between atoms: C_1  and  C_2
REMARK    2  A    between atoms: C_5  and  C_31
REMARK    3  A    between atoms: N_8  and  C_10
REMARK    4  A    between atoms: C_10  and  C_11
REMARK    5  A    between atoms: C_11  and  C_13
REMARK    6  A    between atoms: C_11  and  N_14
REMARK    7  A    between atoms: N_17  and  N_18
REMARK    8  A    between atoms: C_19  and  C_21
REMARK    9  A    between atoms: C_21  and  O_22
REMARK   10  A    between atoms: O_22  and  C_23
REMARK   11  A    between atoms: C_26  and  C_29
REMARK                            x       y       z     vdW  Elec       q    Type
REMARK                         _______ _______ _______ _____ _____    ______ ____
ROOT
ATOM      1  N   UNL     1       2.109   1.674   3.488  0.00  0.00    -0.297 N 
ATOM      2  C   UNL     1       1.173   2.414   4.115  0.00  0.00    +0.316 C 
ATOM      3  O   UNL     1       0.351   1.874   4.831  0.00  0.00    -0.251 OA
ATOM      4  N   UNL     1       1.148   3.751   3.950  0.00  0.00    -0.218 N 
ATOM      5  H   UNL     1       2.765   2.105   2.918  0.00  0.00    +0.150 HD
ATOM      6  H   UNL     1       0.474   4.283   4.401  0.00  0.00    +0.174 HD
ENDROOT
BRANCH   4   7
ATOM      7  N   UNL     1       2.095   4.373   3.126  0.00  0.00    -0.230 N 
ATOM      8  C   UNL     1       2.070   5.710   2.960  0.00  0.00    +0.267 C 
ATOM      9  O   UNL     1       1.228   6.375   3.524  0.00  0.00    -0.271 OA
ATOM     10  H   UNL     1       2.769   3.840   2.674  0.00  0.00    +0.173 HD
BRANCH   8  11
ATOM     11  C   UNL     1       3.089   6.378   2.073  0.00  0.00    +0.326 C 
BRANCH  11  12
ATOM     12  O   UNL     1       2.856   7.788   2.059  0.00  0.00    -0.483 OA
BRANCH  12  13
ATOM     13  C   UNL     1       3.693   8.544   1.303  0.00  0.00    +0.121 A 
ATOM     14  C   UNL     1       4.715   7.936   0.583  0.00  0.00    +0.047 A 
ATOM     15  C   UNL     1       5.566   8.698  -0.186  0.00  0.00    +0.022 A 
ATOM     16  C   UNL     1       5.400  10.085  -0.242  0.00  0.00    +0.052 A 
ATOM     17  C   UNL     1       4.371  10.692   0.483  0.00  0.00    +0.022 A 
ATOM     18  C   UNL     1       3.522   9.921   1.246  0.00  0.00    +0.047 A 
BRANCH  16  19
ATOM     19  C   UNL     1       6.283  10.882  -1.040  0.00  0.00    +0.099 C 
ATOM     20  N   UNL     1       6.983  11.514  -1.673  0.00  0.00    -0.191 NA
ENDBRANCH  16  19
ENDBRANCH  12  13
ENDBRANCH  11  12
ENDBRANCH   8  11
ENDBRANCH   4   7
BRANCH   1  21
ATOM     21  C   UNL     1       2.136   0.221   3.668  0.00  0.00    +0.055 C 
ATOM     22  C   UNL     1       2.924  -0.122   4.934  0.00  0.00    +0.026 C 
BRANCH  21  23
ATOM     23  C   UNL     1       2.808  -0.431   2.458  0.00  0.00    -0.057 C 
BRANCH  23  29
ATOM     24  C   UNL     1      -0.019   1.526   0.010  0.00  0.00    +0.005 C 
ATOM     25  C   UNL     1       0.002  -0.004   0.002  0.00  0.00    -0.031 C 
ATOM     26  C   UNL     1       0.721  -0.499  -1.257  0.00  0.00    +0.003 C 
ATOM     27  C   UNL     1       2.177  -0.027  -1.220  0.00  0.00    -0.031 C 
ATOM     28  C   UNL     1       2.839  -0.534   0.063  0.00  0.00    -0.076 C 
ATOM     29  N   UNL     1       2.123  -0.005   1.230  0.00  0.00    +0.381 N 
ATOM     30  C   UNL     1       0.744  -0.512   1.240  0.00  0.00    -0.076 C 
ATOM     31  C   UNL     1       2.924  -0.581  -2.434  0.00  0.00    +0.005 C 
ATOM     32  H   UNL     1       2.109   1.003   1.187  0.00  0.00    -0.082 HD
ENDBRANCH  23  29
ENDBRANCH  21  23
ENDBRANCH   1  21
TORSDOF 8
