REMARK  Name = ZINC54759005
REMARK  12 active torsions:
REMARK  status: ('A' for Active; 'I' for Inactive)
REMARK    1  A    between atoms: C_1  and  O_2
REMARK    2  A    between atoms: O_2  and  C_3
REMARK    3  A    between atoms: C_6  and  O_25
REMARK    4  A    between atoms: C_7  and  C_9
REMARK    5  A    between atoms: C_9  and  C_10
REMARK    6  A    between atoms: C_10  and  N_11
REMARK    7  A    between atoms: N_14  and  C_15
REMARK    8  A    between atoms: C_15  and  C_16
REMARK    9  A    between atoms: C_16  and  C_17
REMARK   10  A    between atoms: C_17  and  N_18
REMARK   11  A    between atoms: N_18  and  C_19
REMARK   12  A    between atoms: O_25  and  C_26
REMARK                            x       y       z     vdW  Elec       q    Type
REMARK                         _______ _______ _______ _____ _____    ______ ____
ROOT
ATOM      1  N   UNL     1       0.298  -6.124   3.118  0.00  0.00    -0.299 N 
ATOM      2  C   UNL     1      -0.624  -6.813   3.820  0.00  0.00    +0.300 C 
ATOM      3  O   UNL     1      -1.508  -6.221   4.407  0.00  0.00    -0.253 OA
ATOM      4  N   UNL     1      -0.565  -8.158   3.870  0.00  0.00    -0.299 N 
ATOM      5  H   UNL     1       1.003  -6.596   2.649  0.00  0.00    +0.150 HD
ATOM      6  H   UNL     1       0.141  -8.631   3.401  0.00  0.00    +0.150 HD
ENDROOT
BRANCH   1   7
ATOM      7  C   UNL     1       0.234  -4.661   3.063  0.00  0.00    +0.110 C 
BRANCH   7   8
ATOM      8  C   UNL     1       1.387  -4.132   2.207  0.00  0.00    +0.057 C 
BRANCH   8  13
ATOM      9  C   UNL     1       0.626  -0.619   1.042  0.00  0.00    +0.121 A 
ATOM     10  C   UNL     1       1.202   0.139   2.051  0.00  0.00    +0.049 A 
ATOM     11  C   UNL     1       1.837  -0.485   3.107  0.00  0.00    +0.049 A 
ATOM     12  C   UNL     1       1.897  -1.870   3.159  0.00  0.00    +0.124 A 
ATOM     13  C   UNL     1       1.321  -2.628   2.151  0.00  0.00    -0.001 A 
ATOM     14  C   UNL     1       0.682  -2.003   1.097  0.00  0.00    +0.053 A 
BRANCH   9  16
ATOM     15  C   UNL     1      -0.017   1.425   0.010  0.00  0.00    +0.277 C 
ATOM     16  O   UNL     1       0.002  -0.004   0.002  0.00  0.00    -0.495 OA
ENDBRANCH   9  16
BRANCH  12  17
ATOM     17  O   UNL     1       2.522  -2.485   4.199  0.00  0.00    -0.495 OA
ATOM     18  C   UNL     1       3.094  -1.642   5.202  0.00  0.00    +0.277 C 
ENDBRANCH  12  17
ENDBRANCH   8  13
ENDBRANCH   7   8
ENDBRANCH   1   7
BRANCH   4  19
ATOM     19  C   UNL     1      -1.566  -8.907   4.633  0.00  0.00    +0.104 C 
BRANCH  19  20
ATOM     20  C   UNL     1      -1.273 -10.405   4.527  0.00  0.00    -0.000 C 
BRANCH  20  21
ATOM     21  C   UNL     1      -2.319 -11.187   5.324  0.00  0.00    -0.081 C 
BRANCH  21  22
ATOM     22  N   UNL     1      -2.037 -12.626   5.223  0.00  0.00    +0.381 N 
ATOM     23  H   UNL     1      -2.072 -12.908   4.255  0.00  0.00    -0.086 HD
ATOM     24  H   UNL     1      -1.119 -12.815   5.596  0.00  0.00    -0.086 HD
BRANCH  22  25
ATOM     25  C   UNL     1      -3.041 -13.376   5.988  0.00  0.00    -0.072 C 
ATOM     26  C   UNL     1      -2.905 -13.041   7.475  0.00  0.00    -0.016 C 
ATOM     27  C   UNL     1      -3.951 -13.823   8.271  0.00  0.00    -0.002 C 
ATOM     28  C   UNL     1      -3.733 -15.323   8.065  0.00  0.00    -0.000 C 
ATOM     29  C   UNL     1      -3.869 -15.659   6.578  0.00  0.00    -0.002 C 
ATOM     30  C   UNL     1      -2.823 -14.877   5.781  0.00  0.00    -0.016 C 
ENDBRANCH  22  25
ENDBRANCH  21  22
ENDBRANCH  20  21
ENDBRANCH  19  20
ENDBRANCH   4  19
TORSDOF 10
