REMARK  Name = ZINC50097321
REMARK  8 active torsions:
REMARK  status: ('A' for Active; 'I' for Inactive)
REMARK    1  A    between atoms: C_1  and  C_2
REMARK    2  A    between atoms: C_2  and  C_3
REMARK    3  A    between atoms: C_2  and  N_21
REMARK    4  A    between atoms: C_3  and  N_4
REMARK    5  A    between atoms: N_7  and  C_8
REMARK    6  A    between atoms: C_8  and  C_9
REMARK    7  A    between atoms: C_9  and  C_10
REMARK    8  A    between atoms: C_10  and  C_11
REMARK                            x       y       z     vdW  Elec       q    Type
REMARK                         _______ _______ _______ _____ _____    ______ ____
ROOT
ATOM      1  N   UNL     1       0.425  -2.177  -1.037  0.00  0.00    -0.301 N 
ATOM      2  C   UNL     1       0.803  -3.017  -2.020  0.00  0.00    +0.300 C 
ATOM      3  O   UNL     1       1.311  -2.577  -3.034  0.00  0.00    -0.253 OA
ATOM      4  N   UNL     1       0.620  -4.345  -1.880  0.00  0.00    -0.299 N 
ATOM      5  H   UNL     1       0.021  -2.528  -0.228  0.00  0.00    +0.150 HD
ATOM      6  H   UNL     1       0.215  -4.696  -1.071  0.00  0.00    +0.150 HD
ENDROOT
BRANCH   1   7
ATOM      7  C   UNL     1       0.625  -0.734  -1.189  0.00  0.00    +0.090 C 
BRANCH   7   9
ATOM      8  C   UNL     1       0.132   1.508  -0.202  0.00  0.00    -0.012 C 
ATOM      9  C   UNL     1      -0.009  -0.003  -0.004  0.00  0.00    -0.054 C 
BRANCH   9  10
ATOM     10  N   UNL     1      -1.433  -0.354   0.083  0.00  0.00    +0.385 N 
ATOM     11  C   UNL     1      -2.144   0.179  -1.089  0.00  0.00    -0.073 C 
ATOM     12  C   UNL     1      -3.538  -0.449  -1.141  0.00  0.00    +0.017 C 
ATOM     13  C   UNL     1      -4.215  -0.298   0.197  0.00  0.00    -0.048 A 
ATOM     14  C   UNL     1      -5.587  -0.481   0.272  0.00  0.00    +0.004 A 
ATOM     15  C   UNL     1      -6.241  -0.354   1.481  0.00  0.00    +0.000 A 
ATOM     16  C   UNL     1      -5.524  -0.045   2.622  0.00  0.00    +0.000 A 
ATOM     17  C   UNL     1      -4.158   0.138   2.548  0.00  0.00    +0.002 A 
ATOM     18  C   UNL     1      -3.499   0.013   1.333  0.00  0.00    -0.061 A 
ATOM     19  C   UNL     1      -2.009   0.230   1.297  0.00  0.00    -0.042 C 
ATOM     20  H   UNL     1      -1.532  -1.358   0.111  0.00  0.00    -0.081 HD
ENDBRANCH   9  10
ENDBRANCH   7   9
ENDBRANCH   1   7
BRANCH   4  21
ATOM     21  C   UNL     1       1.031  -5.258  -2.949  0.00  0.00    +0.106 C 
BRANCH  21  22
ATOM     22  C   UNL     1       0.713  -6.698  -2.540  0.00  0.00    +0.026 C 
BRANCH  22  23
ATOM     23  C   UNL     1       1.142  -7.652  -3.656  0.00  0.00    +0.076 C 
BRANCH  23  24
ATOM     24  C   UNL     1       0.829  -9.070  -3.254  0.00  0.00    +0.108 A 
ATOM     25  N   UNL     1       0.082  -9.941  -3.985  0.00  0.00    -0.342 N 
ATOM     26  H   UNL     1      -0.335  -9.762  -4.842  0.00  0.00    +0.167 HD
ATOM     27  C   UNL     1       0.028 -11.127  -3.281  0.00  0.00    +0.066 A 
ATOM     28  C   UNL     1      -0.570 -12.359  -3.507  0.00  0.00    +0.028 A 
ATOM     29  C   UNL     1      -0.429 -13.368  -2.577  0.00  0.00    +0.002 A 
ATOM     30  C   UNL     1       0.306 -13.159  -1.419  0.00  0.00    +0.002 A 
ATOM     31  C   UNL     1       0.902 -11.953  -1.180  0.00  0.00    +0.030 A 
ATOM     32  C   UNL     1       0.773 -10.916  -2.108  0.00  0.00    +0.089 A 
ATOM     33  N   UNL     1       1.238  -9.641  -2.159  0.00  0.00    -0.232 NA
ENDBRANCH  23  24
ENDBRANCH  22  23
ENDBRANCH  21  22
ENDBRANCH   4  21
TORSDOF 7
