REMARK  Name = ZINC35566032
REMARK  9 active torsions:
REMARK  status: ('A' for Active; 'I' for Inactive)
REMARK    1  A    between atoms: C_1  and  C_2
REMARK    2  A    between atoms: C_3  and  C_8
REMARK    3  A    between atoms: C_5  and  C_7
REMARK    4  A    between atoms: C_8  and  C_10
REMARK    5  A    between atoms: C_15  and  C_17
REMARK    6  A    between atoms: C_21  and  N_23
REMARK    7  A    between atoms: C_28  and  C_34
REMARK    8  A    between atoms: C_29  and  C_31
REMARK    9  A    between atoms: C_31  and  C_33
REMARK                            x       y       z     vdW  Elec       q    Type
REMARK                         _______ _______ _______ _____ _____    ______ ____
ROOT
ATOM      1  C   UNL     1       0.165  -1.330  -3.761  0.00  0.00    +0.077 C 
ATOM      2  C   UNL     1       0.204  -1.276  -5.112  0.00  0.00    +0.250 C 
ATOM      3  C   UNL     1       0.131  -2.647  -5.656  0.00  0.00    +0.293 C 
ATOM      4  O   UNL     1       0.145  -2.930  -6.837  0.00  0.00    -0.266 OA
ATOM      5  N   UNL     1       0.048  -3.537  -4.650  0.00  0.00    -0.232 N 
ATOM      6  C   UNL     1       0.069  -2.791  -3.386  0.00  0.00    +0.152 C 
ATOM      7  C   UNL     1      -0.035  -4.908  -4.783  0.00  0.00    +0.169 A 
ATOM      8  N   UNL     1      -0.124  -5.818  -3.828  0.00  0.00    -0.229 NA
ATOM      9  C   UNL     1      -0.197  -7.094  -4.103  0.00  0.00    +0.058 A 
ATOM     10  C   UNL     1      -0.175  -7.435  -5.454  0.00  0.00    +0.078 A 
ATOM     11  S   UNL     1      -0.054  -5.817  -6.200  0.00  0.00    -0.049 S 
ATOM     12  C   UNL     1      -0.298  -8.137  -3.020  0.00  0.00    +0.067 C 
ATOM     13  O   UNL     1       0.294  -0.144  -5.849  0.00  0.00    -0.282 OA
ENDROOT
BRANCH   6  14
ATOM     14  C   UNL     1       1.264  -3.194  -2.562  0.00  0.00    -0.020 A 
ATOM     15  C   UNL     1       2.489  -3.391  -3.171  0.00  0.00    +0.006 A 
ATOM     16  C   UNL     1       3.586  -3.760  -2.416  0.00  0.00    +0.003 A 
ATOM     17  C   UNL     1       3.458  -3.933  -1.050  0.00  0.00    +0.033 A 
ATOM     18  C   UNL     1       2.233  -3.736  -0.440  0.00  0.00    +0.127 A 
ATOM     19  C   UNL     1       1.137  -3.361  -1.196  0.00  0.00    +0.038 A 
BRANCH  18  20
ATOM     20  N   UNL     1       2.096  -3.921   1.022  0.00  0.00    +0.056 N 
ATOM     21  O   UNL     1       3.072  -4.153   1.696  0.00  0.00    -0.126 OA
ATOM     22  O   UNL     1       1.007  -3.840   1.542  0.00  0.00    -0.126 OA
ENDBRANCH  18  20
ENDBRANCH   6  14
BRANCH  10  23
ATOM     23  C   UNL     1      -0.236  -8.704  -6.063  0.00  0.00    +0.168 C 
ATOM     24  O   UNL     1      -0.322  -9.704  -5.378  0.00  0.00    -0.292 OA
ATOM     25  C   UNL     1      -0.195  -8.823  -7.565  0.00  0.00    +0.092 C 
ENDBRANCH  10  23
BRANCH   1  26
ATOM     26  C   UNL     1       0.212  -0.191  -2.837  0.00  0.00    +0.203 C 
ATOM     27  O   UNL     1       1.221   0.488  -2.760  0.00  0.00    -0.286 OA
BRANCH  26  30
ATOM     28  C   UNL     1       0.033   1.998  -0.610  0.00  0.00    +0.067 C 
ATOM     29  C   UNL     1      -1.098   1.085  -1.008  0.00  0.00    +0.057 A 
ATOM     30  C   UNL     1      -0.954   0.131  -2.008  0.00  0.00    +0.082 A 
ATOM     31  S   UNL     1      -2.586  -0.595  -2.002  0.00  0.00    -0.069 S 
ATOM     32  C   UNL     1      -3.256   0.349  -0.781  0.00  0.00    +0.076 A 
ATOM     33  N   UNL     1      -2.270   1.143  -0.428  0.00  0.00    -0.249 NA
ATOM     34  C   UNL     1      -4.654   0.294  -0.221  0.00  0.00    +0.073 C 
ENDBRANCH  26  30
ENDBRANCH   1  26
TORSDOF 5
