REMARK  Name = ZINC40460630
REMARK  6 active torsions:
REMARK  status: ('A' for Active; 'I' for Inactive)
REMARK    1  A    between atoms: C_4  and  C_7
REMARK    2  A    between atoms: C_8  and  C_17
REMARK    3  A    between atoms: N_18  and  N_19
REMARK    4  A    between atoms: C_24  and  C_27
REMARK    5  A    between atoms: C_27  and  C_28
REMARK    6  A    between atoms: N_30  and  C_31
REMARK                            x       y       z     vdW  Elec       q    Type
REMARK                         _______ _______ _______ _____ _____    ______ ____
ROOT
ATOM      1  N   UNL     1       2.696  -4.033  -3.474  0.00  0.00    -0.127 NA
ATOM      2  C   UNL     1       3.138  -5.054  -4.176  0.00  0.00    +0.183 C 
ATOM      3  N   UNL     1       4.379  -5.655  -4.118  0.00  0.00    -0.263 N 
ATOM      4  C   UNL     1       4.704  -6.684  -4.881  0.00  0.00    +0.233 C 
ATOM      5  O   UNL     1       5.797  -7.208  -4.825  0.00  0.00    -0.274 OA
ATOM      6  C   UNL     1       3.624  -7.170  -5.834  0.00  0.00    +0.149 C 
ATOM      7  S   UNL     1       2.269  -5.994  -5.422  0.00  0.00    -0.075 S 
ATOM      8  H   UNL     1       5.037  -5.310  -3.494  0.00  0.00    +0.157 HD
ENDROOT
BRANCH   1  10
ATOM      9  C   UNL     1       3.092  -2.402  -1.834  0.00  0.00    +0.145 C 
ATOM     10  N   UNL     1       3.531  -3.417  -2.532  0.00  0.00    -0.155 NA
BRANCH   9  12
ATOM     11  C   UNL     1       3.648  -0.679  -0.038  0.00  0.00    +0.056 A 
ATOM     12  C   UNL     1       3.965  -1.758  -0.849  0.00  0.00    +0.028 A 
ATOM     13  C   UNL     1       5.353  -2.128  -0.524  0.00  0.00    +0.009 A 
ATOM     14  C   UNL     1       6.220  -3.114  -0.993  0.00  0.00    +0.010 A 
ATOM     15  C   UNL     1       7.492  -3.206  -0.475  0.00  0.00    +0.001 A 
ATOM     16  C   UNL     1       7.913  -2.324   0.510  0.00  0.00    +0.002 A 
ATOM     17  C   UNL     1       7.067  -1.345   0.984  0.00  0.00    +0.026 A 
ATOM     18  C   UNL     1       5.777  -1.234   0.473  0.00  0.00    +0.048 A 
ATOM     19  N   UNL     1       4.735  -0.371   0.743  0.00  0.00    -0.354 N 
ATOM     20  H   UNL     1       4.765   0.349   1.392  0.00  0.00    +0.166 HD
BRANCH  11  24
ATOM     21  C   UNL     1      -0.077   1.355   0.013  0.00  0.00    +0.000 A 
ATOM     22  C   UNL     1       1.103   2.078   0.005  0.00  0.00    +0.001 A 
ATOM     23  C   UNL     1       2.317   1.425  -0.012  0.00  0.00    +0.010 A 
ATOM     24  C   UNL     1       2.354   0.027  -0.020  0.00  0.00    -0.001 A 
ATOM     25  C   UNL     1       1.159  -0.697  -0.011  0.00  0.00    +0.010 A 
ATOM     26  C   UNL     1      -0.048  -0.029   0.005  0.00  0.00    +0.001 A 
ENDBRANCH  11  24
ENDBRANCH   9  12
ENDBRANCH   1  10
BRANCH   6  27
ATOM     27  C   UNL     1       4.065  -7.029  -7.292  0.00  0.00    +0.120 C 
BRANCH  27  28
ATOM     28  C   UNL     1       3.020  -7.633  -8.194  0.00  0.00    +0.219 C 
ATOM     29  O   UNL     1       2.020  -8.128  -7.717  0.00  0.00    -0.275 OA
ATOM     30  N   UNL     1       3.196  -7.622  -9.530  0.00  0.00    -0.285 N 
ATOM     31  H   UNL     1       3.961  -7.168  -9.915  0.00  0.00    +0.155 HD
BRANCH  30  32
ATOM     32  C   UNL     1       2.273  -8.268 -10.363  0.00  0.00    +0.034 A 
ATOM     33  C   UNL     1       2.707  -8.906 -11.517  0.00  0.00    +0.026 A 
ATOM     34  C   UNL     1       1.795  -9.543 -12.337  0.00  0.00    +0.040 A 
ATOM     35  C   UNL     1       0.450  -9.544 -12.008  0.00  0.00    +0.124 A 
ATOM     36  C   UNL     1       0.016  -8.909 -10.857  0.00  0.00    +0.040 A 
ATOM     37  C   UNL     1       0.925  -8.276 -10.032  0.00  0.00    +0.026 A 
ATOM     38  F   UNL     1      -0.440 -10.167 -12.812  0.00  0.00    -0.205 F 
ENDBRANCH  30  32
ENDBRANCH  27  28
ENDBRANCH   6  27
TORSDOF 6
