REMARK  Name = ZINC15021935
REMARK  6 active torsions:
REMARK  status: ('A' for Active; 'I' for Inactive)
REMARK    1  A    between atoms: C_1  and  C_2
REMARK    2  A    between atoms: C_6  and  C_8
REMARK    3  A    between atoms: C_13  and  O_39
REMARK    4  A    between atoms: C_14  and  O_38
REMARK    5  A    between atoms: C_25  and  C_31
REMARK    6  A    between atoms: C_35  and  C_37
REMARK                            x       y       z     vdW  Elec       q    Type
REMARK                         _______ _______ _______ _____ _____    ______ ____
ROOT
ATOM      1  C   UNL     1      -0.020   0.106  -2.486  0.00  0.00    +0.061 C 
ATOM      2  C   UNL     1       0.827  -0.060  -3.722  0.00  0.00    +0.006 A 
ATOM      3  C   UNL     1       0.222   0.053  -4.964  0.00  0.00    +0.011 A 
ATOM      4  C   UNL     1       0.966  -0.080  -6.120  0.00  0.00    +0.050 A 
ATOM      5  C   UNL     1       2.328  -0.327  -6.042  0.00  0.00    +0.162 A 
ATOM      6  C   UNL     1       2.938  -0.444  -4.801  0.00  0.00    +0.201 A 
ATOM      7  C   UNL     1       2.184  -0.312  -3.636  0.00  0.00    +0.172 A 
ATOM      8  O   UNL     1       2.812  -0.440  -2.438  0.00  0.00    -0.464 OA
ATOM      9  C   UNL     1       2.146   0.035  -1.270  0.00  0.00    +0.186 C 
ATOM     10  C   UNL     1       0.705  -0.484  -1.273  0.00  0.00    +0.064 C 
ATOM     11  C   UNL     1       0.002  -0.004   0.002  0.00  0.00    +0.010 C 
ATOM     12  C   UNL     1      -0.019   1.526   0.010  0.00  0.00    +0.001 C 
ATOM     13  C   UNL     1       1.415   2.057  -0.000  0.00  0.00    +0.011 C 
ATOM     14  C   UNL     1       2.143   1.566  -1.255  0.00  0.00    +0.077 C 
ATOM     15  C   UNL     1       3.602   2.041  -1.190  0.00  0.00    +0.111 C 
ATOM     16  N   UNL     1       4.242   1.444  -0.016  0.00  0.00    -0.319 N 
ATOM     17  C   UNL     1       3.842   0.260   0.472  0.00  0.00    +0.134 C 
ATOM     18  S   UNL     1       4.636  -0.370   1.853  0.00  0.00    -0.019 S 
ATOM     19  N   UNL     1       2.845  -0.451  -0.078  0.00  0.00    -0.289 N 
ATOM     20  H   UNL     1       4.970   1.914   0.418  0.00  0.00    +0.148 HD
ATOM     21  H   UNL     1       2.584  -1.297   0.318  0.00  0.00    +0.151 HD
ENDROOT
BRANCH   1  27
ATOM     22  C   UNL     1      -5.016   0.221  -2.751  0.00  0.00    +0.044 C 
ATOM     23  C   UNL     1      -3.724  -0.551  -2.808  0.00  0.00    -0.050 A 
ATOM     24  C   UNL     1      -3.743  -1.915  -3.037  0.00  0.00    +0.003 A 
ATOM     25  C   UNL     1      -2.558  -2.623  -3.089  0.00  0.00    +0.001 A 
ATOM     26  C   UNL     1      -1.352  -1.969  -2.915  0.00  0.00    +0.004 A 
ATOM     27  C   UNL     1      -1.333  -0.607  -2.680  0.00  0.00    -0.039 A 
ATOM     28  C   UNL     1      -2.519   0.102  -2.630  0.00  0.00    +0.007 A 
ENDBRANCH   1  27
BRANCH  15  29
ATOM     29  C   UNL     1       3.639   3.543  -1.075  0.00  0.00    -0.027 A 
ATOM     30  C   UNL     1       3.420   4.149   0.148  0.00  0.00    +0.005 A 
ATOM     31  C   UNL     1       3.459   5.527   0.254  0.00  0.00    +0.001 A 
ATOM     32  C   UNL     1       3.707   6.299  -0.865  0.00  0.00    +0.003 A 
ATOM     33  C   UNL     1       3.921   5.694  -2.089  0.00  0.00    -0.050 A 
ATOM     34  C   UNL     1       3.888   4.316  -2.194  0.00  0.00    +0.008 A 
ATOM     35  C   UNL     1       4.192   6.536  -3.309  0.00  0.00    +0.044 C 
ENDBRANCH  15  29
BRANCH   6  36
ATOM     36  O   UNL     1       4.275  -0.687  -4.721  0.00  0.00    -0.501 OA
ATOM     37  H   UNL     1       4.503  -1.626  -4.701  0.00  0.00    +0.292 HD
ENDBRANCH   6  36
BRANCH   5  38
ATOM     38  O   UNL     1       3.064  -0.455  -7.178  0.00  0.00    -0.503 OA
ATOM     39  H   UNL     1       3.435   0.377  -7.502  0.00  0.00    +0.292 HD
ENDBRANCH   5  38
TORSDOF 4
