REMARK  Name = ZINC08895559
REMARK  13 active torsions:
REMARK  status: ('A' for Active; 'I' for Inactive)
REMARK    1  A    between atoms: C_1  and  N_59
REMARK    2  A    between atoms: C_2  and  N_59
REMARK    3  A    between atoms: C_3  and  C_4
REMARK    4  A    between atoms: C_3  and  N_59
REMARK    5  A    between atoms: C_4  and  C_5
REMARK    6  A    between atoms: C_5  and  N_6
REMARK    7  A    between atoms: C_7  and  C_23
REMARK    8  A    between atoms: C_10  and  C_11
REMARK    9  A    between atoms: C_10  and  O_18
REMARK   10  A    between atoms: C_25  and  O_31
REMARK   11  A    between atoms: C_28  and  O_29
REMARK   12  A    between atoms: O_29  and  C_30
REMARK   13  A    between atoms: O_31  and  C_32
REMARK                            x       y       z     vdW  Elec       q    Type
REMARK                         _______ _______ _______ _____ _____    ______ ____
ROOT
ATOM      1  N   UNL     1      -1.009  -1.143   0.270  0.00  0.00    -0.283 N 
ATOM      2  C   UNL     1      -2.229  -0.939   1.056  0.00  0.00    +0.148 C 
ATOM      3  C   UNL     1      -3.358  -1.571   0.275  0.00  0.00    +0.071 C 
ATOM      4  C   UNL     1      -4.690  -1.617   0.633  0.00  0.00    +0.133 C 
ATOM      5  C   UNL     1      -2.777  -2.105  -0.887  0.00  0.00    +0.249 C 
ATOM      6  O   UNL     1      -3.366  -2.700  -1.771  0.00  0.00    -0.282 OA
ATOM      7  C   UNL     1      -1.318  -1.817  -0.850  0.00  0.00    +0.288 C 
ATOM      8  O   UNL     1      -0.522  -2.145  -1.707  0.00  0.00    -0.266 OA
ENDROOT
BRANCH   4   9
ATOM      9  C   UNL     1      -5.689  -2.144  -0.313  0.00  0.00    +0.017 A 
ATOM     10  C   UNL     1      -5.761  -1.635  -1.614  0.00  0.00    +0.012 A 
ATOM     11  C   UNL     1      -6.694  -2.137  -2.496  0.00  0.00    +0.016 A 
ATOM     12  C   UNL     1      -7.567  -3.134  -2.092  0.00  0.00    +0.018 A 
ATOM     13  C   UNL     1      -7.506  -3.638  -0.803  0.00  0.00    +0.016 A 
ATOM     14  C   UNL     1      -6.574  -3.150   0.087  0.00  0.00    +0.012 A 
ATOM     15 BR   UNL     1      -8.850  -3.810  -3.307  0.00  0.00    -0.050 Br
ENDBRANCH   4   9
BRANCH   2  16
ATOM     16  C   UNL     1      -2.489   0.534   1.233  0.00  0.00    +0.023 A 
ATOM     17  C   UNL     1      -2.092   1.428   0.257  0.00  0.00    +0.055 A 
ATOM     18  C   UNL     1      -2.332   2.784   0.420  0.00  0.00    +0.121 A 
ATOM     19  C   UNL     1      -2.970   3.244   1.563  0.00  0.00    +0.049 A 
ATOM     20  C   UNL     1      -3.366   2.350   2.539  0.00  0.00    +0.049 A 
ATOM     21  C   UNL     1      -3.132   0.993   2.373  0.00  0.00    +0.126 A 
BRANCH  21  22
ATOM     22  O   UNL     1      -3.527   0.113   3.332  0.00  0.00    -0.495 OA
ATOM     23  C   UNL     1      -4.183   0.655   4.479  0.00  0.00    +0.277 C 
ENDBRANCH  21  22
BRANCH  18  24
ATOM     24  O   UNL     1      -1.942   3.663  -0.541  0.00  0.00    -0.495 OA
ATOM     25  C   UNL     1      -2.221   5.045  -0.308  0.00  0.00    +0.277 C 
ENDBRANCH  18  24
ENDBRANCH   2  16
BRANCH   4  26
ATOM     26  O   UNL     1      -5.077  -1.181   1.850  0.00  0.00    -0.506 OA
ATOM     27  H   UNL     1      -6.067  -1.286   1.942  0.00  0.00    +0.292 HD
ENDBRANCH   4  26
BRANCH   1  28
ATOM     28  C   UNL     1       0.332  -0.690   0.648  0.00  0.00    +0.107 C 
BRANCH  28  29
ATOM     29  C   UNL     1       1.072  -1.824   1.360  0.00  0.00    +0.000 C 
BRANCH  29  30
ATOM     30  C   UNL     1       2.512  -1.394   1.645  0.00  0.00    -0.078 C 
BRANCH  30  33
ATOM     31  C   UNL     1       4.663  -2.204   2.407  0.00  0.00    -0.097 C 
ATOM     32  C   UNL     1       2.659  -2.721   3.664  0.00  0.00    -0.097 C 
ATOM     33  N   UNL     1       3.219  -2.506   2.313  0.00  0.00    +0.376 N 
ATOM     34  H   UNL     1       3.093  -3.362   1.760  0.00  0.00    -0.083 HD
ENDBRANCH  30  33
ENDBRANCH  29  30
ENDBRANCH  28  29
ENDBRANCH   1  28
TORSDOF 9
