REMARK  Name = ZINC49859145
REMARK  7 active torsions:
REMARK  status: ('A' for Active; 'I' for Inactive)
REMARK    1  A    between atoms: C_1  and  C_2
REMARK    2  A    between atoms: N_4  and  C_12
REMARK    3  A    between atoms: C_7  and  C_10
REMARK    4  A    between atoms: C_8  and  C_9
REMARK    5  A    between atoms: C_15  and  N_18
REMARK    6  A    between atoms: N_18  and  C_19
REMARK    7  A    between atoms: N_18  and  C_20
REMARK                            x       y       z     vdW  Elec       q    Type
REMARK                         _______ _______ _______ _____ _____    ______ ____
ROOT
ATOM      1  C   UNL     1      -2.518  -0.976   1.319  0.00  0.00    +0.045 C 
ATOM      2  C   UNL     1      -1.195  -1.192   0.629  0.00  0.00    -0.030 A 
ATOM      3  C   UNL     1      -1.153  -1.823  -0.572  0.00  0.00    +0.098 A 
ATOM      4  N   UNL     1       0.023  -2.031  -1.215  0.00  0.00    -0.283 N 
ATOM      5  C   UNL     1       1.189  -1.617  -0.682  0.00  0.00    +0.273 A 
ATOM      6  O   UNL     1       2.236  -1.813  -1.275  0.00  0.00    -0.266 OA
ATOM      7  C   UNL     1       1.195  -0.953   0.572  0.00  0.00    +0.120 A 
ATOM      8  C   UNL     1      -0.018  -0.738   1.224  0.00  0.00    -0.024 A 
ATOM      9  C   UNL     1      -0.056  -0.032   2.554  0.00  0.00    +0.045 C 
ENDROOT
BRANCH   4  10
ATOM     10  C   UNL     1       0.026  -2.686  -2.454  0.00  0.00    +0.050 A 
ATOM     11  C   UNL     1      -0.089  -1.953  -3.628  0.00  0.00    +0.028 A 
ATOM     12  C   UNL     1      -0.087  -2.599  -4.848  0.00  0.00    +0.025 A 
ATOM     13  C   UNL     1       0.031  -3.982  -4.901  0.00  0.00    +0.029 A 
ATOM     14  C   UNL     1       0.146  -4.715  -3.727  0.00  0.00    +0.025 A 
ATOM     15  C   UNL     1       0.148  -4.069  -2.507  0.00  0.00    +0.028 A 
BRANCH  13  16
ATOM     16  N   UNL     1       0.033  -4.636  -6.136  0.00  0.00    -0.336 N 
ATOM     17  C   UNL     1      -0.089  -3.863  -7.375  0.00  0.00    +0.129 C 
ATOM     18  C   UNL     1       0.157  -6.095  -6.193  0.00  0.00    +0.129 C 
ENDBRANCH  13  16
ENDBRANCH   4  10
BRANCH   7  19
ATOM     19  C   UNL     1       2.424  -0.507   1.154  0.00  0.00    +0.105 C 
ATOM     20  N   UNL     1       3.400  -0.153   1.616  0.00  0.00    -0.191 NA
ENDBRANCH   7  19
TORSDOF 3
