REMARK  Name = ZINC12924791
REMARK  6 active torsions:
REMARK  status: ('A' for Active; 'I' for Inactive)
REMARK    1  A    between atoms: C_1  and  C_2
REMARK    2  A    between atoms: C_3  and  C_14
REMARK    3  A    between atoms: C_4  and  C_13
REMARK    4  A    between atoms: N_5  and  C_7
REMARK    5  A    between atoms: N_16  and  C_17
REMARK    6  A    between atoms: N_16  and  C_18
REMARK                            x       y       z     vdW  Elec       q    Type
REMARK                         _______ _______ _______ _____ _____    ______ ____
ROOT
ATOM      1  C   UNL     1      -0.251   6.744  -0.916  0.00  0.00    +0.068 C 
ATOM      2  C   UNL     1       0.513   5.549  -0.408  0.00  0.00    +0.073 A 
ATOM      3  C   UNL     1       1.678   5.588   0.392  0.00  0.00    +0.080 A 
ATOM      4  C   UNL     1       2.049   4.281   0.635  0.00  0.00    +0.054 A 
ATOM      5  N   UNL     1       1.161   3.487   0.009  0.00  0.00    -0.236 N 
ATOM      6  N   UNL     1       0.216   4.298  -0.629  0.00  0.00    -0.171 NA
ATOM      7  C   UNL     1       3.233   3.826   1.450  0.00  0.00    +0.066 C 
ENDROOT
BRANCH   5   8
ATOM      8  C   UNL     1       1.177   2.086   0.002  0.00  0.00    +0.066 A 
ATOM      9  C   UNL     1      -0.017   1.377   0.010  0.00  0.00    +0.028 A 
ATOM     10  C   UNL     1       0.002  -0.004   0.002  0.00  0.00    +0.002 A 
ATOM     11  C   UNL     1       1.208  -0.680  -0.014  0.00  0.00    +0.000 A 
ATOM     12  C   UNL     1       2.398   0.023  -0.021  0.00  0.00    +0.002 A 
ATOM     13  C   UNL     1       2.386   1.404  -0.012  0.00  0.00    +0.028 A 
ENDBRANCH   5   8
BRANCH   3  14
ATOM     14  C   UNL     1       2.365   6.798   0.880  0.00  0.00    +0.250 C 
ATOM     15  O   UNL     1       2.052   7.285   1.949  0.00  0.00    -0.270 OA
ATOM     16  N   UNL     1       3.339   7.364   0.140  0.00  0.00    -0.304 N 
ATOM     17  C   UNL     1       4.022   8.566   0.625  0.00  0.00    +0.132 C 
ATOM     18  C   UNL     1       3.716   6.776  -1.148  0.00  0.00    +0.132 C 
ENDBRANCH   3  14
TORSDOF 2
