REMARK  Name = ZINC66120811
REMARK  8 active torsions:
REMARK  status: ('A' for Active; 'I' for Inactive)
REMARK    1  A    between atoms: C_1  and  C_2
REMARK    2  A    between atoms: C_2  and  C_3
REMARK    3  A    between atoms: C_2  and  C_4
REMARK    4  A    between atoms: C_4  and  N_5
REMARK    5  A    between atoms: C_8  and  N_11
REMARK    6  A    between atoms: C_18  and  C_21
REMARK    7  A    between atoms: C_21  and  C_22
REMARK    8  A    between atoms: C_22  and  C_23
REMARK                            x       y       z     vdW  Elec       q    Type
REMARK                         _______ _______ _______ _____ _____    ______ ____
ROOT
ATOM      1  N   UNL     1      -2.075  -5.955  -1.406  0.00  0.00    -0.297 N 
ATOM      2  C   UNL     1      -3.139  -6.693  -1.781  0.00  0.00    +0.302 C 
ATOM      3  O   UNL     1      -4.203  -6.152  -2.009  0.00  0.00    -0.253 OA
ATOM      4  N   UNL     1      -3.023  -8.030  -1.902  0.00  0.00    -0.285 N 
ATOM      5  C   UNL     1      -1.780  -8.712  -1.515  0.00  0.00    +0.109 C 
ATOM      6  C   UNL     1      -2.120  -9.831  -0.524  0.00  0.00    +0.019 C 
ATOM      7  C   UNL     1      -3.175 -10.751  -1.143  0.00  0.00    +0.006 C 
ATOM      8  C   UNL     1      -4.449  -9.951  -1.424  0.00  0.00    +0.007 C 
ATOM      9  C   UNL     1      -4.138  -8.835  -2.418  0.00  0.00    +0.112 C 
ATOM     10  H   UNL     1      -1.246  -6.393  -1.155  0.00  0.00    +0.151 HD
ENDROOT
BRANCH   1  14
ATOM     11  N   UNL     1      -1.411  -1.996  -0.123  0.00  0.00    +0.380 N 
ATOM     12  C   UNL     1      -0.868  -2.364  -1.436  0.00  0.00    -0.077 C 
ATOM     13  C   UNL     1      -0.773  -3.887  -1.544  0.00  0.00    +0.004 C 
ATOM     14  C   UNL     1      -2.169  -4.494  -1.380  0.00  0.00    +0.071 C 
ATOM     15  C   UNL     1      -2.756  -4.043  -0.039  0.00  0.00    +0.004 C 
ATOM     16  C   UNL     1      -2.778  -2.514   0.013  0.00  0.00    -0.077 C 
ATOM     17  H   UNL     1      -0.830  -2.390   0.601  0.00  0.00    -0.082 HD
BRANCH  11  18
ATOM     18  C   UNL     1      -1.429  -0.533   0.005  0.00  0.00    -0.076 C 
BRANCH  18  20
ATOM     19  C   UNL     1      -0.015   1.527  -0.003  0.00  0.00    +0.005 C 
ATOM     20  C   UNL     1       0.006  -0.003  -0.012  0.00  0.00    -0.034 C 
ATOM     21  C   UNL     1       0.752  -0.509   1.225  0.00  0.00    +0.005 C 
ENDBRANCH  18  20
ENDBRANCH  11  18
ENDBRANCH   1  14
BRANCH   8  22
ATOM     22  C   UNL     1      -5.515 -10.879  -2.011  0.00  0.00    +0.014 C 
BRANCH  22  23
ATOM     23  C   UNL     1      -6.827 -10.109  -2.175  0.00  0.00    +0.096 C 
BRANCH  23  24
ATOM     24  C   UNL     1      -7.877 -11.023  -2.753  0.00  0.00    +0.210 C 
ATOM     25  O   UNL     1      -7.603 -12.176  -3.009  0.00  0.00    -0.276 OA
ATOM     26  N   UNL     1      -9.120 -10.558  -2.987  0.00  0.00    -0.329 N 
ATOM     27  H   UNL     1      -9.339  -9.636  -2.783  0.00  0.00    +0.145 HD
ATOM     28  H   UNL     1      -9.796 -11.146  -3.359  0.00  0.00    +0.145 HD
ENDBRANCH  23  24
ENDBRANCH  22  23
ENDBRANCH   8  22
TORSDOF 6
