REMARK  Name = ZINC35073231
REMARK  12 active torsions:
REMARK  status: ('A' for Active; 'I' for Inactive)
REMARK    1  A    between atoms: C_1  and  C_2
REMARK    2  A    between atoms: C_2  and  C_3
REMARK    3  A    between atoms: C_8  and  N_9
REMARK    4  A    between atoms: C_19  and  C_20
REMARK    5  A    between atoms: C_20  and  C_22
REMARK    6  A    between atoms: C_20  and  N_23
REMARK    7  A    between atoms: N_23  and  C_24
REMARK    8  A    between atoms: C_24  and  C_25
REMARK    9  A    between atoms: C_25  and  N_26
REMARK   10  A    between atoms: N_26  and  C_27
REMARK   11  A    between atoms: N_26  and  C_28
REMARK   12  A    between atoms: N_31  and  C_32
REMARK                            x       y       z     vdW  Elec       q    Type
REMARK                         _______ _______ _______ _____ _____    ______ ____
ROOT
ATOM      1  C   UNL     1      -2.410   1.996  -1.803  0.00  0.00    +0.141 C 
ATOM      2  C   UNL     1      -1.608   1.950  -0.500  0.00  0.00    +0.036 C 
ENDROOT
BRANCH   1  13
ATOM      3  N   UNL     1      -2.567   0.655  -3.863  0.00  0.00    -0.263 N 
ATOM      4  C   UNL     1      -2.075  -0.206  -4.784  0.00  0.00    +0.266 A 
ATOM      5  O   UNL     1      -2.735  -0.546  -5.749  0.00  0.00    -0.267 OA
ATOM      6  C   UNL     1      -0.712  -0.716  -4.574  0.00  0.00    +0.065 A 
ATOM      7  C   UNL     1      -0.113  -1.606  -5.464  0.00  0.00    +0.015 A 
ATOM      8  C   UNL     1       1.167  -2.051  -5.219  0.00  0.00    +0.001 A 
ATOM      9  C   UNL     1       1.863  -1.621  -4.097  0.00  0.00    +0.002 A 
ATOM     10  C   UNL     1       1.289  -0.742  -3.206  0.00  0.00    +0.028 A 
ATOM     11  C   UNL     1      -0.008  -0.275  -3.432  0.00  0.00    +0.078 A 
ATOM     12  N   UNL     1      -0.610   0.592  -2.580  0.00  0.00    -0.231 NA
ATOM     13  C   UNL     1      -1.814   1.029  -2.794  0.00  0.00    +0.138 A 
BRANCH   3  19
ATOM     14  C   UNL     1      -4.952   0.465  -3.528  0.00  0.00    -0.024 A 
ATOM     15  C   UNL     1      -6.226   0.979  -3.675  0.00  0.00    +0.005 A 
ATOM     16  C   UNL     1      -6.415   2.190  -4.314  0.00  0.00    +0.000 A 
ATOM     17  C   UNL     1      -5.330   2.893  -4.806  0.00  0.00    +0.002 A 
ATOM     18  C   UNL     1      -4.054   2.385  -4.661  0.00  0.00    +0.026 A 
ATOM     19  C   UNL     1      -3.860   1.170  -4.016  0.00  0.00    +0.054 A 
BRANCH  14  21
ATOM     20  C   UNL     1      -4.349  -0.609  -1.375  0.00  0.00    +0.009 C 
ATOM     21  C   UNL     1      -4.747  -0.856  -2.832  0.00  0.00    +0.034 C 
ENDBRANCH  14  21
ENDBRANCH   3  19
ENDBRANCH   1  13
BRANCH   1  22
ATOM     22  N   UNL     1      -2.365   3.352  -2.356  0.00  0.00    -0.277 N 
ATOM     23  C   UNL     1      -3.491   4.088  -2.426  0.00  0.00    +0.307 C 
ATOM     24  O   UNL     1      -4.545   3.627  -2.031  0.00  0.00    -0.252 OA
ATOM     25  N   UNL     1      -3.450   5.336  -2.935  0.00  0.00    -0.267 N 
ATOM     26  H   UNL     1      -2.627   5.676  -3.320  0.00  0.00    +0.156 HD
BRANCH  25  27
ATOM     27  C   UNL     1      -4.597   6.142  -2.908  0.00  0.00    +0.070 A 
ATOM     28  C   UNL     1      -5.579   5.921  -1.953  0.00  0.00    +0.029 A 
ATOM     29  C   UNL     1      -6.708   6.717  -1.927  0.00  0.00    +0.040 A 
ATOM     30  C   UNL     1      -6.861   7.735  -2.854  0.00  0.00    +0.126 A 
ATOM     31  C   UNL     1      -5.884   7.957  -3.809  0.00  0.00    +0.078 A 
ATOM     32  C   UNL     1      -4.749   7.167  -3.834  0.00  0.00    +0.147 A 
ATOM     33  F   UNL     1      -3.792   7.388  -4.762  0.00  0.00    -0.203 F 
ATOM     34  F   UNL     1      -7.967   8.511  -2.827  0.00  0.00    -0.205 F 
ENDBRANCH  25  27
BRANCH  22  35
ATOM     35  C   UNL     1      -1.096   3.907  -2.832  0.00  0.00    +0.091 C 
BRANCH  35  36
ATOM     36  C   UNL     1      -0.984   3.699  -4.344  0.00  0.00    -0.060 C 
BRANCH  36  37
ATOM     37  N   UNL     1       0.311   4.210  -4.814  0.00  0.00    +0.377 N 
ATOM     38  C   UNL     1       1.395   3.409  -4.230  0.00  0.00    -0.097 C 
ATOM     39  C   UNL     1       0.370   4.120  -6.279  0.00  0.00    -0.097 C 
ATOM     40  H   UNL     1       0.415   5.173  -4.532  0.00  0.00    -0.083 HD
ENDBRANCH  36  37
ENDBRANCH  35  36
ENDBRANCH  22  35
ENDBRANCH   1  22
TORSDOF 8
