REMARK  Name = ZINC39447300
REMARK  8 active torsions:
REMARK  status: ('A' for Active; 'I' for Inactive)
REMARK    1  A    between atoms: C_6  and  N_7
REMARK    2  A    between atoms: C_9  and  C_12
REMARK    3  A    between atoms: C_12  and  N_13
REMARK    4  A    between atoms: N_13  and  C_14
REMARK    5  A    between atoms: N_13  and  C_21
REMARK    6  A    between atoms: C_14  and  C_15
REMARK    7  A    between atoms: C_21  and  C_22
REMARK    8  A    between atoms: N_25  and  C_28
REMARK                            x       y       z     vdW  Elec       q    Type
REMARK                         _______ _______ _______ _____ _____    ______ ____
ROOT
ATOM      1  N   UNL     1      -3.335  -4.179   1.268  0.00  0.00    +0.384 N 
ATOM      2  H   UNL     1      -3.895  -3.724   1.974  0.00  0.00    -0.081 HD
ENDROOT
BRANCH   1   3
ATOM      3  C   UNL     1      -3.415  -3.417   0.015  0.00  0.00    -0.040 C 
BRANCH   3   6
ATOM      4  N   UNL     1      -1.870  -0.153   0.533  0.00  0.00    -0.240 N 
ATOM      5  C   UNL     1      -1.783  -1.472   0.251  0.00  0.00    +0.116 A 
ATOM      6  C   UNL     1      -3.036  -1.982   0.274  0.00  0.00    -0.026 A 
ATOM      7  C   UNL     1      -3.919  -0.940   0.581  0.00  0.00    +0.136 A 
ATOM      8  N   UNL     1      -3.220   0.155   0.743  0.00  0.00    -0.175 NA
BRANCH   4  14
ATOM      9  C   UNL     1      -1.029   2.081   0.917  0.00  0.00    +0.030 A 
ATOM     10  C   UNL     1       0.028   2.966   0.992  0.00  0.00    +0.040 A 
ATOM     11  C   UNL     1       1.320   2.524   0.761  0.00  0.00    +0.124 A 
ATOM     12  C   UNL     1       1.554   1.194   0.454  0.00  0.00    +0.040 A 
ATOM     13  C   UNL     1       0.499   0.306   0.378  0.00  0.00    +0.030 A 
ATOM     14  C   UNL     1      -0.797   0.748   0.610  0.00  0.00    +0.066 A 
ATOM     15  F   UNL     1       2.353   3.391   0.834  0.00  0.00    -0.205 F 
ENDBRANCH   4  14
ENDBRANCH   3   6
ENDBRANCH   1   3
BRANCH   1  16
ATOM     16  C   UNL     1      -1.937  -4.239   1.716  0.00  0.00    -0.046 C 
BRANCH  16  17
ATOM     17  C   UNL     1      -1.876  -4.859   3.114  0.00  0.00    +0.102 C 
ATOM     18  C   UNL     1      -0.434  -4.777   3.660  0.00  0.00    +0.032 C 
ATOM     19  C   UNL     1      -0.278  -6.143   4.383  0.00  0.00    +0.030 C 
ATOM     20  C   UNL     1      -1.131  -7.059   3.469  0.00  0.00    +0.160 C 
ATOM     21  O   UNL     1      -2.239  -6.243   3.048  0.00  0.00    -0.378 OA
ENDBRANCH  16  17
ENDBRANCH   1  16
BRANCH   1  22
ATOM     22  C   UNL     1      -3.838  -5.541   1.046  0.00  0.00    -0.075 C 
BRANCH  22  23
ATOM     23  C   UNL     1      -5.308  -5.480   0.627  0.00  0.00    -0.031 C 
ATOM     24  C   UNL     1      -6.140  -4.883   1.765  0.00  0.00    -0.017 C 
ATOM     25  C   UNL     1      -7.619  -4.898   1.371  0.00  0.00    -0.078 C 
ATOM     26  N   UNL     1      -8.048  -6.279   1.122  0.00  0.00    +0.382 N 
ATOM     27  C   UNL     1      -7.304  -6.835  -0.015  0.00  0.00    -0.078 C 
ATOM     28  C   UNL     1      -5.813  -6.894   0.326  0.00  0.00    -0.017 C 
ATOM     29  H   UNL     1      -7.872  -6.838   1.943  0.00  0.00    -0.081 HD
BRANCH  26  30
ATOM     30  C   UNL     1      -9.486  -6.297   0.820  0.00  0.00    -0.069 C 
ATOM     31  C   UNL     1     -10.287  -5.791   2.036  0.00  0.00    -0.015 C 
ATOM     32  C   UNL     1     -11.561  -6.672   2.045  0.00  0.00    -0.002 C 
ATOM     33  C   UNL     1     -11.020  -8.060   1.621  0.00  0.00    -0.002 C 
ATOM     34  C   UNL     1      -9.951  -7.740   0.556  0.00  0.00    -0.015 C 
ENDBRANCH  26  30
ENDBRANCH  22  23
ENDBRANCH   1  22
TORSDOF 8
