REMARK  Name = ZINC30697474
REMARK  6 active torsions:
REMARK  status: ('A' for Active; 'I' for Inactive)
REMARK    1  A    between atoms: C_1  and  C_2
REMARK    2  A    between atoms: C_6  and  C_15
REMARK    3  A    between atoms: N_8  and  C_9
REMARK    4  A    between atoms: N_20  and  S_23
REMARK    5  A    between atoms: S_23  and  N_26
REMARK    6  A    between atoms: N_29  and  C_32
REMARK                            x       y       z     vdW  Elec       q    Type
REMARK                         _______ _______ _______ _____ _____    ______ ____
ROOT
ATOM      1  C   UNL     1      -1.065   1.600  -0.945  0.00  0.00    +0.271 C 
ATOM      2  O   UNL     1      -0.939   2.370  -1.878  0.00  0.00    -0.268 OA
ATOM      3  N   UNL     1       0.024   1.164  -0.280  0.00  0.00    -0.294 N 
ATOM      4  C   UNL     1       1.374   1.497  -0.756  0.00  0.00    +0.125 C 
ATOM      5  C   UNL     1       2.144   2.170   0.387  0.00  0.00    +0.129 C 
ATOM      6  N   UNL     1       2.002   1.348   1.597  0.00  0.00    -0.163 NA
ATOM      7  C   UNL     1       0.651   1.015   2.073  0.00  0.00    +0.129 C 
ATOM      8  C   UNL     1      -0.119   0.342   0.930  0.00  0.00    +0.125 C 
ENDROOT
BRANCH   1  14
ATOM      9  C   UNL     1      -6.190  -0.340   0.642  0.00  0.00    +0.066 C 
ATOM     10  C   UNL     1      -4.872   0.251   0.211  0.00  0.00    +0.044 A 
ATOM     11  C   UNL     1      -4.806   1.559  -0.130  0.00  0.00    +0.076 A 
ATOM     12  C   UNL     1      -3.546   2.076  -0.529  0.00  0.00    +0.213 A 
ATOM     13  O   UNL     1      -3.412   3.247  -0.851  0.00  0.00    -0.285 OA
ATOM     14  C   UNL     1      -2.409   1.143  -0.541  0.00  0.00    +0.193 A 
ATOM     15  N   UNL     1      -2.614  -0.109  -0.190  0.00  0.00    -0.158 NA
ATOM     16  N   UNL     1      -3.768  -0.535   0.169  0.00  0.00    -0.236 N 
BRANCH  16  17
ATOM     17  C   UNL     1      -3.896  -1.881   0.532  0.00  0.00    +0.066 A 
ATOM     18  C   UNL     1      -3.076  -2.417   1.516  0.00  0.00    +0.028 A 
ATOM     19  C   UNL     1      -3.210  -3.744   1.877  0.00  0.00    +0.002 A 
ATOM     20  C   UNL     1      -4.150  -4.541   1.249  0.00  0.00    +0.000 A 
ATOM     21  C   UNL     1      -4.964  -4.011   0.264  0.00  0.00    +0.002 A 
ATOM     22  C   UNL     1      -4.840  -2.684  -0.096  0.00  0.00    +0.028 A 
ENDBRANCH  16  17
ENDBRANCH   1  14
BRANCH   6  23
ATOM     23  S   UNL     1       3.339   0.806   2.410  0.00  0.00    +0.099 S 
ATOM     24  O   UNL     1       4.398   1.697   2.089  0.00  0.00    -0.141 OA
ATOM     25  O   UNL     1       2.929   0.560   3.748  0.00  0.00    -0.141 OA
BRANCH  23  26
ATOM     26  N   UNL     1       3.743  -0.663   1.762  0.00  0.00    -0.170 NA
ATOM     27  C   UNL     1       3.188  -1.909   2.311  0.00  0.00    +0.092 C 
ATOM     28  C   UNL     1       2.593  -2.724   1.152  0.00  0.00    -0.062 C 
ATOM     29  N   UNL     1       3.616  -2.906   0.113  0.00  0.00    +0.380 N 
ATOM     30  C   UNL     1       4.024  -1.618  -0.464  0.00  0.00    -0.062 C 
ATOM     31  C   UNL     1       4.673  -0.757   0.626  0.00  0.00    +0.092 C 
ATOM     32  C   UNL     1       3.147  -3.825  -0.933  0.00  0.00    -0.096 C 
ATOM     33  H   UNL     1       4.500  -3.355   0.588  0.00  0.00    -0.082 HD
ENDBRANCH  23  26
ENDBRANCH   6  23
TORSDOF 4
