REMARK  Name = ZINC20686364
REMARK  10 active torsions:
REMARK  status: ('A' for Active; 'I' for Inactive)
REMARK    1  A    between atoms: C_1  and  C_2
REMARK    2  A    between atoms: C_7  and  N_8
REMARK    3  A    between atoms: C_9  and  C_11
REMARK    4  A    between atoms: C_11  and  N_12
REMARK    5  A    between atoms: N_12  and  C_13
REMARK    6  A    between atoms: N_12  and  C_14
REMARK    7  A    between atoms: C_14  and  C_15
REMARK    8  A    between atoms: N_17  and  C_18
REMARK    9  A    between atoms: C_18  and  C_20
REMARK   10  A    between atoms: C_18  and  C_21
REMARK                            x       y       z     vdW  Elec       q    Type
REMARK                         _______ _______ _______ _____ _____    ______ ____
ROOT
ATOM      1  C   UNL     1      -2.494  -5.715   3.291  0.00  0.00    +0.019 C 
ENDROOT
BRANCH   1   2
ATOM      2  C   UNL     1      -2.876  -4.518   2.459  0.00  0.00    +0.197 C 
ATOM      3  O   UNL     1      -3.983  -4.034   2.566  0.00  0.00    -0.278 OA
ATOM      4  N   UNL     1      -1.988  -3.986   1.596  0.00  0.00    -0.310 N 
ATOM      5  H   UNL     1      -0.984  -4.425   1.499  0.00  0.00    +0.149 HD
BRANCH   4   6
ATOM      6  C   UNL     1      -2.360  -2.822   0.788  0.00  0.00    +0.100 C 
ATOM      7  C   UNL     1      -3.085  -3.289  -0.476  0.00  0.00    +0.033 C 
BRANCH   6   8
ATOM      8  C   UNL     1      -1.117  -2.061   0.401  0.00  0.00    -0.024 A 
ATOM      9  C   UNL     1       0.027  -2.747   0.039  0.00  0.00    +0.009 A 
ATOM     10  C   UNL     1       1.169  -2.053  -0.315  0.00  0.00    +0.050 A 
ATOM     11  C   UNL     1       1.169  -0.666  -0.307  0.00  0.00    +0.162 A 
ATOM     12  C   UNL     1       0.018   0.024   0.055  0.00  0.00    +0.162 A 
ATOM     13  C   UNL     1      -1.124  -0.679   0.410  0.00  0.00    +0.055 A 
ATOM     14  O   UNL     1      -0.005   1.384   0.066  0.00  0.00    -0.485 OA
ATOM     15  C   UNL     1       1.263   2.049   0.067  0.00  0.00    +0.270 C 
ATOM     16  C   UNL     1       2.155   1.387  -0.991  0.00  0.00    +0.270 C 
ATOM     17  O   UNL     1       2.303   0.004  -0.651  0.00  0.00    -0.485 OA
ENDBRANCH   6   8
ENDBRANCH   4   6
ENDBRANCH   1   2
BRANCH   1  18
ATOM     18  N   UNL     1      -3.626  -6.101   4.143  0.00  0.00    +0.389 N 
ATOM     19  C   UNL     1      -3.913  -5.060   5.140  0.00  0.00    -0.095 C 
ATOM     20  H   UNL     1      -4.512  -6.207   3.501  0.00  0.00    -0.081 HD
BRANCH  18  21
ATOM     21  C   UNL     1      -3.380  -7.396   4.791  0.00  0.00    +0.019 C 
BRANCH  21  23
ATOM     22  N   UNL     1      -4.658  -9.049   6.115  0.00  0.00    -0.287 N 
ATOM     23  C   UNL     1      -4.646  -7.875   5.454  0.00  0.00    +0.201 C 
ATOM     24  O   UNL     1      -5.654  -7.202   5.394  0.00  0.00    -0.278 OA
ATOM     25  H   UNL     1      -3.772  -9.701   6.094  0.00  0.00    +0.155 HD
BRANCH  22  32
ATOM     26  C   UNL     1      -5.086 -11.829   6.548  0.00  0.00    +0.046 C 
ATOM     27  C   UNL     1      -6.045 -10.786   7.062  0.00  0.00    -0.028 A 
ATOM     28  C   UNL     1      -7.167 -11.167   7.770  0.00  0.00    +0.020 A 
ATOM     29  C   UNL     1      -8.051 -10.211   8.237  0.00  0.00    +0.018 A 
ATOM     30  C   UNL     1      -7.809  -8.869   8.001  0.00  0.00    +0.017 A 
ATOM     31  C   UNL     1      -6.686  -8.481   7.298  0.00  0.00    +0.024 A 
ATOM     32  C   UNL     1      -5.797  -9.439   6.828  0.00  0.00    +0.036 A 
ATOM     33 BR   UNL     1      -9.591 -10.738   9.200  0.00  0.00    -0.050 Br
ENDBRANCH  22  32
ENDBRANCH  21  23
ENDBRANCH  18  21
ENDBRANCH   1  18
TORSDOF 7
