REMARK  Name = ZINC38551095
REMARK  7 active torsions:
REMARK  status: ('A' for Active; 'I' for Inactive)
REMARK    1  A    between atoms: C_1  and  C_2
REMARK    2  A    between atoms: C_5  and  C_8
REMARK    3  A    between atoms: C_8  and  C_10
REMARK    4  A    between atoms: C_8  and  N_27
REMARK    5  A    between atoms: C_14  and  N_15
REMARK    6  A    between atoms: C_16  and  C_18
REMARK    7  A    between atoms: C_30  and  C_34
REMARK                            x       y       z     vdW  Elec       q    Type
REMARK                         _______ _______ _______ _____ _____    ______ ____
ROOT
ATOM      1  C   UNL     1       0.238  -4.689   0.063  0.00  0.00    +0.135 C 
ENDROOT
BRANCH   1   2
ATOM      2  N   UNL     1       1.067  -5.085   1.205  0.00  0.00    -0.320 N 
ATOM      3  C   UNL     1       2.425  -5.319   1.029  0.00  0.00    +0.097 A 
ATOM      4  C   UNL     1       2.993  -5.171  -0.233  0.00  0.00    +0.045 A 
ATOM      5  C   UNL     1       4.346  -5.407  -0.393  0.00  0.00    -0.046 A 
ATOM      6  C   UNL     1       5.089  -5.786   0.718  0.00  0.00    +0.021 A 
ATOM      7  C   UNL     1       4.461  -5.914   1.940  0.00  0.00    +0.084 A 
ATOM      8  N   UNL     1       3.169  -5.676   2.065  0.00  0.00    -0.350 N 
ATOM      9  C   UNL     1       5.000  -5.259  -1.743  0.00  0.00    +0.044 C 
ATOM     10  H   UNL     1       0.667  -5.183   2.083  0.00  0.00    +0.148 HD
ATOM     11  H   UNL     1       2.753  -5.770   2.936  0.00  0.00    +0.166 HD
ENDBRANCH   1   2
BRANCH   1  12
ATOM     12  C   UNL     1      -1.216  -4.893   0.403  0.00  0.00    +0.009 A 
ATOM     13  C   UNL     1      -2.081  -5.457  -0.534  0.00  0.00    -0.030 A 
ATOM     14  C   UNL     1      -3.378  -5.609  -0.154  0.00  0.00    -0.005 A 
ATOM     15  S   UNL     1      -3.413  -4.975   1.502  0.00  0.00    -0.078 S 
ATOM     16  C   UNL     1      -1.687  -4.532   1.627  0.00  0.00    +0.078 A 
ATOM     17  C   UNL     1      -4.503  -6.179  -0.956  0.00  0.00    +0.043 C 
ATOM     18  C   UNL     1      -4.063  -6.241  -2.427  0.00  0.00    +0.005 C 
ATOM     19  C   UNL     1      -2.667  -6.865  -2.496  0.00  0.00    +0.005 C 
ATOM     20  C   UNL     1      -1.631  -5.895  -1.926  0.00  0.00    +0.036 C 
BRANCH  16  21
ATOM     21  N   UNL     1      -1.000  -3.963   2.701  0.00  0.00    -0.273 N 
ATOM     22  C   UNL     1      -1.627  -3.777   3.880  0.00  0.00    +0.284 C 
ATOM     23  O   UNL     1      -2.792  -4.106   4.008  0.00  0.00    -0.266 OA
ATOM     24  H   UNL     1      -0.072  -3.700   2.599  0.00  0.00    +0.156 HD
BRANCH  22  25
ATOM     25  C   UNL     1      -0.906  -3.179   5.008  0.00  0.00    +0.189 A 
ATOM     26  C   UNL     1      -1.417  -2.942   6.252  0.00  0.00    +0.054 A 
ATOM     27  C   UNL     1      -0.385  -2.364   7.008  0.00  0.00    +0.042 A 
ATOM     28  C   UNL     1       0.697  -2.276   6.203  0.00  0.00    +0.196 A 
ATOM     29  O   UNL     1       0.381  -2.772   5.000  0.00  0.00    -0.458 OA
ENDBRANCH  22  25
ENDBRANCH  16  21
ENDBRANCH   1  12
BRANCH   1  34
ATOM     30  C   UNL     1       1.165   0.883  -1.154  0.00  0.00    +0.044 C 
ATOM     31  C   UNL     1       0.924  -0.570  -0.836  0.00  0.00    -0.050 A 
ATOM     32  C   UNL     1       0.517  -1.437  -1.833  0.00  0.00    +0.004 A 
ATOM     33  C   UNL     1       0.295  -2.770  -1.542  0.00  0.00    +0.006 A 
ATOM     34  C   UNL     1       0.480  -3.236  -0.254  0.00  0.00    -0.023 A 
ATOM     35  C   UNL     1       0.888  -2.370   0.743  0.00  0.00    +0.006 A 
ATOM     36  C   UNL     1       1.114  -1.037   0.451  0.00  0.00    +0.004 A 
ENDBRANCH   1  34
TORSDOF 5
