REMARK  Name = ZINC65523775
REMARK  11 active torsions:
REMARK  status: ('A' for Active; 'I' for Inactive)
REMARK    1  A    between atoms: C_1  and  C_2
REMARK    2  A    between atoms: C_4  and  C_27
REMARK    3  A    between atoms: C_9  and  C_10
REMARK    4  A    between atoms: C_10  and  N_11
REMARK    5  A    between atoms: N_14  and  C_15
REMARK    6  A    between atoms: C_15  and  C_16
REMARK    7  A    between atoms: C_16  and  C_17
REMARK    8  A    between atoms: C_16  and  C_18
REMARK    9  A    between atoms: C_16  and  N_19
REMARK   10  A    between atoms: C_21  and  C_26
REMARK   11  A    between atoms: C_23  and  C_25
REMARK                            x       y       z     vdW  Elec       q    Type
REMARK                         _______ _______ _______ _____ _____    ______ ____
ROOT
ATOM      1  N   UNL     1      -1.348   0.142   2.992  0.00  0.00    -0.295 N 
ATOM      2  C   UNL     1      -1.592   0.762   4.163  0.00  0.00    +0.300 C 
ATOM      3  O   UNL     1      -0.671   1.228   4.807  0.00  0.00    -0.253 OA
ATOM      4  N   UNL     1      -2.855   0.865   4.622  0.00  0.00    -0.301 N 
ATOM      5  H   UNL     1      -2.083  -0.230   2.478  0.00  0.00    +0.151 HD
ATOM      6  H   UNL     1      -3.589   0.493   4.108  0.00  0.00    +0.150 HD
ENDROOT
BRANCH   1   7
ATOM      7  C   UNL     1       0.025   0.030   2.493  0.00  0.00    +0.146 C 
BRANCH   7  16
ATOM      8  C   UNL     1      -0.018   1.503   0.010  0.00  0.00    +0.044 C 
ATOM      9  C   UNL     1       0.002  -0.004   0.002  0.00  0.00    -0.039 A 
ATOM     10  C   UNL     1       0.006  -0.706  -1.212  0.00  0.00    +0.024 A 
ATOM     11  C   UNL     1       0.025  -2.059  -1.209  0.00  0.00    +0.016 A 
ATOM     12  N   UNL     1       0.040  -2.750  -0.040  0.00  0.00    -0.326 N 
ATOM     13  H   UNL     1       0.054  -3.720  -0.057  0.00  0.00    +0.169 HD
ATOM     14  C   UNL     1       0.037  -2.105   1.141  0.00  0.00    +0.254 A 
ATOM     15  O   UNL     1       0.051  -2.740   2.183  0.00  0.00    -0.268 OA
ATOM     16  C   UNL     1       0.023  -0.700   1.175  0.00  0.00    +0.037 A 
ATOM     17  C   UNL     1       0.029  -2.807  -2.517  0.00  0.00    +0.063 C 
ENDBRANCH   7  16
ENDBRANCH   1   7
BRANCH   4  18
ATOM     18  C   UNL     1      -3.119   1.538   5.896  0.00  0.00    +0.093 C 
BRANCH  18  19
ATOM     19  C   UNL     1      -4.622   1.517   6.182  0.00  0.00    -0.055 C 
ATOM     20  C   UNL     1      -4.898   2.221   7.512  0.00  0.00    -0.008 C 
ATOM     21  C   UNL     1      -5.365   2.242   5.058  0.00  0.00    -0.008 C 
BRANCH  19  22
ATOM     22  N   UNL     1      -5.087   0.126   6.258  0.00  0.00    +0.384 N 
ATOM     23  C   UNL     1      -4.367  -0.571   7.331  0.00  0.00    -0.075 C 
ATOM     24  C   UNL     1      -4.788  -2.041   7.362  0.00  0.00    -0.031 C 
ATOM     25  C   UNL     1      -6.295  -2.130   7.615  0.00  0.00    +0.003 C 
ATOM     26  C   UNL     1      -7.033  -1.337   6.532  0.00  0.00    -0.031 C 
ATOM     27  C   UNL     1      -6.528   0.107   6.532  0.00  0.00    -0.075 C 
ATOM     28  C   UNL     1      -8.535  -1.354   6.821  0.00  0.00    +0.005 C 
ATOM     29  C   UNL     1      -4.457  -2.696   6.019  0.00  0.00    +0.005 C 
ATOM     30  H   UNL     1      -4.906  -0.336   5.379  0.00  0.00    -0.081 HD
ENDBRANCH  19  22
ENDBRANCH  18  19
ENDBRANCH   4  18
TORSDOF 5
