REMARK  Name = ZINC32686462
REMARK  8 active torsions:
REMARK  status: ('A' for Active; 'I' for Inactive)
REMARK    1  A    between atoms: C_1  and  C_2
REMARK    2  A    between atoms: C_9  and  N_15
REMARK    3  A    between atoms: C_10  and  C_11
REMARK    4  A    between atoms: C_11  and  O_13
REMARK    5  A    between atoms: O_13  and  C_14
REMARK    6  A    between atoms: C_16  and  C_18
REMARK    7  A    between atoms: C_18  and  N_19
REMARK    8  A    between atoms: N_28  and  C_29
REMARK                            x       y       z     vdW  Elec       q    Type
REMARK                         _______ _______ _______ _____ _____    ______ ____
ROOT
ATOM      1  N   UNL     1       5.041  -1.930  -1.724  0.00  0.00    -0.278 N 
ATOM      2  C   UNL     1       3.949  -1.185  -1.463  0.00  0.00    +0.238 C 
ATOM      3  O   UNL     1       3.289  -0.736  -2.376  0.00  0.00    -0.273 OA
ATOM      4  H   UNL     1       5.640  -2.337  -0.895  0.00  0.00    +0.155 HD
ENDROOT
BRANCH   1  12
ATOM      5  C   UNL     1       6.724  -3.208  -9.255  0.00  0.00    +0.008 C 
ATOM      6  C   UNL     1       6.552  -3.430  -7.751  0.00  0.00    -0.009 C 
ATOM      7  C   UNL     1       7.914  -3.344  -7.057  0.00  0.00    +0.008 C 
ATOM      8  C   UNL     1       7.788  -3.808  -5.605  0.00  0.00    +0.037 C 
ATOM      9  C   UNL     1       6.656  -3.035  -4.940  0.00  0.00    -0.021 A 
ATOM     10  C   UNL     1       5.720  -2.400  -5.678  0.00  0.00    -0.004 A 
ATOM     11  S   UNL     1       4.631  -1.663  -4.493  0.00  0.00    -0.077 S 
ATOM     12  C   UNL     1       5.411  -2.183  -3.035  0.00  0.00    +0.086 A 
ATOM     13  C   UNL     1       6.492  -2.921  -3.501  0.00  0.00    +0.091 A 
ATOM     14  C   UNL     1       5.633  -2.344  -7.173  0.00  0.00    +0.046 C 
BRANCH  13  15
ATOM     15  C   UNL     1       7.430  -3.559  -2.576  0.00  0.00    +0.342 C 
ATOM     16  O   UNL     1       7.226  -4.694  -2.190  0.00  0.00    -0.245 OA
BRANCH  15  17
ATOM     17  O   UNL     1       8.521  -2.888  -2.152  0.00  0.00    -0.464 OA
ATOM     18  C   UNL     1       9.407  -3.583  -1.236  0.00  0.00    +0.280 C 
ENDBRANCH  15  17
ENDBRANCH  13  15
ENDBRANCH   1  12
BRANCH   2  19
ATOM     19  C   UNL     1       3.547  -0.909  -0.037  0.00  0.00    +0.222 C 
BRANCH  19  20
ATOM     20  N   UNL     1       2.337  -0.084  -0.021  0.00  0.00    -0.290 N 
ATOM     21  C   UNL     1       1.116  -0.676  -0.012  0.00  0.00    +0.204 A 
ATOM     22  N   UNL     1       0.002  -0.004   0.002  0.00  0.00    -0.217 NA
ATOM     23  C   UNL     1      -0.016   1.338   0.009  0.00  0.00    +0.170 A 
ATOM     24  C   UNL     1       1.200   2.039   0.002  0.00  0.00    +0.103 A 
ATOM     25  C   UNL     1       2.442   1.265  -0.015  0.00  0.00    +0.265 A 
ATOM     26  O   UNL     1       3.529   1.815  -0.022  0.00  0.00    -0.267 OA
ATOM     27  C   UNL     1       0.891   3.412   0.012  0.00  0.00    +0.150 A 
ATOM     28  N   UNL     1      -0.407   3.541   0.025  0.00  0.00    -0.172 NA
ATOM     29  N   UNL     1      -1.004   2.274   0.018  0.00  0.00    -0.214 N 
BRANCH  29  30
ATOM     30  C   UNL     1      -2.381   2.014   0.022  0.00  0.00    +0.068 A 
ATOM     31  C   UNL     1      -2.885   0.926  -0.677  0.00  0.00    +0.030 A 
ATOM     32  C   UNL     1      -4.242   0.668  -0.668  0.00  0.00    +0.040 A 
ATOM     33  C   UNL     1      -5.101   1.502   0.028  0.00  0.00    +0.124 A 
ATOM     34  C   UNL     1      -4.601   2.592   0.721  0.00  0.00    +0.040 A 
ATOM     35  C   UNL     1      -3.244   2.849   0.719  0.00  0.00    +0.030 A 
ATOM     36  F   UNL     1      -6.428   1.252   0.031  0.00  0.00    -0.205 F 
ENDBRANCH  29  30
ENDBRANCH  19  20
ENDBRANCH   2  19
TORSDOF 6
