REMARK  Name = ZINC39657722
REMARK  12 active torsions:
REMARK  status: ('A' for Active; 'I' for Inactive)
REMARK    1  A    between atoms: C_1  and  C_2
REMARK    2  A    between atoms: C_2  and  C_3
REMARK    3  A    between atoms: C_3  and  C_4
REMARK    4  A    between atoms: C_3  and  C_6
REMARK    5  A    between atoms: C_4  and  C_5
REMARK    6  A    between atoms: C_10  and  C_19
REMARK    7  A    between atoms: N_21  and  C_22
REMARK    8  A    between atoms: C_22  and  C_23
REMARK    9  A    between atoms: C_28  and  S_29
REMARK   10  A    between atoms: S_29  and  C_30
REMARK   11  A    between atoms: C_35  and  C_36
REMARK   12  A    between atoms: C_36  and  O_37
REMARK                            x       y       z     vdW  Elec       q    Type
REMARK                         _______ _______ _______ _____ _____    ______ ____
ROOT
ATOM      1  C   UNL     1       4.090  -2.676  -3.223  0.00  0.00    +0.218 C 
ATOM      2  O   UNL     1       3.675  -3.543  -3.963  0.00  0.00    -0.275 OA
ATOM      3  N   UNL     1       4.649  -1.563  -3.737  0.00  0.00    -0.311 N 
ATOM      4  H   UNL     1       4.981  -0.869  -3.146  0.00  0.00    +0.149 HD
ENDROOT
BRANCH   1   9
ATOM      5  C   UNL     1       2.222  -4.642   0.877  0.00  0.00    +0.219 C 
ATOM      6  O   UNL     1       2.630  -5.405   1.726  0.00  0.00    -0.275 OA
ATOM      7  N   UNL     1       2.959  -4.406  -0.227  0.00  0.00    -0.300 N 
ATOM      8  C   UNL     1       2.634  -3.510  -1.361  0.00  0.00    +0.121 C 
ATOM      9  C   UNL     1       3.978  -2.843  -1.730  0.00  0.00    +0.100 C 
ATOM     10  C   UNL     1       5.053  -3.817  -1.216  0.00  0.00    -0.004 C 
ATOM     11  C   UNL     1       4.280  -4.980  -0.577  0.00  0.00    +0.115 C 
ATOM     12  C   UNL     1       5.927  -3.134  -0.169  0.00  0.00    -0.010 C 
ATOM     13  C   UNL     1       7.023  -4.103   0.285  0.00  0.00    -0.082 C 
ATOM     14  N   UNL     1       7.832  -4.505  -0.872  0.00  0.00    +0.379 N 
ATOM     15  C   UNL     1       7.003  -5.243  -1.832  0.00  0.00    -0.082 C 
ATOM     16  C   UNL     1       5.906  -4.322  -2.375  0.00  0.00    -0.010 C 
ATOM     17  H   UNL     1       8.211  -3.683  -1.318  0.00  0.00    -0.086 HD
ATOM     18  H   UNL     1       8.590  -5.095  -0.562  0.00  0.00    -0.086 HD
BRANCH   5  19
ATOM     19  C   UNL     1       0.891  -3.957   1.055  0.00  0.00    +0.075 C 
BRANCH  19  21
ATOM     20  C   UNL     1      -1.352  -3.568   0.027  0.00  0.00    +0.004 C 
ATOM     21  C   UNL     1      -0.038  -4.340  -0.099  0.00  0.00    +0.009 C 
ENDBRANCH  19  21
BRANCH  19  22
ATOM     22  C   UNL     1       0.266  -4.395   2.381  0.00  0.00    +0.009 C 
ATOM     23  C   UNL     1       1.148  -3.928   3.540  0.00  0.00    +0.004 C 
ENDBRANCH  19  22
ENDBRANCH   5  19
ENDBRANCH   1   9
BRANCH   3  24
ATOM     24  C   UNL     1       4.757  -1.401  -5.189  0.00  0.00    +0.140 C 
BRANCH  24  25
ATOM     25  C   UNL     1       5.415  -0.081  -5.500  0.00  0.00    -0.017 A 
ATOM     26  C   UNL     1       4.646   1.008  -5.860  0.00  0.00    +0.006 A 
ATOM     27  C   UNL     1       5.248   2.219  -6.145  0.00  0.00    +0.000 A 
ATOM     28  C   UNL     1       6.624   2.345  -6.071  0.00  0.00    +0.001 A 
ATOM     29  C   UNL     1       7.400   1.261  -5.711  0.00  0.00    +0.015 A 
ATOM     30  C   UNL     1       6.797   0.044  -5.418  0.00  0.00    +0.017 A 
BRANCH  30  31
ATOM     31  S   UNL     1       7.782  -1.341  -4.952  0.00  0.00    -0.089 S 
BRANCH  31  32
ATOM     32  C   UNL     1       9.430  -0.718  -4.976  0.00  0.00    +0.018 A 
ATOM     33  C   UNL     1      10.070  -0.395  -3.785  0.00  0.00    +0.015 A 
ATOM     34  C   UNL     1      11.362   0.093  -3.807  0.00  0.00    +0.001 A 
ATOM     35  C   UNL     1      12.019   0.261  -5.013  0.00  0.00    +0.000 A 
ATOM     36  C   UNL     1      11.385  -0.059  -6.200  0.00  0.00    +0.007 A 
ATOM     37  C   UNL     1      10.095  -0.553  -6.185  0.00  0.00    -0.008 A 
BRANCH  37  38
ATOM     38  C   UNL     1       9.408  -0.908  -7.478  0.00  0.00    +0.192 C 
BRANCH  38  39
ATOM     39  O   UNL     1      10.291  -0.653  -8.572  0.00  0.00    -0.390 OA
ATOM     40  H   UNL     1       9.914  -0.860  -9.438  0.00  0.00    +0.210 HD
ENDBRANCH  38  39
ENDBRANCH  37  38
ENDBRANCH  31  32
ENDBRANCH  30  31
ENDBRANCH  24  25
ENDBRANCH   3  24
TORSDOF 10
