REMARK  Name = ZINC08790058
REMARK  8 active torsions:
REMARK  status: ('A' for Active; 'I' for Inactive)
REMARK    1  A    between atoms: C_1  and  C_2
REMARK    2  A    between atoms: C_7  and  C_8
REMARK    3  A    between atoms: C_17  and  C_19
REMARK    4  A    between atoms: C_19  and  C_21
REMARK    5  A    between atoms: C_19  and  O_22
REMARK    6  A    between atoms: N_25  and  C_28
REMARK    7  A    between atoms: C_28  and  C_29
REMARK    8  A    between atoms: C_29  and  C_30
REMARK                            x       y       z     vdW  Elec       q    Type
REMARK                         _______ _______ _______ _____ _____    ______ ____
ROOT
ATOM      1  C   UNL     1      -1.295  -0.771   0.011  0.00  0.00    +0.044 C 
ATOM      2  C   UNL     1       0.002  -0.004   0.002  0.00  0.00    -0.046 A 
ATOM      3  C   UNL     1      -0.017   1.379   0.010  0.00  0.00    +0.004 A 
ATOM      4  C   UNL     1       1.174   2.083   0.002  0.00  0.00    +0.005 A 
ATOM      5  C   UNL     1       2.374   1.409  -0.012  0.00  0.00    -0.027 A 
ATOM      6  C   UNL     1       2.405   0.017  -0.022  0.00  0.00    +0.039 A 
ATOM      7  C   UNL     1       1.202  -0.684  -0.014  0.00  0.00    -0.026 A 
ATOM      8  C   UNL     1       1.211  -2.191  -0.024  0.00  0.00    +0.046 C 
ATOM      9  N   UNL     1       3.726  -0.436  -0.040  0.00  0.00    -0.286 N 
ATOM     10  C   UNL     1       4.612   0.578  -0.042  0.00  0.00    +0.211 C 
ATOM     11  O   UNL     1       5.821   0.484  -0.057  0.00  0.00    -0.277 OA
ATOM     12  C   UNL     1       3.810   1.851  -0.021  0.00  0.00    +0.050 C 
ATOM     13  C   UNL     1       4.122   2.731  -1.238  0.00  0.00    +0.088 C 
ATOM     14  C   UNL     1       5.141   3.780  -0.712  0.00  0.00    +0.075 C 
ATOM     15  C   UNL     1       5.358   3.411   0.771  0.00  0.00    -0.028 C 
ATOM     16  C   UNL     1       6.404   3.481  -1.487  0.00  0.00    +0.224 C 
ATOM     17  O   UNL     1       7.450   4.084  -1.381  0.00  0.00    -0.275 OA
ATOM     18  N   UNL     1       6.168   2.432  -2.309  0.00  0.00    -0.241 N 
ATOM     19  C   UNL     1       4.924   1.942  -2.248  0.00  0.00    +0.225 C 
ATOM     20  O   UNL     1       4.505   1.010  -2.901  0.00  0.00    -0.275 OA
ATOM     21  H   UNL     1       3.976  -1.373  -0.050  0.00  0.00    +0.155 HD
ATOM     22  N   UNL     1       4.149   2.668   1.131  0.00  0.00    +0.396 N 
ATOM     23  H   UNL     1       4.329   2.072   1.948  0.00  0.00    -0.083 HD
ATOM     24  H   UNL     1       3.383   3.317   1.344  0.00  0.00    -0.083 HD
ENDROOT
BRANCH  15  25
ATOM     25  C   UNL     1       5.508   4.677   1.618  0.00  0.00    +0.098 C 
ATOM     26  C   UNL     1       5.644   4.291   3.092  0.00  0.00    +0.036 C 
BRANCH  25  27
ATOM     27  O   UNL     1       6.674   5.392   1.203  0.00  0.00    -0.394 OA
ATOM     28  H   UNL     1       7.496   4.890   1.292  0.00  0.00    +0.210 HD
ENDBRANCH  25  27
ENDBRANCH  15  25
BRANCH  18  29
ATOM     29  C   UNL     1       7.193   1.882  -3.199  0.00  0.00    +0.121 C 
BRANCH  29  30
ATOM     30  C   UNL     1       7.139   2.605  -4.547  0.00  0.00    +0.054 C 
BRANCH  30  31
ATOM     31  C   UNL     1       8.193   2.039  -5.463  0.00  0.00    -0.046 A 
ATOM     32  C   UNL     1       9.460   2.593  -5.484  0.00  0.00    +0.004 A 
ATOM     33  C   UNL     1      10.428   2.071  -6.321  0.00  0.00    +0.000 A 
ATOM     34  C   UNL     1      10.128   1.002  -7.144  0.00  0.00    +0.000 A 
ATOM     35  C   UNL     1       8.860   0.452  -7.126  0.00  0.00    +0.000 A 
ATOM     36  C   UNL     1       7.893   0.970  -6.286  0.00  0.00    +0.004 A 
ENDBRANCH  30  31
ENDBRANCH  29  30
ENDBRANCH  18  29
TORSDOF 5
