REMARK  Name = ZINC02264278
REMARK  9 active torsions:
REMARK  status: ('A' for Active; 'I' for Inactive)
REMARK    1  A    between atoms: C_1  and  C_2
REMARK    2  A    between atoms: C_3  and  C_14
REMARK    3  A    between atoms: N_5  and  C_7
REMARK    4  A    between atoms: N_15  and  N_16
REMARK    5  A    between atoms: C_17  and  C_19
REMARK    6  A    between atoms: C_20  and  C_30
REMARK    7  A    between atoms: C_30  and  N_53
REMARK    8  A    between atoms: C_31  and  N_53
REMARK    9  A    between atoms: C_32  and  N_53
REMARK                            x       y       z     vdW  Elec       q    Type
REMARK                         _______ _______ _______ _____ _____    ______ ____
ROOT
ATOM      1  N   UNL     1      -1.156  -0.694   0.009  0.00  0.00    -0.202 N 
ATOM      2  C   UNL     1       0.002  -0.004   0.002  0.00  0.00    +0.285 C 
ATOM      3  O   UNL     1       1.064  -0.598  -0.011  0.00  0.00    -0.267 OA
ATOM      4  H   UNL     1      -2.002  -0.220   0.020  0.00  0.00    +0.178 HD
ENDROOT
BRANCH   2   5
ATOM      5  C   UNL     1      -0.018   1.471   0.010  0.00  0.00    +0.170 A 
ATOM      6  C   UNL     1       1.079   2.284   0.004  0.00  0.00    +0.063 A 
ATOM      7  N   UNL     1       0.623   3.556   0.015  0.00  0.00    -0.194 N 
ATOM      8  N   UNL     1      -0.778   3.483   0.028  0.00  0.00    -0.058 NA
ATOM      9  N   UNL     1      -1.119   2.242   0.019  0.00  0.00    -0.124 NA
ATOM     10  C   UNL     1       1.397   4.721   0.015  0.00  0.00    +0.240 A 
ATOM     11  C   UNL     1       0.883   6.094   0.027  0.00  0.00    +0.206 A 
ATOM     12  N   UNL     1       1.898   6.913   0.023  0.00  0.00    -0.032 NA
ATOM     13  O   UNL     1       3.083   6.135   0.008  0.00  0.00    -0.239 OA
ATOM     14  N   UNL     1       2.699   4.771   0.009  0.00  0.00    -0.027 NA
ATOM     15  N   UNL     1      -0.458   6.460   0.040  0.00  0.00    -0.337 N 
ATOM     16  H   UNL     1      -1.148   5.778   0.042  0.00  0.00    +0.144 HD
ATOM     17  H   UNL     1      -0.705   7.398   0.048  0.00  0.00    +0.144 HD
BRANCH   6  18
ATOM     18  C   UNL     1       2.522   1.847  -0.013  0.00  0.00    -0.021 C 
BRANCH  18  21
ATOM     19  C   UNL     1       2.313   0.596   2.050  0.00  0.00    -0.096 C 
ATOM     20  C   UNL     1       4.460   1.506   1.398  0.00  0.00    -0.096 C 
ATOM     21  N   UNL     1       2.998   1.722   1.381  0.00  0.00    +0.380 N 
ATOM     22  H   UNL     1       2.784   2.590   1.886  0.00  0.00    -0.082 HD
ENDBRANCH  18  21
ENDBRANCH   6  18
ENDBRANCH   2   5
BRANCH   1  24
ATOM     23  C   UNL     1      -2.252  -2.759   0.009  0.00  0.00    +0.143 C 
ATOM     24  N   UNL     1      -1.137  -2.095   0.002  0.00  0.00    -0.187 NA
BRANCH  23  27
ATOM     25  C   UNL     1      -4.799  -4.648   0.036  0.00  0.00    +0.068 C 
ATOM     26  C   UNL     1      -3.357  -5.087   0.013  0.00  0.00    +0.070 A 
ATOM     27  C   UNL     1      -2.232  -4.234   0.001  0.00  0.00    +0.054 A 
ATOM     28  C   UNL     1      -1.109  -5.037  -0.014  0.00  0.00    +0.142 A 
ATOM     29  N   UNL     1      -1.533  -6.319  -0.017  0.00  0.00    -0.221 N 
ATOM     30  N   UNL     1      -2.933  -6.321  -0.004  0.00  0.00    -0.170 NA
ATOM     31 CL   UNL     1       0.541  -4.499  -0.026  0.00  0.00    -0.061 Cl
BRANCH  29  32
ATOM     32  C   UNL     1      -0.712  -7.455  -0.030  0.00  0.00    +0.067 A 
ATOM     33  C   UNL     1       0.485  -7.439  -0.734  0.00  0.00    +0.028 A 
ATOM     34  C   UNL     1       1.295  -8.558  -0.741  0.00  0.00    +0.002 A 
ATOM     35  C   UNL     1       0.910  -9.696  -0.056  0.00  0.00    +0.000 A 
ATOM     36  C   UNL     1      -0.284  -9.716   0.642  0.00  0.00    +0.002 A 
ATOM     37  C   UNL     1      -1.095  -8.599   0.657  0.00  0.00    +0.028 A 
ENDBRANCH  29  32
ENDBRANCH  23  27
ENDBRANCH   1  24
TORSDOF 6
