REMARK  Name = ZINC43262064
REMARK  12 active torsions:
REMARK  status: ('A' for Active; 'I' for Inactive)
REMARK    1  A    between atoms: C_1  and  C_2
REMARK    2  A    between atoms: C_2  and  C_3
REMARK    3  A    between atoms: C_3  and  C_5
REMARK    4  A    between atoms: C_3  and  N_21
REMARK    5  A    between atoms: C_5  and  C_7
REMARK    6  A    between atoms: C_5  and  N_13
REMARK    7  A    between atoms: N_13  and  C_14
REMARK    8  A    between atoms: N_13  and  C_15
REMARK    9  A    between atoms: C_15  and  C_17
REMARK   10  A    between atoms: C_15  and  C_18
REMARK   11  A    between atoms: C_18  and  O_19
REMARK   12  A    between atoms: O_19  and  C_20
REMARK                            x       y       z     vdW  Elec       q    Type
REMARK                         _______ _______ _______ _____ _____    ______ ____
ROOT
ATOM      1  C   UNL     1       0.495  -1.964  -1.083  0.00  0.00    -0.014 C 
ENDROOT
BRANCH   1   2
ATOM      2  C   UNL     1       1.371  -2.038  -2.307  0.00  0.00    -0.021 A 
ATOM      3  C   UNL     1       2.695  -2.317  -2.393  0.00  0.00    +0.011 A 
ATOM      4  C   UNL     1       3.298  -2.330  -3.637  0.00  0.00    +0.023 A 
ATOM      5  C   UNL     1       2.547  -2.063  -4.734  0.00  0.00    +0.055 A 
ATOM      6  S   UNL     1       0.934  -1.789  -4.019  0.00  0.00    -0.088 S 
ATOM      7 BR   UNL     1       3.070  -2.004  -6.550  0.00  0.00    -0.043 Br
ENDBRANCH   1   2
BRANCH   1   8
ATOM      8  N   UNL     1      -0.643  -2.879  -1.240  0.00  0.00    +0.387 N 
ATOM      9  C   UNL     1      -1.452  -2.462  -2.393  0.00  0.00    -0.095 C 
ATOM     10  H   UNL     1      -1.210  -2.857  -0.405  0.00  0.00    -0.081 HD
BRANCH   8  11
ATOM     11  C   UNL     1      -0.147  -4.245  -1.458  0.00  0.00    -0.045 C 
ATOM     12  C   UNL     1       0.659  -4.695  -0.238  0.00  0.00    -0.011 C 
BRANCH  11  13
ATOM     13  C   UNL     1      -1.332  -5.191  -1.664  0.00  0.00    +0.144 C 
BRANCH  13  14
ATOM     14  O   UNL     1      -2.104  -5.256  -0.463  0.00  0.00    -0.385 OA
ATOM     15  C   UNL     1      -3.240  -6.117  -0.548  0.00  0.00    +0.193 C 
ENDBRANCH  13  14
ENDBRANCH  11  13
ENDBRANCH   8  11
ENDBRANCH   1   8
BRANCH   1  16
ATOM     16  C   UNL     1      -0.020  -0.534  -0.910  0.00  0.00    +0.042 C 
BRANCH  16  17
ATOM     17  N   UNL     1       1.109   0.363  -0.628  0.00  0.00    -0.328 NA
ATOM     18  H   UNL     1       0.803   1.323  -0.574  0.00  0.00    +0.118 HD
ATOM     19  H   UNL     1       1.587   0.087   0.216  0.00  0.00    +0.118 HD
ENDBRANCH  16  17
BRANCH  16  21
ATOM     20  C   UNL     1      -1.581   0.929   0.381  0.00  0.00    +0.005 C 
ATOM     21  C   UNL     1      -1.013  -0.486   0.253  0.00  0.00    +0.014 C 
ENDBRANCH  16  21
ENDBRANCH   1  16
TORSDOF 8
