REMARK  Name = ZINC04554476
REMARK  9 active torsions:
REMARK  status: ('A' for Active; 'I' for Inactive)
REMARK    1  A    between atoms: C_1  and  C_2
REMARK    2  A    between atoms: C_2  and  C_3
REMARK    3  A    between atoms: C_3  and  N_53
REMARK    4  A    between atoms: C_4  and  C_5
REMARK    5  A    between atoms: C_4  and  N_53
REMARK    6  A    between atoms: N_7  and  C_8
REMARK    7  A    between atoms: C_9  and  C_19
REMARK    8  A    between atoms: C_14  and  C_18
REMARK    9  A    between atoms: N_21  and  C_22
REMARK                            x       y       z     vdW  Elec       q    Type
REMARK                         _______ _______ _______ _____ _____    ______ ____
ROOT
ATOM      1  C   UNL     1      -1.844  -4.640   0.674  0.00  0.00    +0.084 A 
ATOM      2  C   UNL     1      -0.590  -4.141   0.999  0.00  0.00    +0.069 A 
ATOM      3  C   UNL     1      -0.363  -2.719   0.807  0.00  0.00    -0.023 A 
ATOM      4  C   UNL     1      -1.419  -2.028   0.324  0.00  0.00    -0.004 A 
ATOM      5  S   UNL     1      -2.698  -3.236   0.125  0.00  0.00    -0.077 S 
ATOM      6  C   UNL     1      -1.479  -0.562   0.026  0.00  0.00    +0.046 C 
ATOM      7  C   UNL     1      -0.044  -0.016  -0.004  0.00  0.00    -0.009 C 
ATOM      8  C   UNL     1       0.702  -0.518   1.236  0.00  0.00    +0.008 C 
ATOM      9  C   UNL     1       0.956  -2.022   1.116  0.00  0.00    +0.037 C 
ATOM     10  C   UNL     1      -0.077   1.514   0.002  0.00  0.00    +0.008 C 
ENDROOT
BRANCH   1  13
ATOM     11  C   UNL     1      -3.565  -6.244   0.403  0.00  0.00    +0.201 C 
ATOM     12  O   UNL     1      -4.300  -5.371  -0.007  0.00  0.00    -0.278 OA
ATOM     13  N   UNL     1      -2.302  -5.946   0.767  0.00  0.00    -0.281 N 
ATOM     14  H   UNL     1      -1.714  -6.644   1.095  0.00  0.00    +0.155 HD
BRANCH  11  15
ATOM     15  C   UNL     1      -4.063  -7.663   0.503  0.00  0.00    +0.015 C 
BRANCH  15  16
ATOM     16  N   UNL     1      -5.464  -7.717   0.047  0.00  0.00    +0.385 N 
ATOM     17  H   UNL     1      -6.037  -7.104   0.638  0.00  0.00    -0.085 HD
ATOM     18  H   UNL     1      -5.515  -7.398  -0.928  0.00  0.00    -0.085 HD
BRANCH  16  19
ATOM     19  C   UNL     1      -5.979  -9.097   0.135  0.00  0.00    -0.082 C 
BRANCH  19  21
ATOM     20  C   UNL     1      -7.973 -10.550  -0.257  0.00  0.00    +0.002 C 
ATOM     21  C   UNL     1      -7.432  -9.122  -0.345  0.00  0.00    -0.022 C 
ENDBRANCH  19  21
ENDBRANCH  16  19
ENDBRANCH  15  16
ENDBRANCH  11  15
ENDBRANCH   1  13
BRANCH   2  22
ATOM     22  C   UNL     1       0.466  -5.017   1.516  0.00  0.00    +0.251 C 
ATOM     23  O   UNL     1       0.576  -5.195   2.715  0.00  0.00    -0.270 OA
ATOM     24  N   UNL     1       1.315  -5.624   0.663  0.00  0.00    -0.279 N 
ATOM     25  H   UNL     1       1.188  -5.535  -0.294  0.00  0.00    +0.155 HD
BRANCH  24  26
ATOM     26  C   UNL     1       2.380  -6.385   1.159  0.00  0.00    +0.069 A 
ATOM     27  C   UNL     1       2.228  -7.114   2.330  0.00  0.00    +0.026 A 
ATOM     28  C   UNL     1       3.280  -7.868   2.815  0.00  0.00    +0.002 A 
ATOM     29  C   UNL     1       4.487  -7.888   2.142  0.00  0.00    +0.003 A 
ATOM     30  C   UNL     1       4.645  -7.159   0.977  0.00  0.00    +0.040 A 
ATOM     31  C   UNL     1       3.595  -6.407   0.483  0.00  0.00    +0.144 A 
ATOM     32  F   UNL     1       3.750  -5.694  -0.654  0.00  0.00    -0.204 F 
ENDBRANCH  24  26
ENDBRANCH   2  22
TORSDOF 7
