REMARK  Name = ZINC21686965
REMARK  8 active torsions:
REMARK  status: ('A' for Active; 'I' for Inactive)
REMARK    1  A    between atoms: C_1  and  C_2
REMARK    2  A    between atoms: C_5  and  S_8
REMARK    3  A    between atoms: S_8  and  N_11
REMARK    4  A    between atoms: C_15  and  C_18
REMARK    5  A    between atoms: N_20  and  C_21
REMARK    6  A    between atoms: C_23  and  C_37
REMARK    7  A    between atoms: C_29  and  C_36
REMARK    8  A    between atoms: C_31  and  C_35
REMARK                            x       y       z     vdW  Elec       q    Type
REMARK                         _______ _______ _______ _____ _____    ______ ____
ROOT
ATOM      1  C   UNL     1      -1.187   1.624   0.017  0.00  0.00    +0.223 C 
ATOM      2  O   UNL     1      -1.204   2.837   0.023  0.00  0.00    -0.275 OA
ATOM      3  N   UNL     1      -0.011   0.966   0.007  0.00  0.00    -0.270 N 
ATOM      4  H   UNL     1       0.004  -0.134   0.006  0.00  0.00    +0.156 HD
ENDROOT
BRANCH   3   5
ATOM      5  C   UNL     1       1.186   1.679  -0.000  0.00  0.00    +0.131 A 
ATOM      6  C   UNL     1       1.317   3.033   0.006  0.00  0.00    +0.068 A 
ATOM      7  C   UNL     1       2.683   3.333  -0.005  0.00  0.00    +0.062 A 
ATOM      8  N   UNL     1       3.355   2.210  -0.018  0.00  0.00    -0.168 NA
ATOM      9  N   UNL     1       2.442   1.148  -0.010  0.00  0.00    -0.194 N 
ATOM     10  C   UNL     1       2.759  -0.205  -0.013  0.00  0.00    +0.196 A 
ATOM     11  N   UNL     1       3.942  -0.773  -0.022  0.00  0.00    -0.221 NA
ATOM     12  C   UNL     1       4.104  -2.113  -0.024  0.00  0.00    +0.083 A 
ATOM     13  C   UNL     1       5.313  -2.847  -0.033  0.00  0.00    -0.024 A 
ATOM     14  C   UNL     1       5.301  -4.217  -0.034  0.00  0.00    +0.009 A 
ATOM     15  C   UNL     1       4.111  -4.932  -0.026  0.00  0.00    -0.049 A 
ATOM     16  C   UNL     1       2.910  -4.247  -0.017  0.00  0.00    +0.020 A 
ATOM     17  C   UNL     1       2.912  -2.874  -0.016  0.00  0.00    +0.042 A 
ATOM     18  S   UNL     1       1.660  -1.614   0.002  0.00  0.00    -0.048 S 
ATOM     19  C   UNL     1       4.128  -6.439  -0.027  0.00  0.00    +0.044 C 
ATOM     20  C   UNL     1       6.630  -2.114  -0.042  0.00  0.00    +0.046 C 
ATOM     21  C   UNL     1       3.281   4.716  -0.004  0.00  0.00    +0.067 C 
ENDBRANCH   3   5
BRANCH   1  26
ATOM     22  N   UNL     1      -4.910   1.069  -0.102  0.00  0.00    -0.176 NA
ATOM     23  C   UNL     1      -5.052   0.131  -1.224  0.00  0.00    +0.109 C 
ATOM     24  C   UNL     1      -3.858  -0.829  -1.219  0.00  0.00    +0.018 C 
ATOM     25  C   UNL     1      -2.558  -0.021  -1.236  0.00  0.00    +0.015 C 
ATOM     26  C   UNL     1      -2.482   0.853   0.018  0.00  0.00    +0.091 C 
ATOM     27  C   UNL     1      -3.660   1.832   0.028  0.00  0.00    +0.122 C 
BRANCH  22  28
ATOM     28  S   UNL     1      -6.134   1.263   0.995  0.00  0.00    +0.061 S 
ATOM     29  O   UNL     1      -5.963   2.551   1.571  0.00  0.00    -0.153 OA
ATOM     30  O   UNL     1      -7.333   0.876   0.339  0.00  0.00    -0.153 OA
BRANCH  28  35
ATOM     31  C   UNL     1      -5.218  -2.740   5.416  0.00  0.00    +0.044 C 
ATOM     32  C   UNL     1      -5.447  -1.740   4.312  0.00  0.00    -0.050 A 
ATOM     33  C   UNL     1      -4.893  -0.476   4.398  0.00  0.00    +0.005 A 
ATOM     34  C   UNL     1      -5.103   0.441   3.385  0.00  0.00    +0.029 A 
ATOM     35  C   UNL     1      -5.867   0.095   2.286  0.00  0.00    +0.105 A 
ATOM     36  C   UNL     1      -6.425  -1.167   2.203  0.00  0.00    +0.029 A 
ATOM     37  C   UNL     1      -6.212  -2.086   3.214  0.00  0.00    +0.005 A 
ENDBRANCH  28  35
ENDBRANCH  22  28
ENDBRANCH   1  26
TORSDOF 4
