REMARK  Name = ZINC59935817
REMARK  10 active torsions:
REMARK  status: ('A' for Active; 'I' for Inactive)
REMARK    1  A    between atoms: C_1  and  C_2
REMARK    2  A    between atoms: C_4  and  O_9
REMARK    3  A    between atoms: O_9  and  C_10
REMARK    4  A    between atoms: C_10  and  C_11
REMARK    5  A    between atoms: C_11  and  C_12
REMARK    6  A    between atoms: C_12  and  C_13
REMARK    7  A    between atoms: N_15  and  C_16
REMARK    8  A    between atoms: C_20  and  C_22
REMARK    9  A    between atoms: C_22  and  N_23
REMARK   10  A    between atoms: C_27  and  C_29
REMARK                            x       y       z     vdW  Elec       q    Type
REMARK                         _______ _______ _______ _____ _____    ______ ____
ROOT
ATOM      1  C   UNL     1      -0.002  -8.768  -6.508  0.00  0.00    +0.034 A 
ATOM      2  C   UNL     1      -0.007  -7.964  -7.641  0.00  0.00    +0.023 A 
ATOM      3  C   UNL     1      -0.095  -8.539  -8.893  0.00  0.00    +0.002 A 
ATOM      4  C   UNL     1      -0.178  -9.914  -9.020  0.00  0.00    +0.002 A 
ATOM      5  C   UNL     1      -0.174 -10.717  -7.895  0.00  0.00    -0.062 A 
ATOM      6  C   UNL     1      -0.079 -10.148  -6.639  0.00  0.00    +0.025 A 
ENDROOT
BRANCH   1   9
ATOM      7  C   UNL     1      -0.512  -7.006  -4.993  0.00  0.00    +0.217 C 
ATOM      8  O   UNL     1      -1.057  -6.404  -5.894  0.00  0.00    -0.275 OA
ATOM      9  N   UNL     1       0.087  -8.188  -5.238  0.00  0.00    -0.285 N 
ATOM     10  H   UNL     1       0.580  -8.637  -4.533  0.00  0.00    +0.155 HD
BRANCH   7  11
ATOM     11  C   UNL     1      -0.506  -6.433  -3.599  0.00  0.00    +0.099 C 
BRANCH  11  12
ATOM     12  C   UNL     1      -1.248  -5.095  -3.595  0.00  0.00    +0.050 C 
BRANCH  12  13
ATOM     13  C   UNL     1      -1.242  -4.512  -2.180  0.00  0.00    +0.229 C 
BRANCH  13  14
ATOM     14  O   UNL     1      -1.935  -3.263  -2.176  0.00  0.00    -0.492 OA
BRANCH  14  18
ATOM     15  C   UNL     1      -3.483   0.596   0.380  0.00  0.00    +0.045 C 
ATOM     16  C   UNL     1      -2.767  -0.727   0.296  0.00  0.00    -0.029 A 
ATOM     17  C   UNL     1      -2.680  -1.390  -0.912  0.00  0.00    +0.050 A 
ATOM     18  C   UNL     1      -2.021  -2.608  -0.988  0.00  0.00    +0.121 A 
ATOM     19  C   UNL     1      -1.450  -3.159   0.150  0.00  0.00    +0.047 A 
ATOM     20  C   UNL     1      -1.539  -2.492   1.357  0.00  0.00    +0.024 A 
ATOM     21  C   UNL     1      -2.192  -1.274   1.430  0.00  0.00    +0.044 A 
ATOM     22 CL   UNL     1      -2.297  -0.436   2.946  0.00  0.00    -0.083 Cl
ENDBRANCH  14  18
ENDBRANCH  13  14
ENDBRANCH  12  13
ENDBRANCH  11  12
ENDBRANCH   7  11
ENDBRANCH   1   9
BRANCH   5  23
ATOM     23  C   UNL     1      -0.265 -12.214  -8.038  0.00  0.00    -0.042 C 
BRANCH  23  24
ATOM     24  N   UNL     1       1.086 -12.779  -8.146  0.00  0.00    +0.390 N 
ATOM     25  C   UNL     1       1.806 -12.636  -6.854  0.00  0.00    -0.077 C 
ATOM     26  C   UNL     1       2.907 -13.723  -6.939  0.00  0.00    -0.020 C 
ATOM     27  C   UNL     1       2.189 -14.887  -7.659  0.00  0.00    -0.008 C 
ATOM     28  C   UNL     1       1.012 -14.233  -8.406  0.00  0.00    +0.019 C 
ATOM     29  H   UNL     1       1.598 -12.319  -8.883  0.00  0.00    -0.080 HD
BRANCH  28  30
ATOM     30  C   UNL     1       1.134 -14.496  -9.885  0.00  0.00    +0.197 C 
ATOM     31  O   UNL     1       1.270 -13.570 -10.657  0.00  0.00    -0.278 OA
ATOM     32  N   UNL     1       1.091 -15.760 -10.351  0.00  0.00    -0.331 N 
ATOM     33  H   UNL     1       0.983 -16.501  -9.734  0.00  0.00    +0.145 HD
ATOM     34  H   UNL     1       1.170 -15.930 -11.303  0.00  0.00    +0.145 HD
ENDBRANCH  28  30
ENDBRANCH  23  24
ENDBRANCH   5  23
TORSDOF 9
