REMARK  Name = ZINC56934014
REMARK  7 active torsions:
REMARK  status: ('A' for Active; 'I' for Inactive)
REMARK    1  A    between atoms: C_1  and  O_2
REMARK    2  A    between atoms: O_2  and  C_3
REMARK    3  A    between atoms: C_8  and  C_9
REMARK    4  A    between atoms: C_9  and  C_11
REMARK    5  A    between atoms: C_9  and  N_20
REMARK    6  A    between atoms: C_11  and  N_12
REMARK    7  A    between atoms: N_15  and  N_16
REMARK                            x       y       z     vdW  Elec       q    Type
REMARK                         _______ _______ _______ _____ _____    ______ ____
ROOT
ATOM      1  C   UNL     1       0.054  -2.832   0.002  0.00  0.00    -0.017 C 
ENDROOT
BRANCH   1   2
ATOM      2  N   UNL     1       0.635  -4.175  -0.127  0.00  0.00    +0.385 N 
ATOM      3  C   UNL     1       2.095  -4.065  -0.242  0.00  0.00    -0.078 C 
ATOM      4  C   UNL     1       2.712  -5.465  -0.295  0.00  0.00    -0.019 C 
ATOM      5  C   UNL     1       2.157  -6.216  -1.509  0.00  0.00    -0.004 C 
ATOM      6  C   UNL     1       0.629  -6.259  -1.415  0.00  0.00    -0.019 C 
ATOM      7  C   UNL     1       0.089  -4.831  -1.321  0.00  0.00    -0.078 C 
ATOM      8  H   UNL     1       0.405  -4.720   0.690  0.00  0.00    -0.081 HD
ENDBRANCH   1   2
BRANCH   1  14
ATOM      9  C   UNL     1       0.451  -0.833   1.463  0.00  0.00    +0.122 A 
ATOM     10  C   UNL     1       0.866  -0.263   2.658  0.00  0.00    +0.046 A 
ATOM     11  C   UNL     1       1.341  -1.066   3.676  0.00  0.00    +0.004 A 
ATOM     12  C   UNL     1       1.403  -2.437   3.506  0.00  0.00    +0.000 A 
ATOM     13  C   UNL     1       0.991  -3.007   2.316  0.00  0.00    +0.005 A 
ATOM     14  C   UNL     1       0.509  -2.209   1.296  0.00  0.00    -0.018 A 
BRANCH   9  16
ATOM     15  C   UNL     1      -0.049   1.363   0.701  0.00  0.00    +0.277 C 
ATOM     16  O   UNL     1      -0.017  -0.045   0.459  0.00  0.00    -0.495 OA
ENDBRANCH   9  16
ENDBRANCH   1  14
BRANCH   1  17
ATOM     17  C   UNL     1      -1.473  -2.934  -0.006  0.00  0.00    +0.095 C 
BRANCH  17  18
ATOM     18  N   UNL     1      -1.904  -3.873   1.033  0.00  0.00    -0.299 N 
ATOM     19  C   UNL     1      -3.206  -4.204   1.144  0.00  0.00    +0.316 C 
ATOM     20  O   UNL     1      -4.022  -3.723   0.382  0.00  0.00    -0.251 OA
ATOM     21  N   UNL     1      -3.603  -5.067   2.100  0.00  0.00    -0.217 N 
ATOM     22  H   UNL     1      -1.253  -4.256   1.641  0.00  0.00    +0.150 HD
ATOM     23  H   UNL     1      -4.540  -5.305   2.180  0.00  0.00    +0.174 HD
BRANCH  21  24
ATOM     24  N   UNL     1      -2.662  -5.621   2.978  0.00  0.00    -0.217 N 
ATOM     25  C   UNL     1      -3.059  -6.484   3.934  0.00  0.00    +0.313 C 
ATOM     26  O   UNL     1      -2.242  -6.965   4.696  0.00  0.00    -0.252 OA
ATOM     27  N   UNL     1      -4.361  -6.815   4.045  0.00  0.00    -0.312 N 
ATOM     28  H   UNL     1      -1.725  -5.383   2.898  0.00  0.00    +0.174 HD
ATOM     29  H   UNL     1      -5.012  -6.431   3.437  0.00  0.00    +0.147 HD
ATOM     30  H   UNL     1      -4.646  -7.436   4.733  0.00  0.00    +0.147 HD
ENDBRANCH  21  24
ENDBRANCH  17  18
ENDBRANCH   1  17
TORSDOF 6
