REMARK  Name = ZINC35427427
REMARK  6 active torsions:
REMARK  status: ('A' for Active; 'I' for Inactive)
REMARK    1  A    between atoms: C_1  and  C_2
REMARK    2  A    between atoms: C_2  and  N_3
REMARK    3  A    between atoms: C_17  and  C_32
REMARK    4  A    between atoms: N_23  and  C_24
REMARK    5  A    between atoms: C_26  and  C_31
REMARK    6  A    between atoms: C_29  and  C_30
REMARK                            x       y       z     vdW  Elec       q    Type
REMARK                         _______ _______ _______ _____ _____    ______ ____
ROOT
ATOM      1  N   UNL     1      -1.480  -0.579   0.349  0.00  0.00    +0.383 N 
ATOM      2  C   UNL     1      -1.481  -2.044   0.449  0.00  0.00    -0.074 C 
ATOM      3  C   UNL     1      -2.903  -2.560   0.688  0.00  0.00    +0.018 C 
ATOM      4  C   UNL     1      -3.804  -1.973  -0.396  0.00  0.00    -0.034 A 
ATOM      5  C   UNL     1      -5.074  -2.495  -0.704  0.00  0.00    +0.004 A 
ATOM      6  C   UNL     1      -5.762  -1.880  -1.704  0.00  0.00    +0.090 A 
ATOM      7  S   UNL     1      -4.705  -0.564  -2.227  0.00  0.00    -0.077 S 
ATOM      8  C   UNL     1      -3.373  -0.893  -1.103  0.00  0.00    -0.021 A 
ATOM      9  C   UNL     1      -2.074  -0.175  -0.940  0.00  0.00    -0.035 C 
ATOM     10  N   UNL     1      -7.011  -2.288  -2.155  0.00  0.00    -0.312 N 
ATOM     11  C   UNL     1      -8.134  -1.589  -2.437  0.00  0.00    +0.092 A 
ATOM     12  C   UNL     1      -9.102  -2.470  -2.776  0.00  0.00    +0.020 A 
ATOM     13  C   UNL     1      -8.539  -3.763  -2.718  0.00  0.00    +0.025 A 
ATOM     14  C   UNL     1      -7.254  -3.627  -2.361  0.00  0.00    +0.049 A 
ATOM     15  C   UNL     1      -6.186  -4.671  -2.227  0.00  0.00    +0.155 C 
ATOM     16  N   UNL     1      -5.788  -4.874  -0.813  0.00  0.00    -0.268 N 
ATOM     17  C   UNL     1      -5.685  -3.669   0.029  0.00  0.00    +0.148 C 
ATOM     18  C   UNL     1      -5.533  -6.103  -0.321  0.00  0.00    +0.308 C 
ATOM     19  O   UNL     1      -5.627  -7.078  -1.042  0.00  0.00    -0.252 OA
ATOM     20  N   UNL     1      -5.173  -6.251   0.969  0.00  0.00    -0.269 N 
ATOM     21  H   UNL     1      -5.155  -5.481   1.559  0.00  0.00    +0.156 HD
ATOM     22  H   UNL     1      -2.022  -0.189   1.106  0.00  0.00    -0.081 HD
ENDROOT
BRANCH  20  23
ATOM     23  C   UNL     1      -4.827  -7.515   1.458  0.00  0.00    +0.038 A 
ATOM     24  C   UNL     1      -5.328  -8.659   0.850  0.00  0.00    +0.027 A 
ATOM     25  C   UNL     1      -4.984  -9.905   1.335  0.00  0.00    -0.049 A 
ATOM     26  C   UNL     1      -4.140 -10.015   2.425  0.00  0.00    +0.004 A 
ATOM     27  C   UNL     1      -3.640  -8.879   3.034  0.00  0.00    +0.005 A 
ATOM     28  C   UNL     1      -3.976  -7.630   2.550  0.00  0.00    -0.029 A 
ATOM     29  C   UNL     1      -3.425  -6.392   3.210  0.00  0.00    +0.045 C 
ATOM     30  C   UNL     1      -5.527 -11.146   0.675  0.00  0.00    +0.044 C 
ENDBRANCH  20  23
BRANCH  15  31
ATOM     31  C   UNL     1      -4.978  -4.241  -3.018  0.00  0.00    -0.021 A 
ATOM     32  C   UNL     1      -3.714  -4.628  -2.614  0.00  0.00    +0.006 A 
ATOM     33  C   UNL     1      -2.605  -4.234  -3.340  0.00  0.00    +0.000 A 
ATOM     34  C   UNL     1      -2.761  -3.453  -4.470  0.00  0.00    +0.000 A 
ATOM     35  C   UNL     1      -4.025  -3.067  -4.875  0.00  0.00    +0.000 A 
ATOM     36  C   UNL     1      -5.134  -3.465  -4.151  0.00  0.00    +0.006 A 
ENDBRANCH  15  31
BRANCH   1  38
ATOM     37  C   UNL     1      -0.108   1.447   0.448  0.00  0.00    -0.017 C 
ATOM     38  C   UNL     1      -0.100  -0.083   0.428  0.00  0.00    -0.082 C 
ENDBRANCH   1  38
TORSDOF 3
