REMARK  Name = ZINC25106797
REMARK  7 active torsions:
REMARK  status: ('A' for Active; 'I' for Inactive)
REMARK    1  A    between atoms: C_1  and  S_2
REMARK    2  A    between atoms: S_2  and  C_3
REMARK    3  A    between atoms: C_3  and  C_4
REMARK    4  A    between atoms: C_4  and  C_5
REMARK    5  A    between atoms: C_5  and  C_7
REMARK    6  A    between atoms: C_5  and  N_24
REMARK    7  A    between atoms: C_25  and  C_27
REMARK                            x       y       z     vdW  Elec       q    Type
REMARK                         _______ _______ _______ _____ _____    ______ ____
ROOT
ATOM      1  C   UNL     1       1.806  -3.790  -3.136  0.00  0.00    +0.236 C 
ATOM      2  O   UNL     1       2.894  -4.327  -3.119  0.00  0.00    -0.274 OA
ATOM      3  N   UNL     1       0.693  -4.529  -3.309  0.00  0.00    -0.300 N 
ATOM      4  C   UNL     1      -0.620  -3.884  -3.446  0.00  0.00    +0.110 C 
ATOM      5  C   UNL     1      -1.284  -4.386  -4.732  0.00  0.00    +0.047 C 
ATOM      6  C   UNL     1      -1.332  -5.914  -4.715  0.00  0.00    +0.064 C 
ATOM      7  C   UNL     1       0.089  -6.476  -4.652  0.00  0.00    +0.047 C 
ATOM      8  C   UNL     1       0.768  -5.995  -3.370  0.00  0.00    +0.110 C 
ATOM      9  C   UNL     1      -2.021  -6.415  -5.956  0.00  0.00    +0.057 A 
ATOM     10  C   UNL     1      -2.951  -7.398  -5.953  0.00  0.00    +0.039 A 
ATOM     11  N   UNL     1      -3.354  -7.589  -7.209  0.00  0.00    -0.349 N 
ATOM     12  C   UNL     1      -2.711  -6.764  -7.995  0.00  0.00    +0.171 A 
ATOM     13  N   UNL     1      -1.868  -6.015  -7.246  0.00  0.00    -0.348 N 
ATOM     14  H   UNL     1      -1.269  -5.324  -7.568  0.00  0.00    +0.166 HD
ATOM     15  C   UNL     1      -3.393  -8.107  -4.696  0.00  0.00    +0.070 C 
ATOM     16  C   UNL     1      -2.358  -7.815  -3.601  0.00  0.00    +0.088 C 
ATOM     17  N   UNL     1      -2.094  -6.370  -3.542  0.00  0.00    -0.305 NA
ATOM     18  H   UNL     1      -1.621  -6.124  -2.685  0.00  0.00    +0.123 HD
ATOM     19  H   UNL     1      -4.018  -8.236  -7.495  0.00  0.00    +0.166 HD
ENDROOT
BRANCH   1  20
ATOM     20  C   UNL     1       1.701  -2.297  -2.965  0.00  0.00    +0.160 C 
BRANCH  20  21
ATOM     21  N   UNL     1       2.974  -1.672  -3.334  0.00  0.00    -0.297 N 
ATOM     22  C   UNL     1       3.000  -0.390  -3.748  0.00  0.00    +0.280 C 
ATOM     23  O   UNL     1       1.966   0.249  -3.816  0.00  0.00    -0.267 OA
ATOM     24  H   UNL     1       3.798  -2.181  -3.280  0.00  0.00    +0.150 HD
BRANCH  22  25
ATOM     25  C   UNL     1       4.273   0.236  -4.117  0.00  0.00    +0.191 A 
ATOM     26  C   UNL     1       4.441   1.522  -4.545  0.00  0.00    +0.056 A 
ATOM     27  C   UNL     1       5.813   1.692  -4.783  0.00  0.00    +0.058 A 
ATOM     28  C   UNL     1       6.417   0.516  -4.494  0.00  0.00    +0.171 A 
ATOM     29  O   UNL     1       5.485  -0.357  -4.087  0.00  0.00    -0.444 OA
ATOM     30 BR   UNL     1       8.270   0.165  -4.632  0.00  0.00    -0.008 Br
ENDBRANCH  22  25
ENDBRANCH  20  21
BRANCH  20  31
ATOM     31  C   UNL     1       1.377  -1.972  -1.506  0.00  0.00    +0.042 C 
BRANCH  31  32
ATOM     32  C   UNL     1       1.120  -0.471  -1.362  0.00  0.00    +0.071 C 
BRANCH  32  34
ATOM     33  C   UNL     1       0.462   1.707   0.369  0.00  0.00    +0.084 C 
ATOM     34  S   UNL     1       0.736  -0.086   0.369  0.00  0.00    -0.164 S 
ENDBRANCH  32  34
ENDBRANCH  31  32
ENDBRANCH  20  31
ENDBRANCH   1  20
TORSDOF 6
