REMARK  Name = ZINC63796178
REMARK  9 active torsions:
REMARK  status: ('A' for Active; 'I' for Inactive)
REMARK    1  A    between atoms: C_1  and  C_2
REMARK    2  A    between atoms: N_4  and  C_5
REMARK    3  A    between atoms: C_10  and  O_11
REMARK    4  A    between atoms: O_11  and  C_12
REMARK    5  A    between atoms: C_12  and  C_13
REMARK    6  A    between atoms: C_15  and  C_19
REMARK    7  A    between atoms: N_21  and  C_22
REMARK    8  A    between atoms: C_22  and  C_23
REMARK    9  A    between atoms: C_23  and  C_24
REMARK                            x       y       z     vdW  Elec       q    Type
REMARK                         _______ _______ _______ _____ _____    ______ ____
ROOT
ATOM      1  C   UNL     1      -5.964  -1.846  -0.236  0.00  0.00    +0.141 C 
ATOM      2  N   UNL     1      -7.194  -2.220  -0.300  0.00  0.00    -0.336 N 
ATOM      3  C   UNL     1      -8.053  -1.030  -0.248  0.00  0.00    +0.329 C 
ATOM      4  O   UNL     1      -7.150   0.083  -0.146  0.00  0.00    -0.239 OA
ATOM      5  N   UNL     1      -5.851  -0.489  -0.138  0.00  0.00    -0.248 N 
ATOM      6  H   UNL     1      -5.018   0.004  -0.075  0.00  0.00    +0.196 HD
ATOM      7  H   UNL     1      -7.503  -3.136  -0.370  0.00  0.00    +0.164 HD
ENDROOT
BRANCH   3   8
ATOM      8  C   UNL     1      -8.953  -1.087   0.959  0.00  0.00    +0.265 C 
ATOM      9  O   UNL     1      -8.775  -0.324   1.885  0.00  0.00    -0.271 OA
ATOM     10  N   UNL     1      -9.956  -1.986   1.010  0.00  0.00    -0.311 N 
ATOM     11  H   UNL     1     -10.098  -2.596   0.270  0.00  0.00    +0.149 HD
BRANCH  10  12
ATOM     12  C   UNL     1     -10.831  -2.041   2.184  0.00  0.00    +0.108 C 
BRANCH  12  13
ATOM     13  C   UNL     1     -11.877  -3.140   1.988  0.00  0.00    +0.052 C 
BRANCH  13  14
ATOM     14  C   UNL     1     -12.777  -3.197   3.195  0.00  0.00    -0.040 C 
ATOM     15  C   UNL     1     -13.977  -2.590   3.345  0.00  0.00    -0.001 A 
ATOM     16  C   UNL     1     -14.771  -1.727   2.462  0.00  0.00    +0.010 A 
ATOM     17  C   UNL     1     -15.962  -1.260   2.900  0.00  0.00    +0.001 A 
ATOM     18  C   UNL     1     -16.455  -1.577   4.173  0.00  0.00    +0.002 A 
ATOM     19  C   UNL     1     -15.783  -2.364   5.040  0.00  0.00    +0.026 A 
ATOM     20  C   UNL     1     -14.520  -2.911   4.684  0.00  0.00    +0.043 A 
ATOM     21  N   UNL     1     -13.689  -3.687   5.337  0.00  0.00    -0.380 N 
ATOM     22  C   UNL     1     -12.526  -3.951   4.482  0.00  0.00    +0.144 C 
ATOM     23  H   UNL     1     -13.823  -4.032   6.233  0.00  0.00    +0.160 HD
ENDBRANCH  13  14
ENDBRANCH  12  13
ENDBRANCH  10  12
ENDBRANCH   3   8
BRANCH   1  24
ATOM     24  C   UNL     1      -4.791  -2.792  -0.261  0.00  0.00    +0.302 C 
BRANCH  24  25
ATOM     25  O   UNL     1      -3.575  -2.046  -0.168  0.00  0.00    -0.483 OA
BRANCH  25  31
ATOM     26  C   UNL     1      -1.192  -2.091  -0.088  0.00  0.00    +0.076 A 
ATOM     27  C   UNL     1      -0.011  -2.819  -0.092  0.00  0.00    +0.027 A 
ATOM     28  C   UNL     1      -0.050  -4.197  -0.188  0.00  0.00    +0.002 A 
ATOM     29  C   UNL     1      -1.263  -4.854  -0.281  0.00  0.00    +0.004 A 
ATOM     30  C   UNL     1      -2.444  -4.135  -0.278  0.00  0.00    +0.047 A 
ATOM     31  C   UNL     1      -2.414  -2.753  -0.176  0.00  0.00    +0.142 A 
BRANCH  26  35
ATOM     32  C   UNL     1      -0.167   1.503  -0.550  0.00  0.00    +0.109 C 
ATOM     33  C   UNL     1      -0.153  -0.004  -0.569  0.00  0.00    +0.214 C 
ATOM     34  O   UNL     1       0.760  -0.595  -1.105  0.00  0.00    -0.276 OA
ATOM     35  N   UNL     1      -1.156  -0.694   0.009  0.00  0.00    -0.283 N 
ATOM     36  H   UNL     1      -1.852  -0.223   0.493  0.00  0.00    +0.155 HD
ENDBRANCH  26  35
ENDBRANCH  25  31
ENDBRANCH  24  25
ENDBRANCH   1  24
TORSDOF 8
