REMARK  Name = ZINC01078569
REMARK  11 active torsions:
REMARK  status: ('A' for Active; 'I' for Inactive)
REMARK    1  A    between atoms: C_1  and  C_2
REMARK    2  A    between atoms: C_2  and  C_3
REMARK    3  A    between atoms: C_6  and  N_9
REMARK    4  A    between atoms: N_9  and  C_10
REMARK    5  A    between atoms: N_9  and  S_22
REMARK    6  A    between atoms: C_10  and  C_11
REMARK    7  A    between atoms: N_13  and  C_14
REMARK    8  A    between atoms: C_19  and  S_20
REMARK    9  A    between atoms: S_20  and  C_21
REMARK   10  A    between atoms: S_22  and  C_25
REMARK   11  A    between atoms: C_28  and  C_31
REMARK                            x       y       z     vdW  Elec       q    Type
REMARK                         _______ _______ _______ _____ _____    ______ ____
ROOT
ATOM      1  N   UNL     1       2.317   1.071  -0.212  0.00  0.00    -0.194 N 
ENDROOT
BRANCH   1   5
ATOM      2  C   UNL     1       2.780  -0.414   3.650  0.00  0.00    -0.048 A 
ATOM      3  C   UNL     1       1.566   0.117   3.257  0.00  0.00    +0.005 A 
ATOM      4  C   UNL     1       1.409   0.611   1.977  0.00  0.00    +0.025 A 
ATOM      5  C   UNL     1       2.472   0.573   1.084  0.00  0.00    +0.052 A 
ATOM      6  C   UNL     1       3.689   0.034   1.481  0.00  0.00    +0.025 A 
ATOM      7  C   UNL     1       3.841  -0.453   2.764  0.00  0.00    +0.005 A 
BRANCH   2   9
ATOM      8  C   UNL     1       2.581  -2.437   5.071  0.00  0.00    +0.009 C 
ATOM      9  C   UNL     1       2.948  -0.952   5.048  0.00  0.00    +0.032 C 
ENDBRANCH   2   9
ENDBRANCH   1   5
BRANCH   1  10
ATOM     10  S   UNL     1       3.261   0.489  -1.441  0.00  0.00    +0.075 S 
ATOM     11  O   UNL     1       3.746  -0.777  -1.017  0.00  0.00    -0.150 OA
ATOM     12  O   UNL     1       2.517   0.658  -2.640  0.00  0.00    -0.150 OA
BRANCH  10  13
ATOM     13  C   UNL     1       4.663   1.549  -1.567  0.00  0.00    +0.109 A 
ATOM     14  C   UNL     1       4.589   2.708  -2.316  0.00  0.00    +0.029 A 
ATOM     15  C   UNL     1       5.688   3.542  -2.411  0.00  0.00    +0.005 A 
ATOM     16  C   UNL     1       6.864   3.211  -1.764  0.00  0.00    -0.050 A 
ATOM     17  C   UNL     1       6.940   2.049  -1.019  0.00  0.00    +0.005 A 
ATOM     18  C   UNL     1       5.840   1.218  -0.921  0.00  0.00    +0.029 A 
ATOM     19  C   UNL     1       8.063   4.117  -1.872  0.00  0.00    +0.044 C 
ENDBRANCH  10  13
ENDBRANCH   1  10
BRANCH   1  20
ATOM     20  C   UNL     1       1.318   2.108  -0.483  0.00  0.00    +0.227 C 
BRANCH  20  21
ATOM     21  C   UNL     1      -0.023   1.463  -0.725  0.00  0.00    +0.236 C 
ATOM     22  O   UNL     1      -0.133   0.256  -0.676  0.00  0.00    -0.274 OA
ATOM     23  N   UNL     1      -1.098   2.227  -1.002  0.00  0.00    -0.283 N 
ATOM     24  H   UNL     1      -1.028   3.194  -0.964  0.00  0.00    +0.155 HD
BRANCH  23  25
ATOM     25  C   UNL     1      -2.316   1.625  -1.343  0.00  0.00    +0.047 A 
ATOM     26  C   UNL     1      -2.333   0.350  -1.888  0.00  0.00    +0.024 A 
ATOM     27  C   UNL     1      -3.537  -0.245  -2.219  0.00  0.00    +0.002 A 
ATOM     28  C   UNL     1      -4.726   0.432  -2.018  0.00  0.00    +0.001 A 
ATOM     29  C   UNL     1      -4.719   1.705  -1.480  0.00  0.00    +0.016 A 
ATOM     30  C   UNL     1      -3.516   2.308  -1.140  0.00  0.00    +0.029 A 
BRANCH  30  31
ATOM     31  S   UNL     1      -3.503   3.931  -0.455  0.00  0.00    -0.127 S 
ATOM     32  C   UNL     1      -5.256   4.392  -0.386  0.00  0.00    +0.090 C 
ENDBRANCH  30  31
ENDBRANCH  23  25
ENDBRANCH  20  21
ENDBRANCH   1  20
TORSDOF 8
