REMARK  Name = ZINC44165011
REMARK  7 active torsions:
REMARK  status: ('A' for Active; 'I' for Inactive)
REMARK    1  A    between atoms: C_1  and  C_2
REMARK    2  A    between atoms: C_2  and  C_4
REMARK    3  A    between atoms: C_2  and  N_10
REMARK    4  A    between atoms: C_11  and  C_13
REMARK    5  A    between atoms: C_18  and  C_21
REMARK    6  A    between atoms: C_25  and  O_27
REMARK    7  A    between atoms: O_27  and  C_28
REMARK                            x       y       z     vdW  Elec       q    Type
REMARK                         _______ _______ _______ _____ _____    ______ ____
ROOT
ATOM      1  C   UNL     1      -3.465  -1.164  -1.134  0.00  0.00    +0.027 C 
ATOM      2  C   UNL     1      -3.484  -2.572  -0.526  0.00  0.00    +0.062 C 
ATOM      3  S   UNL     1      -5.211  -3.144  -0.467  0.00  0.00    -0.163 S 
ATOM      4  C   UNL     1      -5.798  -2.815  -2.158  0.00  0.00    +0.058 C 
ATOM      5  C   UNL     1      -5.433  -1.371  -2.521  0.00  0.00    -0.030 C 
ATOM      6  N   UNL     1      -3.977  -1.209  -2.505  0.00  0.00    +0.392 N 
ATOM      7  H   UNL     1      -3.736  -0.350  -2.976  0.00  0.00    -0.084 HD
ATOM      8  H   UNL     1      -3.551  -1.983  -2.992  0.00  0.00    -0.084 HD
ENDROOT
BRANCH   5   9
ATOM      9  C   UNL     1      -5.955  -1.054  -3.898  0.00  0.00    -0.057 A 
ATOM     10  C   UNL     1      -5.262  -1.481  -5.016  0.00  0.00    +0.002 A 
ATOM     11  C   UNL     1      -5.739  -1.192  -6.281  0.00  0.00    +0.004 A 
ATOM     12  C   UNL     1      -6.910  -0.474  -6.431  0.00  0.00    +0.045 A 
ATOM     13  C   UNL     1      -7.607  -0.045  -5.312  0.00  0.00    +0.120 A 
ATOM     14  C   UNL     1      -7.130  -0.342  -4.044  0.00  0.00    +0.047 A 
BRANCH  13  15
ATOM     15  O   UNL     1      -8.760   0.661  -5.458  0.00  0.00    -0.495 OA
ATOM     16  C   UNL     1      -9.195   0.925  -6.793  0.00  0.00    +0.277 C 
ENDBRANCH  13  15
ENDBRANCH   5   9
BRANCH   1  18
ATOM     17  N   UNL     1      -1.372  -0.511   0.012  0.00  0.00    -0.310 N 
ATOM     18  C   UNL     1      -2.051  -0.643  -1.145  0.00  0.00    +0.200 C 
ATOM     19  O   UNL     1      -1.524  -0.341  -2.194  0.00  0.00    -0.278 OA
ATOM     20  H   UNL     1      -1.794  -0.752   0.852  0.00  0.00    +0.149 HD
BRANCH  17  22
ATOM     21  C   UNL     1      -0.019   1.526   0.010  0.00  0.00    +0.033 C 
ATOM     22  C   UNL     1       0.002  -0.004   0.002  0.00  0.00    +0.100 C 
BRANCH  22  23
ATOM     23  C   UNL     1       0.731  -0.503   1.223  0.00  0.00    -0.027 A 
ATOM     24  C   UNL     1       0.081  -0.558   2.442  0.00  0.00    +0.005 A 
ATOM     25  C   UNL     1       0.749  -1.016   3.562  0.00  0.00    +0.000 A 
ATOM     26  C   UNL     1       2.068  -1.420   3.463  0.00  0.00    +0.000 A 
ATOM     27  C   UNL     1       2.718  -1.365   2.244  0.00  0.00    +0.000 A 
ATOM     28  C   UNL     1       2.048  -0.911   1.123  0.00  0.00    +0.005 A 
ENDBRANCH  22  23
ENDBRANCH  17  22
ENDBRANCH   1  18
TORSDOF 5
