REMARK  Name = ZINC20344474
REMARK  13 active torsions:
REMARK  status: ('A' for Active; 'I' for Inactive)
REMARK    1  A    between atoms: C_1  and  C_2
REMARK    2  A    between atoms: C_4  and  C_32
REMARK    3  A    between atoms: C_5  and  S_9
REMARK    4  A    between atoms: C_6  and  C_8
REMARK    5  A    between atoms: S_9  and  N_12
REMARK    6  A    between atoms: N_12  and  N_13
REMARK    7  A    between atoms: N_13  and  C_14
REMARK    8  A    between atoms: C_14  and  N_16
REMARK    9  A    between atoms: N_16  and  C_17
REMARK   10  A    between atoms: C_18  and  C_28
REMARK   11  A    between atoms: C_23  and  C_27
REMARK   12  A    between atoms: C_28  and  O_30
REMARK   13  A    between atoms: O_30  and  C_31
REMARK                            x       y       z     vdW  Elec       q    Type
REMARK                         _______ _______ _______ _____ _____    ______ ____
ROOT
ATOM      1  C   UNL     1      -2.924  -6.605   0.620  0.00  0.00    +0.150 C 
ATOM      2  S   UNL     1      -3.690  -5.311  -0.198  0.00  0.00    -0.017 S 
ENDROOT
BRANCH   1   3
ATOM      3  N   UNL     1      -3.533  -7.805   0.701  0.00  0.00    -0.243 N 
ATOM      4  H   UNL     1      -4.521  -7.953   0.241  0.00  0.00    +0.170 HD
BRANCH   3   5
ATOM      5  N   UNL     1      -2.906  -8.864   1.371  0.00  0.00    -0.109 NA
ATOM      6  H   UNL     1      -2.011  -9.138   1.115  0.00  0.00    +0.172 HD
BRANCH   5   7
ATOM      7  S   UNL     1      -3.693  -9.648   2.599  0.00  0.00    +0.074 S 
ATOM      8  O   UNL     1      -2.872 -10.746   2.972  0.00  0.00    -0.152 OA
ATOM      9  O   UNL     1      -4.096  -8.649   3.526  0.00  0.00    -0.152 OA
BRANCH   7  14
ATOM     10  C   UNL     1      -8.747 -11.985   0.276  0.00  0.00    +0.044 C 
ATOM     11  C   UNL     1      -7.485 -11.401   0.857  0.00  0.00    -0.050 A 
ATOM     12  C   UNL     1      -6.277 -12.048   0.674  0.00  0.00    +0.008 A 
ATOM     13  C   UNL     1      -5.119 -11.512   1.206  0.00  0.00    -0.024 A 
ATOM     14  C   UNL     1      -5.169 -10.330   1.921  0.00  0.00    +0.113 A 
ATOM     15  C   UNL     1      -6.378  -9.687   2.108  0.00  0.00    -0.024 A 
ATOM     16  C   UNL     1      -7.535 -10.219   1.571  0.00  0.00    +0.008 A 
ATOM     17  C   UNL     1      -6.433  -8.401   2.893  0.00  0.00    +0.046 C 
ATOM     18  C   UNL     1      -3.802 -12.217   1.007  0.00  0.00    +0.046 C 
ENDBRANCH   7  14
ENDBRANCH   5   7
ENDBRANCH   3   5
ENDBRANCH   1   3
BRANCH   1  19
ATOM     19  N   UNL     1      -1.714  -6.424   1.184  0.00  0.00    -0.290 N 
ATOM     20  H   UNL     1      -1.222  -7.255   1.710  0.00  0.00    +0.154 HD
BRANCH  19  21
ATOM     21  C   UNL     1      -1.089  -5.190   1.101  0.00  0.00    +0.086 A 
ATOM     22  C   UNL     1       0.146  -4.812   1.613  0.00  0.00    +0.091 A 
ATOM     23  C   UNL     1       0.576  -3.442   1.384  0.00  0.00    -0.021 A 
ATOM     24  C   UNL     1      -0.290  -2.676   0.687  0.00  0.00    -0.004 A 
ATOM     25  S   UNL     1      -1.657  -3.745   0.333  0.00  0.00    -0.077 S 
ATOM     26  C   UNL     1      -0.117  -1.240   0.302  0.00  0.00    +0.046 C 
ATOM     27  C   UNL     1       1.359  -0.862   0.493  0.00  0.00    -0.009 C 
ATOM     28  C   UNL     1       1.818  -1.349   1.870  0.00  0.00    +0.008 C 
ATOM     29  C   UNL     1       1.901  -2.876   1.881  0.00  0.00    +0.037 C 
ATOM     30  C   UNL     1       1.514   0.658   0.408  0.00  0.00    +0.008 C 
BRANCH  22  31
ATOM     31  C   UNL     1       0.983  -5.757   2.353  0.00  0.00    +0.342 C 
ATOM     32  O   UNL     1       0.868  -5.855   3.561  0.00  0.00    -0.245 OA
BRANCH  31  33
ATOM     33  O   UNL     1       1.882  -6.520   1.698  0.00  0.00    -0.464 OA
ATOM     34  C   UNL     1       2.678  -7.435   2.496  0.00  0.00    +0.280 C 
ENDBRANCH  31  33
ENDBRANCH  22  31
ENDBRANCH  19  21
ENDBRANCH   1  19
TORSDOF 8
