REMARK  Name = ZINC37510661
REMARK  9 active torsions:
REMARK  status: ('A' for Active; 'I' for Inactive)
REMARK    1  A    between atoms: C_1  and  C_2
REMARK    2  A    between atoms: C_2  and  N_3
REMARK    3  A    between atoms: C_9  and  C_11
REMARK    4  A    between atoms: C_14  and  C_16
REMARK    5  A    between atoms: C_16  and  N_17
REMARK    6  A    between atoms: C_20  and  C_28
REMARK    7  A    between atoms: C_28  and  C_30
REMARK    8  A    between atoms: C_30  and  O_31
REMARK    9  A    between atoms: O_31  and  C_32
REMARK                            x       y       z     vdW  Elec       q    Type
REMARK                         _______ _______ _______ _____ _____    ______ ____
ROOT
ATOM      1  N   UNL     1       4.055  -7.036  -3.120  0.00  0.00    -0.258 N 
ATOM      2  C   UNL     1       4.662  -7.852  -4.086  0.00  0.00    +0.079 A 
ATOM      3  C   UNL     1       3.909  -8.442  -5.080  0.00  0.00    +0.038 A 
ATOM      4  C   UNL     1       4.534  -9.254  -6.034  0.00  0.00    +0.023 A 
ATOM      5  C   UNL     1       5.918  -9.462  -5.973  0.00  0.00    +0.015 A 
ATOM      6  C   UNL     1       6.662  -8.868  -4.977  0.00  0.00    +0.048 A 
ATOM      7  C   UNL     1       6.042  -8.063  -4.032  0.00  0.00    +0.143 A 
ATOM      8  O   UNL     1       6.769  -7.472  -3.048  0.00  0.00    -0.481 OA
ATOM      9  C   UNL     1       6.320  -6.191  -2.599  0.00  0.00    +0.325 C 
ATOM     10  C   UNL     1       4.831  -6.224  -2.369  0.00  0.00    +0.258 C 
ATOM     11  O   UNL     1       4.332  -5.527  -1.510  0.00  0.00    -0.271 OA
ENDROOT
BRANCH   4  12
ATOM     12  C   UNL     1       3.741  -9.887  -7.096  0.00  0.00    +0.200 C 
ATOM     13  O   UNL     1       2.543  -9.707  -7.148  0.00  0.00    -0.288 OA
BRANCH  12  14
ATOM     14  C   UNL     1       4.416 -10.761  -8.122  0.00  0.00    +0.308 C 
BRANCH  14  15
ATOM     15  O   UNL     1       3.441 -11.256  -9.042  0.00  0.00    -0.484 OA
BRANCH  15  16
ATOM     16  C   UNL     1       3.888 -12.067 -10.038  0.00  0.00    +0.121 A 
ATOM     17  C   UNL     1       5.236 -12.382 -10.124  0.00  0.00    +0.048 A 
ATOM     18  C   UNL     1       5.688 -13.206 -11.137  0.00  0.00    +0.042 A 
ATOM     19  C   UNL     1       4.797 -13.716 -12.066  0.00  0.00    +0.124 A 
ATOM     20  C   UNL     1       3.451 -13.401 -11.981  0.00  0.00    +0.042 A 
ATOM     21  C   UNL     1       2.995 -12.583 -10.965  0.00  0.00    +0.048 A 
ATOM     22  F   UNL     1       5.241 -14.521 -13.056  0.00  0.00    -0.205 F 
ENDBRANCH  15  16
ENDBRANCH  14  15
ENDBRANCH  12  14
ENDBRANCH   4  12
BRANCH   1  23
ATOM     23  C   UNL     1       2.602  -7.059  -2.932  0.00  0.00    +0.188 C 
BRANCH  23  27
ATOM     24  C   UNL     1       1.139  -4.139  -4.567  0.00  0.00    +0.190 A 
ATOM     25  C   UNL     1       1.010  -5.049  -5.577  0.00  0.00    +0.055 A 
ATOM     26  C   UNL     1       1.539  -6.259  -5.100  0.00  0.00    +0.047 A 
ATOM     27  C   UNL     1       1.963  -6.036  -3.836  0.00  0.00    +0.124 A 
ATOM     28  O   UNL     1       1.725  -4.756  -3.521  0.00  0.00    -0.453 OA
BRANCH  24  35
ATOM     29  N   UNL     1      -0.064  -0.675  -1.172  0.00  0.00    +0.382 N 
ATOM     30  C   UNL     1      -0.540  -0.196  -2.476  0.00  0.00    -0.060 C 
ATOM     31  C   UNL     1       0.496  -0.534  -3.553  0.00  0.00    +0.089 C 
ATOM     32  N   UNL     1       0.769  -1.978  -3.500  0.00  0.00    -0.299 N 
ATOM     33  C   UNL     1       1.096  -2.575  -2.196  0.00  0.00    +0.089 C 
ATOM     34  C   UNL     1       0.031  -2.141  -1.183  0.00  0.00    -0.060 C 
ATOM     35  C   UNL     1       0.721  -2.734  -4.615  0.00  0.00    +0.282 C 
ATOM     36  O   UNL     1       0.331  -2.250  -5.661  0.00  0.00    -0.267 OA
ATOM     37  H   UNL     1       0.845  -0.282  -0.983  0.00  0.00    -0.082 HD
BRANCH  29  39
ATOM     38  C   UNL     1      -1.012   1.271  -0.028  0.00  0.00    -0.017 C 
ATOM     39  C   UNL     1      -1.004  -0.256  -0.124  0.00  0.00    -0.082 C 
ENDBRANCH  29  39
ENDBRANCH  24  35
ENDBRANCH  23  27
ENDBRANCH   1  23
TORSDOF 8
