REMARK  Name = ZINC63221883
REMARK  8 active torsions:
REMARK  status: ('A' for Active; 'I' for Inactive)
REMARK    1  A    between atoms: C_4  and  C_7
REMARK    2  A    between atoms: C_7  and  C_9
REMARK    3  A    between atoms: C_7  and  N_23
REMARK    4  A    between atoms: N_11  and  C_12
REMARK    5  A    between atoms: C_17  and  C_18
REMARK    6  A    between atoms: N_23  and  C_24
REMARK    7  A    between atoms: C_24  and  C_25
REMARK    8  A    between atoms: C_25  and  C_26
REMARK                            x       y       z     vdW  Elec       q    Type
REMARK                         _______ _______ _______ _____ _____    ______ ____
ROOT
ATOM      1  C   UNL     1       3.696  -0.708  -0.034  0.00  0.00    +0.047 C 
ENDROOT
BRANCH   1   5
ATOM      2  C   UNL     1      -0.040   1.362   0.040  0.00  0.00    +0.000 A 
ATOM      3  C   UNL     1       1.145   2.075   0.025  0.00  0.00    +0.000 A 
ATOM      4  C   UNL     1       2.354   1.405   0.001  0.00  0.00    +0.002 A 
ATOM      5  C   UNL     1       2.378   0.022  -0.007  0.00  0.00    -0.053 A 
ATOM      6  C   UNL     1       1.194  -0.690   0.009  0.00  0.00    +0.002 A 
ATOM      7  C   UNL     1      -0.015  -0.020   0.032  0.00  0.00    +0.000 A 
ENDBRANCH   1   5
BRANCH   1   8
ATOM      8  C   UNL     1       4.040  -1.175   1.356  0.00  0.00    +0.207 C 
ATOM      9  O   UNL     1       4.187  -2.358   1.580  0.00  0.00    -0.277 OA
ATOM     10  N   UNL     1       4.186  -0.278   2.352  0.00  0.00    -0.286 N 
ATOM     11  H   UNL     1       4.148   0.672   2.158  0.00  0.00    +0.155 HD
BRANCH  10  12
ATOM     12  C   UNL     1       4.391  -0.717   3.665  0.00  0.00    +0.045 A 
ATOM     13  C   UNL     1       3.950  -1.975   4.055  0.00  0.00    +0.025 A 
ATOM     14  C   UNL     1       4.153  -2.405   5.351  0.00  0.00    +0.022 A 
ATOM     15  C   UNL     1       4.795  -1.584   6.261  0.00  0.00    +0.042 A 
ATOM     16  C   UNL     1       5.235  -0.330   5.876  0.00  0.00    +0.034 A 
ATOM     17  C   UNL     1       5.040   0.103   4.579  0.00  0.00    +0.077 A 
ATOM     18 CL   UNL     1       5.049  -2.128   7.891  0.00  0.00    -0.084 Cl
BRANCH  17  19
ATOM     19  C   UNL     1       5.525   1.466   4.157  0.00  0.00    +0.419 C 
ATOM     20  F   UNL     1       6.142   2.097   5.243  0.00  0.00    -0.166 F 
ATOM     21  F   UNL     1       6.444   1.331   3.112  0.00  0.00    -0.166 F 
ATOM     22  F   UNL     1       4.438   2.235   3.727  0.00  0.00    -0.166 F 
ENDBRANCH  17  19
ENDBRANCH  10  12
ENDBRANCH   1   8
BRANCH   1  23
ATOM     23  N   UNL     1       3.595  -1.868  -0.929  0.00  0.00    +0.390 N 
ATOM     24  H   UNL     1       4.449  -2.403  -0.885  0.00  0.00    -0.084 HD
ATOM     25  H   UNL     1       2.820  -2.447  -0.643  0.00  0.00    -0.084 HD
BRANCH  23  26
ATOM     26  C   UNL     1       3.378  -1.407  -2.307  0.00  0.00    -0.077 C 
BRANCH  26  27
ATOM     27  C   UNL     1       3.272  -2.615  -3.239  0.00  0.00    +0.014 C 
BRANCH  27  28
ATOM     28  C   UNL     1       3.049  -2.142  -4.652  0.00  0.00    -0.043 C 
ATOM     29  C   UNL     1       3.991  -1.952  -5.604  0.00  0.00    -0.001 A 
ATOM     30  C   UNL     1       5.449  -2.122  -5.608  0.00  0.00    +0.010 A 
ATOM     31  C   UNL     1       6.139  -1.846  -6.739  0.00  0.00    +0.001 A 
ATOM     32  C   UNL     1       5.498  -1.401  -7.903  0.00  0.00    +0.002 A 
ATOM     33  C   UNL     1       4.162  -1.221  -7.976  0.00  0.00    +0.026 A 
ATOM     34  C   UNL     1       3.338  -1.482  -6.847  0.00  0.00    +0.043 A 
ATOM     35  N   UNL     1       2.043  -1.385  -6.670  0.00  0.00    -0.380 N 
ATOM     36  C   UNL     1       1.727  -1.789  -5.295  0.00  0.00    +0.144 C 
ATOM     37  H   UNL     1       1.400  -1.098  -7.338  0.00  0.00    +0.160 HD
ENDBRANCH  27  28
ENDBRANCH  26  27
ENDBRANCH  23  26
ENDBRANCH   1  23
TORSDOF 8
