REMARK  Name = ZINC58380001
REMARK  13 active torsions:
REMARK  status: ('A' for Active; 'I' for Inactive)
REMARK    1  A    between atoms: C_1  and  C_2
REMARK    2  A    between atoms: C_2  and  C_3
REMARK    3  A    between atoms: C_3  and  C_5
REMARK    4  A    between atoms: C_3  and  C_6
REMARK    5  A    between atoms: C_9  and  C_12
REMARK    6  A    between atoms: C_12  and  C_14
REMARK    7  A    between atoms: C_12  and  N_17
REMARK    8  A    between atoms: C_14  and  C_15
REMARK    9  A    between atoms: C_14  and  C_16
REMARK   10  A    between atoms: N_17  and  C_18
REMARK   11  A    between atoms: C_18  and  C_19
REMARK   12  A    between atoms: N_21  and  C_22
REMARK   13  A    between atoms: C_27  and  C_28
REMARK                            x       y       z     vdW  Elec       q    Type
REMARK                         _______ _______ _______ _____ _____    ______ ____
ROOT
ATOM      1  N   UNL     1       1.215  -7.268   2.219  0.00  0.00    +0.389 N 
ATOM      2  H   UNL     1       0.485  -6.911   2.817  0.00  0.00    -0.084 HD
ATOM      3  H   UNL     1       1.195  -8.277   2.229  0.00  0.00    -0.084 HD
ENDROOT
BRANCH   1   4
ATOM      4  C   UNL     1       1.002  -6.788   0.847  0.00  0.00    -0.038 C 
BRANCH   4   8
ATOM      5  C   UNL     1       0.874  -2.519   0.835  0.00  0.00    -0.045 A 
ATOM      6  C   UNL     1       1.525  -3.193  -0.180  0.00  0.00    +0.004 A 
ATOM      7  C   UNL     1       1.567  -4.575  -0.176  0.00  0.00    +0.002 A 
ATOM      8  C   UNL     1       0.958  -5.282   0.843  0.00  0.00    -0.061 A 
ATOM      9  C   UNL     1       0.307  -4.607   1.859  0.00  0.00    +0.002 A 
ATOM     10  C   UNL     1       0.269  -3.225   1.857  0.00  0.00    +0.004 A 
BRANCH   5  11
ATOM     11  C   UNL     1       0.828  -1.012   0.831  0.00  0.00    +0.016 C 
ATOM     12  C   UNL     1       2.254  -0.459   0.868  0.00  0.00    +0.012 C 
BRANCH  11  14
ATOM     13  C   UNL     1      -0.032   0.994  -0.385  0.00  0.00    +0.004 C 
ATOM     14  C   UNL     1       0.125  -0.527  -0.439  0.00  0.00    +0.004 C 
ENDBRANCH  11  14
ENDBRANCH   5  11
ENDBRANCH   4   8
BRANCH   4  15
ATOM     15  C   UNL     1      -0.322  -7.339   0.314  0.00  0.00    -0.027 C 
ATOM     16  C   UNL     1      -0.550  -6.827  -1.110  0.00  0.00    +0.006 C 
ATOM     17  C   UNL     1      -0.271  -8.868   0.304  0.00  0.00    +0.006 C 
ENDBRANCH   4  15
ENDBRANCH   1   4
BRANCH   1  18
ATOM     18  C   UNL     1       2.520  -6.800   2.705  0.00  0.00    +0.016 C 
BRANCH  18  19
ATOM     19  C   UNL     1       2.757  -7.329   4.096  0.00  0.00    +0.200 C 
ATOM     20  O   UNL     1       1.922  -8.027   4.630  0.00  0.00    -0.278 OA
ATOM     21  N   UNL     1       3.898  -7.025   4.747  0.00  0.00    -0.286 N 
ATOM     22  H   UNL     1       4.535  -6.411   4.349  0.00  0.00    +0.155 HD
BRANCH  21  23
ATOM     23  C   UNL     1       4.163  -7.594   5.990  0.00  0.00    +0.045 A 
ATOM     24  C   UNL     1       3.151  -7.708   6.935  0.00  0.00    +0.024 A 
ATOM     25  C   UNL     1       3.416  -8.271   8.167  0.00  0.00    +0.002 A 
ATOM     26  C   UNL     1       4.689  -8.727   8.471  0.00  0.00    +0.001 A 
ATOM     27  C   UNL     1       5.705  -8.623   7.546  0.00  0.00    +0.015 A 
ATOM     28  C   UNL     1       5.451  -8.060   6.293  0.00  0.00    +0.058 A 
BRANCH  28  29
ATOM     29  C   UNL     1       6.532  -7.950   5.295  0.00  0.00    +0.243 C 
ATOM     30  O   UNL     1       6.316  -7.428   4.219  0.00  0.00    -0.270 OA
ATOM     31  N   UNL     1       7.760  -8.430   5.577  0.00  0.00    -0.325 N 
ATOM     32  H   UNL     1       7.932  -8.848   6.436  0.00  0.00    +0.145 HD
ATOM     33  H   UNL     1       8.471  -8.359   4.921  0.00  0.00    +0.145 HD
ENDBRANCH  28  29
ENDBRANCH  21  23
ENDBRANCH  18  19
ENDBRANCH   1  18
TORSDOF 9
