REMARK  Name = ZINC67419704
REMARK  13 active torsions:
REMARK  status: ('A' for Active; 'I' for Inactive)
REMARK    1  A    between atoms: C_1  and  C_2
REMARK    2  A    between atoms: C_2  and  C_3
REMARK    3  A    between atoms: C_2  and  C_4
REMARK    4  A    between atoms: C_4  and  C_5
REMARK    5  A    between atoms: C_5  and  C_6
REMARK    6  A    between atoms: N_8  and  N_9
REMARK    7  A    between atoms: N_12  and  C_13
REMARK    8  A    between atoms: C_13  and  C_14
REMARK    9  A    between atoms: C_14  and  C_15
REMARK   10  A    between atoms: C_15  and  N_16
REMARK   11  A    between atoms: C_20  and  C_22
REMARK   12  A    between atoms: N_24  and  C_25
REMARK   13  A    between atoms: N_24  and  C_26
REMARK                            x       y       z     vdW  Elec       q    Type
REMARK                         _______ _______ _______ _____ _____    ______ ____
ROOT
ATOM      1  N   UNL     1       4.859  -0.752  -3.775  0.00  0.00    -0.218 N 
ATOM      2  C   UNL     1       6.170  -0.492  -3.950  0.00  0.00    +0.316 C 
ATOM      3  O   UNL     1       6.740  -0.884  -4.950  0.00  0.00    -0.251 OA
ATOM      4  N   UNL     1       6.851   0.201  -3.015  0.00  0.00    -0.298 N 
ATOM      5  H   UNL     1       4.370  -1.251  -4.447  0.00  0.00    +0.174 HD
ATOM      6  H   UNL     1       6.397   0.514  -2.217  0.00  0.00    +0.150 HD
ENDROOT
BRANCH   1   9
ATOM      7  C   UNL     1       2.893  -0.559  -2.447  0.00  0.00    +0.229 C 
ATOM      8  O   UNL     1       2.281  -1.183  -3.288  0.00  0.00    -0.274 OA
ATOM      9  N   UNL     1       4.204  -0.300  -2.622  0.00  0.00    -0.233 N 
ATOM     10  H   UNL     1       4.693   0.200  -1.950  0.00  0.00    +0.173 HD
BRANCH   7  11
ATOM     11  C   UNL     1       2.187  -0.073  -1.207  0.00  0.00    +0.097 C 
BRANCH  11  12
ATOM     12  C   UNL     1       0.718  -0.497  -1.257  0.00  0.00    +0.012 C 
BRANCH  12  14
ATOM     13  C   UNL     1      -0.019   1.526   0.010  0.00  0.00    +0.007 C 
ATOM     14  C   UNL     1       0.002  -0.004   0.002  0.00  0.00    -0.017 C 
ATOM     15  C   UNL     1      -1.433  -0.534   0.013  0.00  0.00    +0.007 C 
ENDBRANCH  12  14
ENDBRANCH  11  12
ENDBRANCH   7  11
ENDBRANCH   1   9
BRANCH   4  16
ATOM     16  C   UNL     1       8.276   0.483  -3.205  0.00  0.00    +0.104 C 
BRANCH  16  17
ATOM     17  C   UNL     1       8.802   1.279  -2.009  0.00  0.00    +0.000 C 
BRANCH  17  18
ATOM     18  C   UNL     1      10.290   1.573  -2.208  0.00  0.00    -0.076 C 
BRANCH  18  19
ATOM     19  N   UNL     1      10.796   2.337  -1.059  0.00  0.00    +0.387 N 
ATOM     20  C   UNL     1      10.156   3.669  -1.027  0.00  0.00    -0.078 C 
ATOM     21  C   UNL     1      11.264   4.628  -0.525  0.00  0.00    -0.020 C 
ATOM     22  C   UNL     1      12.524   4.038  -1.211  0.00  0.00    -0.008 C 
ATOM     23  C   UNL     1      12.254   2.519  -1.188  0.00  0.00    +0.019 C 
ATOM     24  H   UNL     1      10.590   1.842  -0.204  0.00  0.00    -0.081 HD
BRANCH  23  25
ATOM     25  C   UNL     1      12.954   1.892  -0.010  0.00  0.00    +0.202 C 
ATOM     26  O   UNL     1      12.309   1.343   0.858  0.00  0.00    -0.277 OA
ATOM     27  N   UNL     1      14.298   1.941   0.079  0.00  0.00    -0.309 N 
ATOM     28  C   UNL     1      14.980   1.331   1.223  0.00  0.00    +0.131 C 
ATOM     29  C   UNL     1      15.078   2.604  -0.970  0.00  0.00    +0.131 C 
ENDBRANCH  23  25
ENDBRANCH  18  19
ENDBRANCH  17  18
ENDBRANCH  16  17
ENDBRANCH   4  16
TORSDOF 9
