REMARK  Name = ZINC39326567
REMARK  7 active torsions:
REMARK  status: ('A' for Active; 'I' for Inactive)
REMARK    1  A    between atoms: C_1  and  C_2
REMARK    2  A    between atoms: C_6  and  N_8
REMARK    3  A    between atoms: C_9  and  C_11
REMARK    4  A    between atoms: N_17  and  N_18
REMARK    5  A    between atoms: C_19  and  C_20
REMARK    6  A    between atoms: C_19  and  C_22
REMARK    7  A    between atoms: N_24  and  C_25
REMARK                            x       y       z     vdW  Elec       q    Type
REMARK                         _______ _______ _______ _____ _____    ______ ____
ROOT
ATOM      1  C   UNL     1      -0.132  -4.899   3.679  0.00  0.00    +0.226 C 
ATOM      2  C   UNL     1      -1.563  -4.920   4.181  0.00  0.00    +0.160 C 
ATOM      3  N   UNL     1      -1.914  -6.204   4.208  0.00  0.00    -0.335 N 
ATOM      4  C   UNL     1      -0.953  -6.995   3.811  0.00  0.00    +0.157 C 
ATOM      5  N   UNL     1       0.169  -6.328   3.468  0.00  0.00    -0.319 N 
ATOM      6  N   UNL     1      -2.308  -3.877   4.521  0.00  0.00    -0.132 NA
ATOM      7  H   UNL     1       1.002  -6.708   3.148  0.00  0.00    +0.148 HD
ATOM      8  H   UNL     1      -2.787  -6.518   4.492  0.00  0.00    +0.168 HD
ENDROOT
BRANCH   1  10
ATOM      9  N   UNL     1       0.054  -2.792   2.396  0.00  0.00    -0.284 N 
ATOM     10  C   UNL     1      -0.032  -4.137   2.382  0.00  0.00    +0.245 C 
ATOM     11  O   UNL     1      -0.030  -4.734   1.326  0.00  0.00    -0.273 OA
ATOM     12  H   UNL     1       0.128  -2.320   3.240  0.00  0.00    +0.155 HD
BRANCH   9  18
ATOM     13  C   UNL     1       1.535   1.081  -0.245  0.00  0.00    +0.044 C 
ATOM     14  C   UNL     1       0.747  -0.197  -0.114  0.00  0.00    -0.049 A 
ATOM     15  C   UNL     1       0.006  -0.664  -1.185  0.00  0.00    +0.003 A 
ATOM     16  C   UNL     1      -0.718  -1.836  -1.069  0.00  0.00    +0.002 A 
ATOM     17  C   UNL     1      -0.704  -2.544   0.117  0.00  0.00    +0.023 A 
ATOM     18  C   UNL     1       0.038  -2.078   1.194  0.00  0.00    +0.034 A 
ATOM     19  C   UNL     1       0.769  -0.903   1.073  0.00  0.00    +0.026 A 
ENDBRANCH   9  18
ENDBRANCH   1  10
BRANCH   6  20
ATOM     20  N   UNL     1      -3.517  -4.056   4.933  0.00  0.00    -0.132 NA
ATOM     21  C   UNL     1      -4.261  -3.015   5.274  0.00  0.00    +0.223 C 
BRANCH  21  22
ATOM     22  C   UNL     1      -3.752  -1.650   5.071  0.00  0.00    +0.275 C 
ATOM     23  O   UNL     1      -2.613  -1.477   4.681  0.00  0.00    -0.268 OA
ATOM     24  N   UNL     1      -4.548  -0.591   5.317  0.00  0.00    -0.313 N 
ATOM     25  C   UNL     1      -4.080   0.764   5.012  0.00  0.00    +0.128 C 
ATOM     26  H   UNL     1      -5.431  -0.725   5.697  0.00  0.00    +0.149 HD
ENDBRANCH  21  22
BRANCH  21  27
ATOM     27  C   UNL     1      -5.561  -3.218   5.839  0.00  0.00    +0.126 C 
ATOM     28  N   UNL     1      -6.592  -3.379   6.287  0.00  0.00    -0.189 NA
ENDBRANCH  21  27
ENDBRANCH   6  20
TORSDOF 5
