REMARK  Name = ZINC11902148
REMARK  3 active torsions:
REMARK  status: ('A' for Active; 'I' for Inactive)
REMARK    1  A    between atoms: C_5  and  N_7
REMARK    2  A    between atoms: C_13  and  C_15
REMARK    3  A    between atoms: C_21  and  C_23
REMARK                            x       y       z     vdW  Elec       q    Type
REMARK                         _______ _______ _______ _____ _____    ______ ____
ROOT
ATOM      1  N   UNL     1       0.882   6.725  -0.655  0.00  0.00    -0.325 N 
ATOM      2  C   UNL     1      -0.072   7.834  -0.791  0.00  0.00    +0.124 C 
ATOM      3  C   UNL     1      -1.172   7.691   0.265  0.00  0.00    +0.127 C 
ATOM      4  N   UNL     1      -1.760   6.348   0.149  0.00  0.00    -0.293 N 
ATOM      5  C   UNL     1      -0.854   5.189   0.146  0.00  0.00    +0.127 C 
ATOM      6  C   UNL     1       0.235   5.431  -0.912  0.00  0.00    +0.124 C 
ATOM      7  C   UNL     1      -3.094   6.182   0.052  0.00  0.00    +0.264 C 
ATOM      8  O   UNL     1      -3.820   7.151  -0.071  0.00  0.00    -0.268 OA
ENDROOT
BRANCH   7   9
ATOM      9  C   UNL     1      -3.670   4.837   0.097  0.00  0.00    +0.117 A 
ATOM     10  C   UNL     1      -3.045   3.853   0.790  0.00  0.00    +0.080 A 
ATOM     11  S   UNL     1      -4.133   2.463   0.524  0.00  0.00    -0.057 S 
ATOM     12  C   UNL     1      -5.339   3.288  -0.488  0.00  0.00    +0.178 A 
ATOM     13  N   UNL     1      -4.856   4.566  -0.571  0.00  0.00    -0.289 N 
ATOM     14  C   UNL     1      -5.772   5.248  -1.362  0.00  0.00    +0.122 A 
ATOM     15  C   UNL     1      -6.747   4.373  -1.707  0.00  0.00    +0.090 A 
ATOM     16  N   UNL     1      -6.450   3.178  -1.157  0.00  0.00    -0.221 NA
BRANCH  15  17
ATOM     17  C   UNL     1      -7.932   4.675  -2.548  0.00  0.00    +0.002 A 
ATOM     18  C   UNL     1      -8.123   5.960  -3.051  0.00  0.00    +0.013 A 
ATOM     19  C   UNL     1      -9.229   6.238  -3.828  0.00  0.00    +0.039 A 
ATOM     20  C   UNL     1     -10.149   5.240  -4.107  0.00  0.00    +0.123 A 
ATOM     21  C   UNL     1      -9.964   3.961  -3.609  0.00  0.00    +0.039 A 
ATOM     22  C   UNL     1      -8.861   3.675  -2.832  0.00  0.00    +0.013 A 
ATOM     23  F   UNL     1     -11.231   5.516  -4.868  0.00  0.00    -0.205 F 
ENDBRANCH  15  17
ENDBRANCH   7   9
BRANCH   1  28
ATOM     24  C   UNL     1       3.882   8.209  -2.176  0.00  0.00    +0.002 A 
ATOM     25  C   UNL     1       4.174   7.272  -3.149  0.00  0.00    +0.003 A 
ATOM     26  C   UNL     1       3.376   6.152  -3.297  0.00  0.00    +0.040 A 
ATOM     27  C   UNL     1       2.283   5.967  -2.472  0.00  0.00    +0.144 A 
ATOM     28  C   UNL     1       1.987   6.908  -1.492  0.00  0.00    +0.065 A 
ATOM     29  C   UNL     1       2.788   8.033  -1.350  0.00  0.00    +0.026 A 
ATOM     30  F   UNL     1       1.503   4.873  -2.617  0.00  0.00    -0.204 F 
ENDBRANCH   1  28
TORSDOF 3
