REMARK  Name = ZINC53136835
REMARK  8 active torsions:
REMARK  status: ('A' for Active; 'I' for Inactive)
REMARK    1  A    between atoms: C_1  and  C_2
REMARK    2  A    between atoms: C_2  and  N_3
REMARK    3  A    between atoms: N_3  and  C_4
REMARK    4  A    between atoms: N_3  and  C_11
REMARK    5  A    between atoms: C_4  and  C_5
REMARK    6  A    between atoms: C_11  and  C_12
REMARK    7  A    between atoms: N_14  and  C_15
REMARK    8  A    between atoms: C_20  and  C_21
REMARK                            x       y       z     vdW  Elec       q    Type
REMARK                         _______ _______ _______ _____ _____    ______ ____
ROOT
ATOM      1  C   UNL     1      -0.090   1.482   2.249  0.00  0.00    +0.201 C 
ATOM      2  O   UNL     1       0.416   2.100   1.336  0.00  0.00    -0.278 OA
ATOM      3  N   UNL     1      -0.747   2.140   3.225  0.00  0.00    -0.286 N 
ATOM      4  H   UNL     1      -1.091   1.654   3.991  0.00  0.00    +0.155 HD
ENDROOT
BRANCH   3   5
ATOM      5  C   UNL     1      -0.932   3.517   3.134  0.00  0.00    +0.045 A 
ATOM      6  C   UNL     1      -1.132   4.114   1.897  0.00  0.00    +0.024 A 
ATOM      7  C   UNL     1      -1.314   5.480   1.809  0.00  0.00    +0.002 A 
ATOM      8  C   UNL     1      -1.300   6.264   2.951  0.00  0.00    +0.001 A 
ATOM      9  C   UNL     1      -1.104   5.689   4.188  0.00  0.00    +0.015 A 
ATOM     10  C   UNL     1      -0.923   4.308   4.293  0.00  0.00    +0.058 A 
BRANCH  10  11
ATOM     11  C   UNL     1      -0.718   3.685   5.615  0.00  0.00    +0.243 C 
ATOM     12  O   UNL     1      -0.457   2.500   5.694  0.00  0.00    -0.270 OA
ATOM     13  N   UNL     1      -0.820   4.429   6.734  0.00  0.00    -0.325 N 
ATOM     14  H   UNL     1      -1.028   5.374   6.670  0.00  0.00    +0.145 HD
ATOM     15  H   UNL     1      -0.686   4.019   7.603  0.00  0.00    +0.145 HD
ENDBRANCH  10  11
ENDBRANCH   3   5
BRANCH   1  16
ATOM     16  C   UNL     1       0.015  -0.021   2.292  0.00  0.00    +0.019 C 
BRANCH  16  17
ATOM     17  N   UNL     1       0.690  -0.499   1.078  0.00  0.00    +0.388 N 
ATOM     18  H   UNL     1       0.225  -0.123   0.265  0.00  0.00    -0.081 HD
BRANCH  17  20
ATOM     19  C   UNL     1      -0.812  -2.423   0.878  0.00  0.00    -0.017 C 
ATOM     20  C   UNL     1       0.639  -1.966   1.036  0.00  0.00    -0.081 C 
ENDBRANCH  17  20
BRANCH  17  21
ATOM     21  C   UNL     1       2.091  -0.057   1.090  0.00  0.00    -0.035 C 
BRANCH  21  22
ATOM     22  C   UNL     1       2.750  -0.441  -0.210  0.00  0.00    -0.026 A 
ATOM     23  C   UNL     1       2.840   0.266  -1.362  0.00  0.00    +0.010 A 
ATOM     24  C   UNL     1       3.500  -0.292  -2.442  0.00  0.00    +0.023 A 
ATOM     25  C   UNL     1       4.037  -1.531  -2.314  0.00  0.00    +0.055 A 
ATOM     26  S   UNL     1       3.620  -1.943  -0.628  0.00  0.00    -0.088 S 
ATOM     27 BR   UNL     1       4.988  -2.554  -3.589  0.00  0.00    -0.043 Br
ENDBRANCH  21  22
ENDBRANCH  17  21
ENDBRANCH  16  17
ENDBRANCH   1  16
TORSDOF 7
