REMARK  Name = ZINC40408593
REMARK  13 active torsions:
REMARK  status: ('A' for Active; 'I' for Inactive)
REMARK    1  A    between atoms: C_1  and  C_2
REMARK    2  A    between atoms: C_2  and  C_3
REMARK    3  A    between atoms: C_2  and  C_4
REMARK    4  A    between atoms: C_4  and  C_5
REMARK    5  A    between atoms: C_5  and  N_6
REMARK    6  A    between atoms: N_6  and  C_7
REMARK    7  A    between atoms: N_6  and  C_24
REMARK    8  A    between atoms: C_7  and  C_8
REMARK    9  A    between atoms: C_24  and  C_25
REMARK   10  A    between atoms: C_25  and  C_27
REMARK   11  A    between atoms: C_25  and  O_31
REMARK   12  A    between atoms: C_27  and  C_28
REMARK   13  A    between atoms: C_28  and  C_29
REMARK                            x       y       z     vdW  Elec       q    Type
REMARK                         _______ _______ _______ _____ _____    ______ ____
ROOT
ATOM      1  C   UNL     1      -3.566  -2.197  -1.175  0.00  0.00    -0.003 C 
ENDROOT
BRANCH   1   2
ATOM      2  C   UNL     1      -5.021  -2.510  -0.937  0.00  0.00    +0.094 A 
ATOM      3  N   UNL     1      -5.941  -2.150  -1.868  0.00  0.00    -0.312 N 
ATOM      4  H   UNL     1      -5.649  -1.696  -2.674  0.00  0.00    +0.170 HD
ATOM      5  C   UNL     1      -7.251  -2.410  -1.695  0.00  0.00    +0.260 A 
ATOM      6  O   UNL     1      -8.065  -2.081  -2.540  0.00  0.00    -0.267 OA
ATOM      7  C   UNL     1      -7.671  -3.082  -0.500  0.00  0.00    +0.075 A 
ATOM      8  C   UNL     1      -9.031  -3.463  -0.107  0.00  0.00    -0.023 A 
ATOM      9  C   UNL     1      -9.165  -4.088   1.081  0.00  0.00    -0.004 A 
ATOM     10  S   UNL     1      -7.517  -4.214   1.727  0.00  0.00    -0.073 S 
ATOM     11  C   UNL     1      -6.650  -3.415   0.401  0.00  0.00    +0.116 A 
ATOM     12  N   UNL     1      -5.373  -3.129   0.159  0.00  0.00    -0.229 NA
ATOM     13  C   UNL     1     -10.426  -4.565   1.731  0.00  0.00    +0.043 C 
ATOM     14  C   UNL     1     -11.244  -5.373   0.716  0.00  0.00    +0.005 C 
ATOM     15  C   UNL     1     -12.167  -4.415  -0.030  0.00  0.00    +0.001 C 
ATOM     16  C   UNL     1     -11.494  -3.052  -0.180  0.00  0.00    +0.005 C 
ATOM     17  C   UNL     1     -10.224  -3.170  -1.012  0.00  0.00    +0.037 C 
ENDBRANCH   1   2
BRANCH   1  18
ATOM     18  N   UNL     1      -2.753  -2.813  -0.117  0.00  0.00    +0.386 N 
ATOM     19  H   UNL     1      -3.110  -2.537   0.785  0.00  0.00    -0.081 HD
BRANCH  18  20
ATOM     20  C   UNL     1      -1.360  -2.369  -0.250  0.00  0.00    -0.078 C 
BRANCH  20  21
ATOM     21  C   UNL     1      -1.278  -0.863   0.008  0.00  0.00    -0.016 C 
BRANCH  21  23
ATOM     22  C   UNL     1       0.265   1.099   0.134  0.00  0.00    +0.007 C 
ATOM     23  C   UNL     1       0.188  -0.423   0.001  0.00  0.00    -0.019 C 
ATOM     24  C   UNL     1       0.922  -1.076   1.174  0.00  0.00    +0.007 C 
ENDBRANCH  21  23
ENDBRANCH  20  21
ENDBRANCH  18  20
BRANCH  18  25
ATOM     25  C   UNL     1      -2.815  -4.275  -0.242  0.00  0.00    -0.047 C 
BRANCH  25  26
ATOM     26  C   UNL     1      -2.072  -4.919   0.931  0.00  0.00    +0.098 C 
BRANCH  26  27
ATOM     27  O   UNL     1      -2.752  -4.614   2.150  0.00  0.00    -0.394 OA
ATOM     28  H   UNL     1      -3.665  -4.932   2.182  0.00  0.00    +0.210 HD
ENDBRANCH  26  27
BRANCH  26  29
ATOM     29  C   UNL     1      -2.029  -6.436   0.737  0.00  0.00    +0.033 C 
BRANCH  29  30
ATOM     30  C   UNL     1      -1.180  -7.067   1.842  0.00  0.00    +0.029 C 
BRANCH  30  31
ATOM     31  C   UNL     1      -1.138  -8.562   1.651  0.00  0.00    -0.034 C 
ATOM     32  C   UNL     1       0.015  -9.178   1.565  0.00  0.00    +0.004 C 
ENDBRANCH  30  31
ENDBRANCH  29  30
ENDBRANCH  26  29
ENDBRANCH  25  26
ENDBRANCH  18  25
ENDBRANCH   1  18
TORSDOF 11
