REMARK  Name = ZINC07661255
REMARK  9 active torsions:
REMARK  status: ('A' for Active; 'I' for Inactive)
REMARK    1  A    between atoms: C_1  and  C_2
REMARK    2  A    between atoms: C_2  and  C_3
REMARK    3  A    between atoms: C_6  and  C_9
REMARK    4  A    between atoms: C_9  and  C_11
REMARK    5  A    between atoms: C_9  and  N_51
REMARK    6  A    between atoms: C_16  and  C_17
REMARK    7  A    between atoms: C_16  and  N_51
REMARK    8  A    between atoms: N_19  and  C_20
REMARK    9  A    between atoms: C_21  and  C_28
REMARK                            x       y       z     vdW  Elec       q    Type
REMARK                         _______ _______ _______ _____ _____    ______ ____
ROOT
ATOM      1  N   UNL     1      -0.724   1.992  -1.189  0.00  0.00    +0.392 N 
ATOM      2  H   UNL     1      -0.529   1.364  -1.977  0.00  0.00    -0.084 HD
ATOM      3  H   UNL     1      -0.393   2.938  -1.415  0.00  0.00    -0.084 HD
ENDROOT
BRANCH   1   4
ATOM      4  C   UNL     1      -0.018   1.503   0.010  0.00  0.00    -0.003 C 
BRANCH   4   8
ATOM      5  C   UNL     1       3.990   2.981  -0.020  0.00  0.00    -0.048 A 
ATOM      6  C   UNL     1       3.280   2.930   1.166  0.00  0.00    +0.004 A 
ATOM      7  C   UNL     1       1.983   2.452   1.175  0.00  0.00    +0.002 A 
ATOM      8  C   UNL     1       1.395   2.024  -0.000  0.00  0.00    -0.057 A 
ATOM      9  C   UNL     1       2.107   2.070  -1.185  0.00  0.00    +0.002 A 
ATOM     10  C   UNL     1       3.402   2.553  -1.196  0.00  0.00    +0.004 A 
BRANCH   5  12
ATOM     11  C   UNL     1       6.375   2.343   0.205  0.00  0.00    +0.009 C 
ATOM     12  C   UNL     1       5.404   3.501  -0.030  0.00  0.00    +0.032 C 
ENDBRANCH   5  12
ENDBRANCH   4   8
BRANCH   4  13
ATOM     13  C   UNL     1       0.002  -0.004   0.002  0.00  0.00    -0.020 A 
ATOM     14  C   UNL     1      -0.154  -0.866   1.037  0.00  0.00    +0.010 A 
ATOM     15  C   UNL     1      -0.101  -2.225   0.791  0.00  0.00    +0.008 A 
ATOM     16  C   UNL     1       0.116  -2.656  -0.475  0.00  0.00    +0.045 A 
ATOM     17  S   UNL     1       0.246  -1.118  -1.372  0.00  0.00    -0.103 S 
ENDBRANCH   4  13
ENDBRANCH   1   4
BRANCH   1  18
ATOM     18  C   UNL     1      -2.179   2.031  -0.947  0.00  0.00    +0.016 C 
BRANCH  18  19
ATOM     19  C   UNL     1      -2.872   2.534  -2.187  0.00  0.00    +0.201 C 
ATOM     20  O   UNL     1      -2.223   2.829  -3.168  0.00  0.00    -0.278 OA
ATOM     21  N   UNL     1      -4.214   2.657  -2.205  0.00  0.00    -0.281 N 
ATOM     22  H   UNL     1      -4.734   2.421  -1.421  0.00  0.00    +0.155 HD
BRANCH  21  23
ATOM     23  C   UNL     1      -4.853   3.120  -3.347  0.00  0.00    +0.090 A 
ATOM     24  C   UNL     1      -6.207   3.306  -3.559  0.00  0.00    +0.084 A 
ATOM     25  C   UNL     1      -6.626   3.815  -4.864  0.00  0.00    -0.018 A 
ATOM     26  C   UNL     1      -5.626   4.040  -5.736  0.00  0.00    -0.004 A 
ATOM     27  S   UNL     1      -4.149   3.597  -4.855  0.00  0.00    -0.077 S 
ATOM     28  C   UNL     1      -6.134   4.558  -7.055  0.00  0.00    +0.043 C 
ATOM     29  C   UNL     1      -7.570   5.042  -6.755  0.00  0.00    +0.010 C 
ATOM     30  C   UNL     1      -7.950   4.170  -5.543  0.00  0.00    +0.037 C 
BRANCH  24  31
ATOM     31  C   UNL     1      -7.165   3.016  -2.534  0.00  0.00    +0.102 C 
ATOM     32  N   UNL     1      -7.925   2.786  -1.722  0.00  0.00    -0.191 NA
ENDBRANCH  24  31
ENDBRANCH  21  23
ENDBRANCH  18  19
ENDBRANCH   1  18
TORSDOF 8
