REMARK  Name = ZINC15941321
REMARK  10 active torsions:
REMARK  status: ('A' for Active; 'I' for Inactive)
REMARK    1  A    between atoms: C_1  and  C_2
REMARK    2  A    between atoms: C_2  and  C_3
REMARK    3  A    between atoms: C_2  and  N_4
REMARK    4  A    between atoms: N_4  and  C_5
REMARK    5  A    between atoms: N_4  and  C_29
REMARK    6  A    between atoms: C_5  and  C_6
REMARK    7  A    between atoms: C_6  and  N_7
REMARK    8  A    between atoms: C_8  and  C_10
REMARK    9  A    between atoms: C_13  and  N_16
REMARK   10  A    between atoms: C_29  and  C_30
REMARK                            x       y       z     vdW  Elec       q    Type
REMARK                         _______ _______ _______ _____ _____    ______ ____
ROOT
ATOM      1  C   UNL     1       3.190  -5.474  -0.760  0.00  0.00    +0.037 A 
ATOM      2  C   UNL     1       2.617  -6.306   0.208  0.00  0.00    +0.015 A 
ATOM      3  C   UNL     1       2.856  -7.649   0.182  0.00  0.00    +0.028 A 
ATOM      4  C   UNL     1       3.675  -8.195  -0.814  0.00  0.00    +0.067 A 
ATOM      5  C   UNL     1       4.248  -7.362  -1.783  0.00  0.00    +0.028 A 
ATOM      6  C   UNL     1       4.004  -6.020  -1.759  0.00  0.00    +0.015 A 
ENDROOT
BRANCH   4   7
ATOM      7  N   UNL     1       3.915  -9.537  -0.840  0.00  0.00    -0.226 NA
ATOM      8  C   UNL     1       3.848 -10.195  -1.978  0.00  0.00    +0.155 C 
ATOM      9  N   UNL     1       4.054 -11.540  -2.185  0.00  0.00    -0.318 N 
ATOM     10  C   UNL     1       3.866 -12.078  -3.521  0.00  0.00    +0.108 C 
ATOM     11  C   UNL     1       4.821 -13.259  -3.780  0.00  0.00    +0.189 C 
ATOM     12  S   UNL     1       6.229 -12.475  -4.662  0.00  0.00    -0.028 S 
ATOM     13  O   UNL     1       6.309 -13.013  -5.975  0.00  0.00    -0.174 OA
ATOM     14  O   UNL     1       7.375 -12.507  -3.823  0.00  0.00    -0.174 OA
ATOM     15  C   UNL     1       5.606 -10.745  -4.761  0.00  0.00    +0.182 C 
ATOM     16  C   UNL     1       4.099 -10.969  -4.590  0.00  0.00    +0.097 C 
ATOM     17  S   UNL     1       3.463  -9.541  -3.598  0.00  0.00    -0.084 S 
ATOM     18  H   UNL     1       4.318 -12.118  -1.452  0.00  0.00    +0.148 HD
ENDBRANCH   4   7
BRANCH   1  20
ATOM     19  N   UNL     1       2.147  -3.498   0.231  0.00  0.00    -0.313 N 
ATOM     20  C   UNL     1       2.931  -4.024  -0.732  0.00  0.00    +0.244 C 
ATOM     21  O   UNL     1       3.424  -3.301  -1.576  0.00  0.00    -0.270 OA
ATOM     22  H   UNL     1       1.753  -4.074   0.904  0.00  0.00    +0.149 HD
BRANCH  19  23
ATOM     23  C   UNL     1       1.889  -2.056   0.259  0.00  0.00    +0.086 C 
BRANCH  23  24
ATOM     24  C   UNL     1       0.977  -1.724   1.442  0.00  0.00    -0.059 C 
BRANCH  24  25
ATOM     25  N   UNL     1       0.663  -0.289   1.430  0.00  0.00    +0.387 N 
ATOM     26  H   UNL     1       1.520   0.242   1.387  0.00  0.00    -0.081 HD
BRANCH  25  28
ATOM     27  C   UNL     1      -1.632  -0.277   0.577  0.00  0.00    -0.014 C 
ATOM     28  C   UNL     1      -0.166   0.022   0.258  0.00  0.00    -0.074 C 
ATOM     29  C   UNL     1      -0.012   1.502  -0.097  0.00  0.00    -0.014 C 
ENDBRANCH  25  28
BRANCH  25  30
ATOM     30  C   UNL     1      -0.069   0.062   2.655  0.00  0.00    -0.003 C 
BRANCH  30  31
ATOM     31  C   UNL     1      -0.213   1.559   2.742  0.00  0.00    +0.089 A 
ATOM     32  C   UNL     1      -1.303   2.266   2.392  0.00  0.00    +0.042 A 
ATOM     33  C   UNL     1      -1.005   3.626   2.636  0.00  0.00    +0.041 A 
ATOM     34  C   UNL     1       0.250   3.669   3.120  0.00  0.00    +0.195 A 
ATOM     35  O   UNL     1       0.722   2.414   3.187  0.00  0.00    -0.470 OA
ENDBRANCH  30  31
ENDBRANCH  25  30
ENDBRANCH  24  25
ENDBRANCH  23  24
ENDBRANCH  19  23
ENDBRANCH   1  20
TORSDOF 8
