REMARK  Name = ZINC43735934
REMARK  10 active torsions:
REMARK  status: ('A' for Active; 'I' for Inactive)
REMARK    1  A    between atoms: C_1  and  C_2
REMARK    2  A    between atoms: C_2  and  C_3
REMARK    3  A    between atoms: C_4  and  O_38
REMARK    4  A    between atoms: C_7  and  C_9
REMARK    5  A    between atoms: N_10  and  C_11
REMARK    6  A    between atoms: C_11  and  C_12
REMARK    7  A    between atoms: C_12  and  C_14
REMARK    8  A    between atoms: C_14  and  O_37
REMARK    9  A    between atoms: C_19  and  C_36
REMARK   10  A    between atoms: C_34  and  C_35
REMARK                            x       y       z     vdW  Elec       q    Type
REMARK                         _______ _______ _______ _____ _____    ______ ____
ROOT
ATOM      1  C   UNL     1       6.537  -1.482  -5.208  0.00  0.00    +0.131 C 
ATOM      2  C   UNL     1       7.614  -2.490  -4.760  0.00  0.00    +0.043 C 
ATOM      3  C   UNL     1       8.971  -1.755  -4.853  0.00  0.00    +0.008 C 
ATOM      4  C   UNL     1       8.581  -0.268  -4.764  0.00  0.00    +0.002 C 
ATOM      5  C   UNL     1       7.292  -0.184  -5.598  0.00  0.00    +0.007 C 
ATOM      6  C   UNL     1       7.611  -0.294  -7.092  0.00  0.00    +0.010 C 
ATOM      7  C   UNL     1       8.643   0.753  -7.499  0.00  0.00    +0.005 C 
ATOM      8  C   UNL     1       9.947   0.482  -6.740  0.00  0.00    +0.002 C 
ATOM      9  C   UNL     1       9.673   0.649  -5.261  0.00  0.00    -0.003 C 
ATOM     10  C   UNL     1      10.963   0.402  -4.476  0.00  0.00    +0.008 C 
ATOM     11  C   UNL     1      12.025   1.435  -4.871  0.00  0.00    +0.032 C 
ATOM     12  C   UNL     1      12.196   1.363  -6.379  0.00  0.00    -0.060 C 
ATOM     13  C   UNL     1      13.414   1.181  -6.881  0.00  0.00    +0.046 C 
ATOM     14  C   UNL     1      13.575   1.069  -8.338  0.00  0.00    +0.156 C 
ATOM     15  O   UNL     1      14.617   1.350  -8.892  0.00  0.00    -0.293 OA
ATOM     16  C   UNL     1      12.361   0.583  -9.106  0.00  0.00    +0.080 C 
ATOM     17  C   UNL     1      11.178   1.464  -8.708  0.00  0.00    +0.019 C 
ATOM     18  C   UNL     1      11.000   1.496  -7.189  0.00  0.00    -0.007 C 
ATOM     19  C   UNL     1      10.420   2.881  -6.894  0.00  0.00    +0.016 C 
ATOM     20  C   UNL     1       6.481   1.072  -5.271  0.00  0.00    +0.015 C 
ENDROOT
BRANCH   1  21
ATOM     21  C   UNL     1       5.584  -1.206  -4.074  0.00  0.00    +0.184 C 
ATOM     22  O   UNL     1       5.967  -1.279  -2.931  0.00  0.00    -0.292 OA
BRANCH  21  23
ATOM     23  C   UNL     1       4.152  -0.840  -4.367  0.00  0.00    +0.190 C 
BRANCH  23  31
ATOM     24  C   UNL     1       0.752  -2.126  -1.173  0.00  0.00    +0.060 A 
ATOM     25  C   UNL     1       1.780  -1.298  -1.460  0.00  0.00    +0.159 A 
ATOM     26  C   UNL     1       2.426  -1.410  -2.776  0.00  0.00    +0.081 A 
ATOM     27  C   UNL     1       1.933  -2.388  -3.683  0.00  0.00    +0.050 A 
ATOM     28  C   UNL     1       0.902  -3.171  -3.310  0.00  0.00    +0.015 A 
ATOM     29  N   UNL     1       0.328  -3.049  -2.085  0.00  0.00    -0.359 N 
ATOM     30  C   UNL     1       0.379  -4.208  -4.270  0.00  0.00    +0.063 C 
ATOM     31  N   UNL     1       3.436  -0.622  -3.107  0.00  0.00    -0.375 N 
ATOM     32  H   UNL     1       3.703   0.099  -2.516  0.00  0.00    +0.160 HD
ATOM     33  H   UNL     1      -0.409  -3.634  -1.852  0.00  0.00    +0.165 HD
BRANCH  24  35
ATOM     34  C   UNL     1      -1.165  -1.139   0.052  0.00  0.00    +0.010 C 
ATOM     35  C   UNL     1       0.071  -2.034   0.168  0.00  0.00    +0.053 C 
ENDBRANCH  24  35
BRANCH  25  36
ATOM     36  O   UNL     1       2.208  -0.380  -0.551  0.00  0.00    -0.503 OA
ATOM     37  H   UNL     1       2.948   0.161  -0.858  0.00  0.00    +0.292 HD
ENDBRANCH  25  36
ENDBRANCH  23  31
ENDBRANCH  21  23
ENDBRANCH   1  21
BRANCH   1  38
ATOM     38  O   UNL     1       5.824  -1.994  -6.335  0.00  0.00    -0.380 OA
ATOM     39  H   UNL     1       5.342  -2.813  -6.157  0.00  0.00    +0.211 HD
ENDBRANCH   1  38
TORSDOF 6
