REMARK  Name = ZINC66244705
REMARK  13 active torsions:
REMARK  status: ('A' for Active; 'I' for Inactive)
REMARK    1  A    between atoms: C_1  and  C_2
REMARK    2  A    between atoms: C_6  and  C_28
REMARK    3  A    between atoms: C_7  and  O_8
REMARK    4  A    between atoms: O_8  and  C_9
REMARK    5  A    between atoms: C_9  and  C_10
REMARK    6  A    between atoms: C_10  and  C_12
REMARK    7  A    between atoms: C_10  and  O_27
REMARK    8  A    between atoms: C_12  and  N_13
REMARK    9  A    between atoms: N_16  and  C_17
REMARK   10  A    between atoms: C_17  and  C_18
REMARK   11  A    between atoms: C_18  and  C_19
REMARK   12  A    between atoms: C_22  and  O_25
REMARK   13  A    between atoms: O_25  and  C_26
REMARK                            x       y       z     vdW  Elec       q    Type
REMARK                         _______ _______ _______ _____ _____    ______ ____
ROOT
ATOM      1  N   UNL     1      -2.203   1.958   6.213  0.00  0.00    -0.355 N 
ATOM      2  C   UNL     1      -3.285   2.267   7.003  0.00  0.00    +0.169 C 
ATOM      3  N   UNL     1      -4.484   1.919   6.630  0.00  0.00    -0.371 N 
ATOM      4  N   UNL     1      -3.102   2.942   8.186  0.00  0.00    -0.357 N 
ATOM      5  H   UNL     1      -1.310   2.217   6.491  0.00  0.00    +0.162 HD
ATOM      6  H   UNL     1      -5.248   2.137   7.186  0.00  0.00    +0.159 HD
ATOM      7  H   UNL     1      -2.210   3.201   8.464  0.00  0.00    +0.162 HD
ATOM      8  H   UNL     1      -4.613   1.442   5.795  0.00  0.00    +0.159 HD
ENDROOT
BRANCH   1   9
ATOM      9  C   UNL     1      -2.397   1.238   4.953  0.00  0.00    +0.150 C 
BRANCH   9  10
ATOM     10  C   UNL     1      -1.043   1.022   4.274  0.00  0.00    +0.171 C 
BRANCH  10  11
ATOM     11  O   UNL     1      -0.435   2.289   4.011  0.00  0.00    -0.387 OA
ATOM     12  H   UNL     1      -0.956   2.862   3.432  0.00  0.00    +0.210 HD
ENDBRANCH  10  11
BRANCH  10  13
ATOM     13  C   UNL     1      -1.246   0.270   2.957  0.00  0.00    +0.262 C 
BRANCH  13  14
ATOM     14  O   UNL     1       0.025  -0.033   2.381  0.00  0.00    -0.489 OA
BRANCH  14  21
ATOM     15  C   UNL     1      -0.018   1.503   0.010  0.00  0.00    +0.047 C 
ATOM     16  C   UNL     1       0.002  -0.004   0.002  0.00  0.00    -0.009 A 
ATOM     17  C   UNL     1       0.006  -0.689  -1.198  0.00  0.00    +0.007 A 
ATOM     18  C   UNL     1       0.024  -2.071  -1.206  0.00  0.00    +0.001 A 
ATOM     19  C   UNL     1       0.040  -2.772  -0.014  0.00  0.00    +0.007 A 
ATOM     20  C   UNL     1       0.036  -2.092   1.188  0.00  0.00    -0.009 A 
ATOM     21  C   UNL     1       0.023  -0.705   1.199  0.00  0.00    +0.126 A 
ATOM     22  C   UNL     1       0.052  -2.856   2.487  0.00  0.00    +0.047 C 
ENDBRANCH  14  21
ENDBRANCH  13  14
ENDBRANCH  10  13
ENDBRANCH   9  10
ENDBRANCH   1   9
BRANCH   4  23
ATOM     23  C   UNL     1      -4.256   3.272   9.027  0.00  0.00    +0.120 C 
BRANCH  23  24
ATOM     24  C   UNL     1      -3.780   4.018  10.276  0.00  0.00    +0.056 C 
BRANCH  24  25
ATOM     25  C   UNL     1      -4.967   4.356  11.141  0.00  0.00    -0.045 A 
ATOM     26  C   UNL     1      -5.636   5.552  10.957  0.00  0.00    +0.007 A 
ATOM     27  C   UNL     1      -6.724   5.865  11.749  0.00  0.00    +0.046 A 
ATOM     28  C   UNL     1      -7.144   4.978  12.730  0.00  0.00    +0.120 A 
ATOM     29  C   UNL     1      -6.471   3.779  12.912  0.00  0.00    +0.046 A 
ATOM     30  C   UNL     1      -5.387   3.468  12.114  0.00  0.00    +0.007 A 
BRANCH  28  31
ATOM     31  O   UNL     1      -8.214   5.284  13.511  0.00  0.00    -0.495 OA
ATOM     32  C   UNL     1      -8.590   4.324  14.500  0.00  0.00    +0.277 C 
ENDBRANCH  28  31
ENDBRANCH  24  25
ENDBRANCH  23  24
ENDBRANCH   4  23
TORSDOF 10
