REMARK  Name = ZINC10770126
REMARK  9 active torsions:
REMARK  status: ('A' for Active; 'I' for Inactive)
REMARK    1  A    between atoms: C_1  and  C_2
REMARK    2  A    between atoms: C_2  and  C_33
REMARK    3  A    between atoms: C_5  and  C_31
REMARK    4  A    between atoms: C_6  and  N_12
REMARK    5  A    between atoms: C_9  and  C_10
REMARK    6  A    between atoms: C_9  and  C_11
REMARK    7  A    between atoms: C_13  and  C_15
REMARK    8  A    between atoms: N_20  and  S_22
REMARK    9  A    between atoms: S_22  and  C_25
REMARK                            x       y       z     vdW  Elec       q    Type
REMARK                         _______ _______ _______ _____ _____    ______ ____
ROOT
ATOM      1  N   UNL     1      -0.862   3.337   1.472  0.00  0.00    -0.279 N 
ATOM      2  C   UNL     1      -0.723   2.014   1.251  0.00  0.00    +0.222 C 
ATOM      3  O   UNL     1      -1.165   1.216   2.050  0.00  0.00    -0.275 OA
ATOM      4  H   UNL     1      -0.508   3.975   0.833  0.00  0.00    +0.155 HD
ENDROOT
BRANCH   1  10
ATOM      5  C   UNL     1      -5.262   6.386   5.141  0.00  0.00    -0.010 C 
ATOM      6  C   UNL     1      -3.926   6.508   5.874  0.00  0.00    -0.069 C 
ATOM      7  C   UNL     1      -2.796   6.655   4.853  0.00  0.00    +0.024 C 
ATOM      8  C   UNL     1      -2.457   5.295   4.263  0.00  0.00    -0.021 A 
ATOM      9  C   UNL     1      -1.747   5.093   3.014  0.00  0.00    +0.084 A 
ATOM     10  C   UNL     1      -1.510   3.785   2.614  0.00  0.00    +0.090 A 
ATOM     11  S   UNL     1      -2.218   2.848   3.889  0.00  0.00    -0.078 S 
ATOM     12  C   UNL     1      -2.814   4.164   4.911  0.00  0.00    -0.015 A 
ATOM     13  C   UNL     1      -3.544   4.071   6.214  0.00  0.00    -0.041 C 
ATOM     14  C   UNL     1      -4.884   3.361   6.026  0.00  0.00    -0.005 C 
ATOM     15  C   UNL     1      -2.687   3.218   7.174  0.00  0.00    -0.005 C 
ATOM     16  C   UNL     1      -3.972   7.811   6.703  0.00  0.00    -0.010 C 
ATOM     17  N   UNL     1      -3.697   5.411   6.849  0.00  0.00    +0.389 N 
ATOM     18  H   UNL     1      -4.496   5.377   7.492  0.00  0.00    -0.084 HD
ATOM     19  H   UNL     1      -2.841   5.620   7.377  0.00  0.00    -0.084 HD
BRANCH   9  20
ATOM     20  C   UNL     1      -1.303   6.198   2.218  0.00  0.00    +0.102 C 
ATOM     21  N   UNL     1      -0.950   7.074   1.587  0.00  0.00    -0.191 NA
ENDBRANCH   9  20
ENDBRANCH   1  10
BRANCH   2  22
ATOM     22  C   UNL     1      -0.019   1.528   0.010  0.00  0.00    +0.091 C 
ATOM     23  C   UNL     1       1.419   2.053  -0.001  0.00  0.00    +0.015 C 
ATOM     24  C   UNL     1       2.124   1.587  -1.276  0.00  0.00    +0.018 C 
ATOM     25  C   UNL     1       2.170   0.056  -1.299  0.00  0.00    +0.109 C 
ATOM     26  N   UNL     1       0.803  -0.460  -1.143  0.00  0.00    -0.175 NA
ATOM     27  C   UNL     1       0.002  -0.004   0.002  0.00  0.00    +0.122 C 
BRANCH  26  28
ATOM     28  S   UNL     1       0.176  -1.534  -2.236  0.00  0.00    +0.067 S 
ATOM     29  O   UNL     1       1.282  -2.187  -2.843  0.00  0.00    -0.152 OA
ATOM     30  O   UNL     1      -0.853  -2.246  -1.562  0.00  0.00    -0.152 OA
BRANCH  28  31
ATOM     31  C   UNL     1      -0.609  -0.592  -3.501  0.00  0.00    +0.144 A 
ATOM     32  C   UNL     1      -0.085  -0.106  -4.652  0.00  0.00    +0.038 A 
ATOM     33  C   UNL     1      -0.898   0.612  -5.510  0.00  0.00    +0.030 A 
ATOM     34  C   UNL     1      -2.195   0.818  -5.166  0.00  0.00    +0.080 A 
ATOM     35  S   UNL     1      -2.298  -0.022  -3.595  0.00  0.00    -0.057 S 
ATOM     36 CL   UNL     1      -3.432   1.676  -6.031  0.00  0.00    -0.076 Cl
ENDBRANCH  28  31
ENDBRANCH  26  28
ENDBRANCH   2  22
TORSDOF 5
