REMARK  Name = ZINC12506959
REMARK  4 active torsions:
REMARK  status: ('A' for Active; 'I' for Inactive)
REMARK    1  A    between atoms: C_2  and  C_3
REMARK    2  A    between atoms: C_3  and  O_4
REMARK    3  A    between atoms: O_4  and  C_5
REMARK    4  A    between atoms: C_9  and  C_11
REMARK                            x       y       z     vdW  Elec       q    Type
REMARK                         _______ _______ _______ _____ _____    ______ ____
ROOT
ATOM      1  C   UNL     1      -3.431  -5.627  -3.082  0.00  0.00    +0.209 C 
ATOM      2  N   UNL     1      -4.753  -5.729  -3.728  0.00  0.00    -0.294 N 
ATOM      3  C   UNL     1      -5.765  -6.379  -3.036  0.00  0.00    +0.159 C 
ATOM      4  N   UNL     1      -5.466  -7.653  -2.549  0.00  0.00    -0.259 N 
ATOM      5  C   UNL     1      -4.148  -7.830  -2.132  0.00  0.00    +0.205 A 
ATOM      6  N   UNL     1      -3.177  -6.890  -2.382  0.00  0.00    -0.288 N 
ATOM      7  C   UNL     1      -1.995  -7.364  -1.856  0.00  0.00    +0.076 A 
ATOM      8  C   UNL     1      -0.695  -6.877  -1.802  0.00  0.00    +0.077 A 
ATOM      9  C   UNL     1       0.290  -7.617  -1.177  0.00  0.00    +0.164 A 
ATOM     10  C   UNL     1      -0.010  -8.849  -0.603  0.00  0.00    +0.164 A 
ATOM     11  C   UNL     1      -1.294  -9.350  -0.653  0.00  0.00    +0.079 A 
ATOM     12  C   UNL     1      -2.301  -8.610  -1.281  0.00  0.00    +0.095 A 
ATOM     13  N   UNL     1      -3.633  -8.834  -1.486  0.00  0.00    -0.214 NA
ATOM     14  O   UNL     1       0.978  -9.563   0.013  0.00  0.00    -0.488 OA
ATOM     15  C   UNL     1       1.994 -10.092  -0.841  0.00  0.00    +0.232 C 
ATOM     16  C   UNL     1       3.069  -9.050  -1.108  0.00  0.00    +0.082 C 
ATOM     17  C   UNL     1       2.538  -7.856  -1.886  0.00  0.00    +0.232 C 
ATOM     18  O   UNL     1       1.569  -7.141  -1.119  0.00  0.00    -0.488 OA
ATOM     19  N   UNL     1      -6.931  -5.830  -2.850  0.00  0.00    -0.375 N 
ATOM     20  H   UNL     1      -4.911  -5.353  -4.608  0.00  0.00    +0.151 HD
ATOM     21  H   UNL     1      -7.111  -4.943  -3.199  0.00  0.00    +0.158 HD
ATOM     22  H   UNL     1      -6.127  -8.361  -2.505  0.00  0.00    +0.158 HD
ATOM     23  H   UNL     1      -7.620  -6.308  -2.362  0.00  0.00    +0.158 HD
ENDROOT
BRANCH   1  28
ATOM     24  C   UNL     1      -2.318  -2.629  -1.069  0.00  0.00    +0.121 A 
ATOM     25  C   UNL     1      -3.437  -2.395  -0.283  0.00  0.00    +0.045 A 
ATOM     26  C   UNL     1      -4.548  -3.206  -0.407  0.00  0.00    +0.004 A 
ATOM     27  C   UNL     1      -4.546  -4.251  -1.313  0.00  0.00    +0.007 A 
ATOM     28  C   UNL     1      -3.431  -4.487  -2.096  0.00  0.00    -0.003 A 
ATOM     29  C   UNL     1      -2.319  -3.675  -1.980  0.00  0.00    +0.053 A 
BRANCH  24  30
ATOM     30  O   UNL     1      -1.224  -1.832  -0.949  0.00  0.00    -0.488 OA
BRANCH  30  31
ATOM     31  C   UNL     1      -1.293  -0.775   0.010  0.00  0.00    +0.256 C 
BRANCH  31  33
ATOM     32  C   UNL     1      -0.016   1.306   0.009  0.00  0.00    +0.007 C 
ATOM     33  C   UNL     1       0.002  -0.004   0.002  0.00  0.00    +0.006 C 
ENDBRANCH  31  33
ENDBRANCH  30  31
ENDBRANCH  24  30
ENDBRANCH   1  28
TORSDOF 4
