REMARK  Name = ZINC56159554
REMARK  13 active torsions:
REMARK  status: ('A' for Active; 'I' for Inactive)
REMARK    1  A    between atoms: C_1  and  C_2
REMARK    2  A    between atoms: C_2  and  N_3
REMARK    3  A    between atoms: N_3  and  C_4
REMARK    4  A    between atoms: C_4  and  C_5
REMARK    5  A    between atoms: N_8  and  C_9
REMARK    6  A    between atoms: C_12  and  C_15
REMARK    7  A    between atoms: C_15  and  C_17
REMARK    8  A    between atoms: C_15  and  N_18
REMARK    9  A    between atoms: N_18  and  C_19
REMARK   10  A    between atoms: C_19  and  C_21
REMARK   11  A    between atoms: C_19  and  C_22
REMARK   12  A    between atoms: N_24  and  C_25
REMARK   13  A    between atoms: C_30  and  C_31
REMARK                            x       y       z     vdW  Elec       q    Type
REMARK                         _______ _______ _______ _____ _____    ______ ____
ROOT
ATOM      1  C   UNL     1       8.339  -1.568   1.925  0.00  0.00    -0.043 C 
ATOM      2  C   UNL     1       8.715  -3.023   1.640  0.00  0.00    -0.009 C 
ENDROOT
BRANCH   1   6
ATOM      3  C   UNL     1       4.086  -1.214   2.154  0.00  0.00    +0.035 A 
ATOM      4  C   UNL     1       4.753  -0.851   0.991  0.00  0.00    +0.023 A 
ATOM      5  C   UNL     1       6.127  -0.966   0.920  0.00  0.00    +0.004 A 
ATOM      6  C   UNL     1       6.839  -1.443   2.005  0.00  0.00    -0.062 A 
ATOM      7  C   UNL     1       6.178  -1.805   3.164  0.00  0.00    +0.004 A 
ATOM      8  C   UNL     1       4.804  -1.687   3.244  0.00  0.00    +0.023 A 
BRANCH   3  12
ATOM      9  N   UNL     1       0.776  -0.543   3.440  0.00  0.00    -0.286 N 
ATOM     10  C   UNL     1       2.108  -0.744   3.390  0.00  0.00    +0.306 C 
ATOM     11  O   UNL     1       2.782  -0.607   4.393  0.00  0.00    -0.252 OA
ATOM     12  N   UNL     1       2.693  -1.097   2.229  0.00  0.00    -0.269 N 
ATOM     13  H   UNL     1       2.149  -1.271   1.445  0.00  0.00    +0.156 HD
BRANCH   9  15
ATOM     14  C   UNL     1      -0.279  -1.417   5.466  0.00  0.00    +0.024 C 
ATOM     15  C   UNL     1       0.141  -0.159   4.703  0.00  0.00    +0.106 C 
ENDBRANCH   9  15
BRANCH   9  16
ATOM     16  C   UNL     1      -0.035  -0.708   2.232  0.00  0.00    +0.106 C 
ATOM     17  C   UNL     1      -0.120   0.626   1.487  0.00  0.00    +0.024 C 
ENDBRANCH   9  16
ENDBRANCH   3  12
ENDBRANCH   1   6
BRANCH   1  18
ATOM     18  N   UNL     1       8.934  -1.149   3.200  0.00  0.00    +0.391 N 
ATOM     19  H   UNL     1       8.620  -0.217   3.429  0.00  0.00    -0.084 HD
ATOM     20  H   UNL     1       8.652  -1.787   3.929  0.00  0.00    -0.084 HD
BRANCH  18  21
ATOM     21  C   UNL     1      10.399  -1.156   3.083  0.00  0.00    +0.014 C 
ATOM     22  C   UNL     1      10.834  -0.098   2.067  0.00  0.00    -0.004 C 
BRANCH  21  23
ATOM     23  C   UNL     1      11.012  -0.846   4.424  0.00  0.00    +0.203 C 
ATOM     24  O   UNL     1      10.299  -0.639   5.384  0.00  0.00    -0.277 OA
ATOM     25  N   UNL     1      12.352  -0.798   4.558  0.00  0.00    -0.287 N 
ATOM     26  H   UNL     1      12.921  -0.897   3.779  0.00  0.00    +0.155 HD
BRANCH  25  27
ATOM     27  C   UNL     1      12.923  -0.604   5.821  0.00  0.00    +0.036 A 
ATOM     28  C   UNL     1      12.291   0.208   6.753  0.00  0.00    +0.023 A 
ATOM     29  C   UNL     1      12.857   0.397   7.999  0.00  0.00    +0.002 A 
ATOM     30  C   UNL     1      14.052  -0.222   8.318  0.00  0.00    +0.000 A 
ATOM     31  C   UNL     1      14.684  -1.031   7.392  0.00  0.00    +0.005 A 
ATOM     32  C   UNL     1      14.119  -1.229   6.146  0.00  0.00    -0.029 A 
ATOM     33  C   UNL     1      14.805  -2.117   5.140  0.00  0.00    +0.045 C 
ENDBRANCH  25  27
ENDBRANCH  21  23
ENDBRANCH  18  21
ENDBRANCH   1  18
TORSDOF 8
