REMARK  Name = ZINC01216877
REMARK  8 active torsions:
REMARK  status: ('A' for Active; 'I' for Inactive)
REMARK    1  A    between atoms: C_1  and  C_2
REMARK    2  A    between atoms: C_2  and  C_21
REMARK    3  A    between atoms: C_4  and  N_9
REMARK    4  A    between atoms: C_6  and  C_7
REMARK    5  A    between atoms: C_6  and  C_8
REMARK    6  A    between atoms: C_10  and  C_12
REMARK    7  A    between atoms: C_12  and  O_13
REMARK    8  A    between atoms: O_13  and  C_14
REMARK                            x       y       z     vdW  Elec       q    Type
REMARK                         _______ _______ _______ _____ _____    ______ ____
ROOT
ATOM      1  N   UNL     1       0.389   5.051  -1.207  0.00  0.00    -0.310 N 
ATOM      2  C   UNL     1       0.113   5.703  -2.353  0.00  0.00    +0.251 C 
ATOM      3  O   UNL     1      -0.129   5.078  -3.364  0.00  0.00    -0.272 OA
ATOM      4  H   UNL     1       0.582   5.550  -0.398  0.00  0.00    +0.149 HD
ENDROOT
BRANCH   1   8
ATOM      5  C   UNL     1      -0.944   0.975  -2.269  0.00  0.00    -0.010 C 
ATOM      6  C   UNL     1      -1.042   1.551  -0.852  0.00  0.00    -0.072 C 
ATOM      7  C   UNL     1      -1.022   3.076  -0.918  0.00  0.00    +0.009 C 
ATOM      8  C   UNL     1       0.396   3.583  -1.181  0.00  0.00    +0.070 C 
ATOM      9  C   UNL     1       1.298   3.104  -0.042  0.00  0.00    +0.009 C 
ATOM     10  C   UNL     1       1.320   1.577  -0.002  0.00  0.00    -0.072 C 
ATOM     11  C   UNL     1       2.035   1.156   1.301  0.00  0.00    -0.010 C 
ATOM     12  C   UNL     1       2.151   1.041  -1.172  0.00  0.00    -0.010 C 
ATOM     13  C   UNL     1      -2.415   1.129  -0.282  0.00  0.00    -0.010 C 
ATOM     14  N   UNL     1      -0.027   0.947   0.053  0.00  0.00    +0.386 N 
ATOM     15  H   UNL     1       0.074  -0.044  -0.199  0.00  0.00    -0.084 HD
ATOM     16  H   UNL     1      -0.375   1.022   1.016  0.00  0.00    -0.084 HD
ENDBRANCH   1   8
BRANCH   2  17
ATOM     17  C   UNL     1       0.105   7.210  -2.379  0.00  0.00    +0.324 C 
BRANCH  17  18
ATOM     18  O   UNL     1      -0.211   7.662  -3.697  0.00  0.00    -0.483 OA
BRANCH  18  19
ATOM     19  C   UNL     1      -0.260   9.006  -3.893  0.00  0.00    +0.121 A 
ATOM     20  C   UNL     1      -0.013   9.872  -2.838  0.00  0.00    +0.047 A 
ATOM     21  C   UNL     1      -0.057  11.237  -3.041  0.00  0.00    +0.019 A 
ATOM     22  C   UNL     1      -0.358  11.742  -4.293  0.00  0.00    +0.018 A 
ATOM     23  C   UNL     1      -0.610  10.881  -5.346  0.00  0.00    +0.019 A 
ATOM     24  C   UNL     1      -0.562   9.514  -5.149  0.00  0.00    +0.047 A 
ATOM     25 BR   UNL     1      -0.424  13.612  -4.567  0.00  0.00    -0.050 Br
ENDBRANCH  18  19
ENDBRANCH  17  18
ENDBRANCH   2  17
TORSDOF 4
