REMARK  Name = ZINC20622911
REMARK  5 active torsions:
REMARK  status: ('A' for Active; 'I' for Inactive)
REMARK    1  A    between atoms: C_4  and  C_7
REMARK    2  A    between atoms: C_7  and  C_8
REMARK    3  A    between atoms: C_8  and  N_9
REMARK    4  A    between atoms: C_13  and  N_14
REMARK    5  A    between atoms: N_14  and  C_15
REMARK                            x       y       z     vdW  Elec       q    Type
REMARK                         _______ _______ _______ _____ _____    ______ ____
ROOT
ATOM      1  N   UNL     1       0.677   3.153  -6.869  0.00  0.00    -0.221 N 
ATOM      2  C   UNL     1      -0.164   2.693  -5.920  0.00  0.00    +0.260 C 
ATOM      3  O   UNL     1      -1.317   2.414  -6.189  0.00  0.00    -0.269 OA
ATOM      4  C   UNL     1       0.352   2.539  -4.548  0.00  0.00    +0.113 C 
ATOM      5  C   UNL     1      -0.452   2.074  -3.523  0.00  0.00    +0.086 C 
ATOM      6  C   UNL     1       1.760   2.907  -4.314  0.00  0.00    +0.258 C 
ATOM      7  O   UNL     1       2.256   2.811  -3.207  0.00  0.00    -0.270 OA
ATOM      8  N   UNL     1       2.485   3.349  -5.362  0.00  0.00    -0.235 N 
ATOM      9  C   UNL     1       1.950   3.464  -6.586  0.00  0.00    +0.315 C 
ATOM     10  O   UNL     1       2.656   3.873  -7.487  0.00  0.00    -0.252 OA
ATOM     11  H   UNL     1       3.541   3.624  -5.223  0.00  0.00    +0.159 HD
ENDROOT
BRANCH   5  12
ATOM     12  N   UNL     1       0.011   2.061  -2.257  0.00  0.00    -0.341 N 
ATOM     13  H   UNL     1       1.054   2.340  -2.049  0.00  0.00    +0.146 HD
BRANCH  12  14
ATOM     14  C   UNL     1      -0.877   1.676  -1.157  0.00  0.00    +0.115 C 
ATOM     15  C   UNL     1      -0.025   1.138   0.024  0.00  0.00    +0.197 C 
ATOM     16  S   UNL     1      -1.029   1.799   1.420  0.00  0.00    -0.008 S 
ATOM     17  O   UNL     1      -2.034   0.872   1.810  0.00  0.00    -0.170 OA
ATOM     18  O   UNL     1      -0.206   2.450   2.378  0.00  0.00    -0.170 OA
ATOM     19  C   UNL     1      -1.880   3.098   0.540  0.00  0.00    +0.132 C 
ATOM     20  C   UNL     1      -1.678   2.864  -0.730  0.00  0.00    +0.015 C 
ENDBRANCH  12  14
ENDBRANCH   5  12
BRANCH   1  21
ATOM     21  C   UNL     1       0.189   3.315  -8.240  0.00  0.00    +0.123 C 
BRANCH  21  22
ATOM     22  C   UNL     1      -0.380   4.725  -8.416  0.00  0.00    +0.054 C 
BRANCH  22  26
ATOM     23  C   UNL     1      -1.804   5.198 -12.415  0.00  0.00    +0.000 A 
ATOM     24  C   UNL     1      -2.653   4.728 -11.430  0.00  0.00    +0.000 A 
ATOM     25  C   UNL     1      -2.192   4.575 -10.136  0.00  0.00    +0.004 A 
ATOM     26  C   UNL     1      -0.882   4.892  -9.827  0.00  0.00    -0.046 A 
ATOM     27  C   UNL     1      -0.035   5.367 -10.810  0.00  0.00    +0.004 A 
ATOM     28  C   UNL     1      -0.495   5.516 -12.105  0.00  0.00    +0.000 A 
ENDBRANCH  22  26
ENDBRANCH  21  22
ENDBRANCH   1  21
TORSDOF 5
