REMARK  Name = ZINC65502308
REMARK  9 active torsions:
REMARK  status: ('A' for Active; 'I' for Inactive)
REMARK    1  A    between atoms: C_1  and  C_2
REMARK    2  A    between atoms: C_2  and  N_3
REMARK    3  A    between atoms: C_10  and  C_24
REMARK    4  A    between atoms: C_10  and  C_27
REMARK    5  A    between atoms: C_12  and  C_14
REMARK    6  A    between atoms: C_15  and  C_23
REMARK    7  A    between atoms: C_24  and  C_25
REMARK    8  A    between atoms: C_25  and  O_26
REMARK    9  A    between atoms: C_27  and  O_28
REMARK                            x       y       z     vdW  Elec       q    Type
REMARK                         _______ _______ _______ _____ _____    ______ ____
ROOT
ATOM      1  N   UNL     1      -1.437  -0.696   0.475  0.00  0.00    +0.380 N 
ATOM      2  C   UNL     1      -1.909  -0.157  -0.826  0.00  0.00    -0.073 C 
ATOM      3  C   UNL     1      -3.101  -1.056  -1.213  0.00  0.00    -0.003 C 
ATOM      4  C   UNL     1      -2.859  -2.389  -0.454  0.00  0.00    -0.002 C 
ATOM      5  C   UNL     1      -1.542  -2.169   0.320  0.00  0.00    -0.073 C 
ATOM      6  C   UNL     1      -2.631  -3.439  -1.561  0.00  0.00    +0.046 C 
ATOM      7  N   UNL     1      -2.163  -2.656  -2.733  0.00  0.00    -0.301 NA
ATOM      8  C   UNL     1      -2.991  -1.413  -2.711  0.00  0.00    +0.087 C 
ATOM      9  H   UNL     1      -1.184  -2.430  -2.650  0.00  0.00    +0.123 HD
ATOM     10  H   UNL     1      -2.031  -0.377   1.226  0.00  0.00    -0.082 HD
ENDROOT
BRANCH   8  11
ATOM     11  C   UNL     1      -2.325  -0.293  -3.469  0.00  0.00    -0.013 A 
ATOM     12  C   UNL     1      -2.752   0.970  -3.325  0.00  0.00    -0.007 A 
ATOM     13  S   UNL     1      -1.674   1.899  -4.399  0.00  0.00    -0.093 S 
ATOM     14  C   UNL     1      -0.679   0.564  -5.012  0.00  0.00    +0.020 A 
ATOM     15  C   UNL     1      -1.209  -0.572  -4.360  0.00  0.00    -0.006 A 
ATOM     16  C   UNL     1      -0.600  -1.814  -4.656  0.00  0.00    +0.009 A 
ATOM     17  C   UNL     1       0.445  -1.887  -5.523  0.00  0.00    +0.001 A 
ATOM     18  C   UNL     1       0.951  -0.754  -6.147  0.00  0.00    +0.001 A 
ATOM     19  C   UNL     1       0.377   0.476  -5.893  0.00  0.00    +0.015 A 
ATOM     20  C   UNL     1      -3.875   1.482  -2.461  0.00  0.00    +0.052 C 
ENDBRANCH   8  11
BRANCH   1  22
ATOM     21  C   UNL     1       0.022   1.200   0.999  0.00  0.00    -0.017 C 
ATOM     22  C   UNL     1      -0.043  -0.303   0.719  0.00  0.00    -0.082 C 
ENDBRANCH   1  22
BRANCH   6  23
ATOM     23  C   UNL     1      -3.940  -4.160  -1.889  0.00  0.00    +0.052 C 
BRANCH  23  24
ATOM     24  C   UNL     1      -3.722  -5.096  -3.080  0.00  0.00    +0.157 C 
BRANCH  24  25
ATOM     25  O   UNL     1      -4.970  -5.676  -3.464  0.00  0.00    -0.395 OA
ATOM     26  H   UNL     1      -4.907  -6.282  -4.215  0.00  0.00    +0.209 HD
ENDBRANCH  24  25
ENDBRANCH  23  24
ENDBRANCH   6  23
BRANCH   6  27
ATOM     27  C   UNL     1      -1.561  -4.444  -1.130  0.00  0.00    +0.178 C 
BRANCH  27  28
ATOM     28  O   UNL     1      -1.918  -5.007   0.134  0.00  0.00    -0.393 OA
ATOM     29  H   UNL     1      -1.283  -5.654   0.470  0.00  0.00    +0.209 HD
ENDBRANCH  27  28
ENDBRANCH   6  27
TORSDOF 7
