REMARK  Name = ZINC45045864
REMARK  7 active torsions:
REMARK  status: ('A' for Active; 'I' for Inactive)
REMARK    1  A    between atoms: C_1  and  C_2
REMARK    2  A    between atoms: C_3  and  C_19
REMARK    3  A    between atoms: C_4  and  S_8
REMARK    4  A    between atoms: C_5  and  C_7
REMARK    5  A    between atoms: S_8  and  N_11
REMARK    6  A    between atoms: N_11  and  C_12
REMARK    7  A    between atoms: C_12  and  C_18
REMARK                            x       y       z     vdW  Elec       q    Type
REMARK                         _______ _______ _______ _____ _____    ______ ____
ROOT
ATOM      1  S   UNL     1      -1.856  -3.818  -0.323  0.00  0.00    +0.063 S 
ATOM      2  O   UNL     1      -3.153  -3.504   0.166  0.00  0.00    -0.153 OA
ATOM      3  O   UNL     1      -0.712  -3.038  -0.004  0.00  0.00    -0.153 OA
ENDROOT
BRANCH   1   7
ATOM      4  C   UNL     1       0.599  -8.290   1.441  0.00  0.00    +0.087 C 
ATOM      5  C   UNL     1      -0.432  -7.310   0.943  0.00  0.00    +0.118 A 
ATOM      6  C   UNL     1      -0.206  -5.997   0.639  0.00  0.00    +0.130 A 
ATOM      7  C   UNL     1      -1.506  -5.464   0.201  0.00  0.00    +0.160 A 
ATOM      8  C   UNL     1      -2.369  -6.487   0.282  0.00  0.00    +0.129 A 
ATOM      9  O   UNL     1      -1.720  -7.578   0.718  0.00  0.00    -0.462 OA
ATOM     10  C   UNL     1      -3.834  -6.423  -0.066  0.00  0.00    +0.088 C 
BRANCH   6  11
ATOM     11  C   UNL     1       1.067  -5.269   0.732  0.00  0.00    +0.392 C 
ATOM     12  O   UNL     1       2.047  -5.811   1.226  0.00  0.00    -0.240 OA
ATOM     13  O   UNL     1       1.148  -4.122   0.314  0.00  0.00    -0.240 OA
ENDBRANCH   6  11
ENDBRANCH   1   7
BRANCH   1  14
ATOM     14  N   UNL     1      -1.966  -3.844  -1.975  0.00  0.00    -0.184 NA
ATOM     15  H   UNL     1      -2.815  -3.662  -2.407  0.00  0.00    +0.149 HD
BRANCH  14  16
ATOM     16  C   UNL     1      -0.780  -4.140  -2.783  0.00  0.00    +0.037 C 
ATOM     17  C   UNL     1       0.264  -3.041  -2.578  0.00  0.00    +0.023 C 
ATOM     18  C   UNL     1      -0.322  -1.694  -3.006  0.00  0.00    +0.002 C 
ATOM     19  C   UNL     1      -0.714  -1.755  -4.484  0.00  0.00    +0.000 C 
ATOM     20  C   UNL     1      -1.759  -2.854  -4.689  0.00  0.00    +0.002 C 
ATOM     21  C   UNL     1      -1.173  -4.201  -4.261  0.00  0.00    +0.023 C 
ATOM     22  C   UNL     1      -0.194  -5.487  -2.355  0.00  0.00    +0.029 C 
ENDBRANCH  14  16
ENDBRANCH   1  14
TORSDOF 4
