REMARK  Name = ZINC04222524
REMARK  14 active torsions:
REMARK  status: ('A' for Active; 'I' for Inactive)
REMARK    1  A    between atoms: C_1  and  C_2
REMARK    2  A    between atoms: C_2  and  C_3
REMARK    3  A    between atoms: C_3  and  C_4
REMARK    4  A    between atoms: C_4  and  N_5
REMARK    5  A    between atoms: C_14  and  C_37
REMARK    6  A    between atoms: C_15  and  C_17
REMARK    7  A    between atoms: C_17  and  C_18
REMARK    8  A    between atoms: N_20  and  C_21
REMARK    9  A    between atoms: C_21  and  C_22
REMARK   10  A    between atoms: C_22  and  N_79
REMARK   11  A    between atoms: C_30  and  O_36
REMARK   12  A    between atoms: C_32  and  C_33
REMARK   13  A    between atoms: C_32  and  C_34
REMARK   14  A    between atoms: C_34  and  O_35
REMARK                            x       y       z     vdW  Elec       q    Type
REMARK                         _______ _______ _______ _____ _____    ______ ____
ROOT
ATOM      1  N   UNL     1      -4.164  -0.004   4.559  0.00  0.00    -0.323 N 
ATOM      2  C   UNL     1      -4.133  -1.084   3.691  0.00  0.00    +0.159 A 
ATOM      3  N   UNL     1      -3.500  -1.205   2.542  0.00  0.00    -0.229 NA
ATOM      4  C   UNL     1      -3.564  -2.317   1.811  0.00  0.00    +0.058 A 
ATOM      5  C   UNL     1      -4.321  -3.321   2.321  0.00  0.00    +0.015 A 
ATOM      6  S   UNL     1      -4.917  -2.628   3.840  0.00  0.00    -0.057 S 
ATOM      7  C   UNL     1      -4.569  -4.664   1.729  0.00  0.00    +0.049 C 
ATOM      8  C   UNL     1      -4.131  -4.650   0.252  0.00  0.00    +0.011 C 
ATOM      9  C   UNL     1      -2.753  -3.993   0.148  0.00  0.00    -0.019 C 
ATOM     10  C   UNL     1      -2.853  -2.498   0.479  0.00  0.00    +0.054 C 
ATOM     11  C   UNL     1      -2.218  -4.112  -1.282  0.00  0.00    +0.010 C 
ATOM     12  C   UNL     1      -2.139  -5.579  -1.700  0.00  0.00    +0.032 C 
ATOM     13  C   UNL     1      -3.545  -6.183  -1.649  0.00  0.00    +0.123 C 
ATOM     14  C   UNL     1      -4.059  -6.108  -0.213  0.00  0.00    +0.021 C 
ATOM     15  C   UNL     1      -5.454  -6.732  -0.141  0.00  0.00    +0.016 C 
ATOM     16  C   UNL     1      -1.788  -4.671   1.124  0.00  0.00    +0.012 C 
ATOM     17  H   UNL     1      -3.672   0.805   4.345  0.00  0.00    +0.148 HD
ENDROOT
BRANCH  13  18
ATOM     18  O   UNL     1      -3.496  -7.548  -2.070  0.00  0.00    -0.391 OA
ATOM     19  H   UNL     1      -3.167  -7.670  -2.971  0.00  0.00    +0.210 HD
ENDBRANCH  13  18
BRANCH   1  20
ATOM     20  C   UNL     1      -4.941  -0.082   5.798  0.00  0.00    +0.103 C 
BRANCH  20  21
ATOM     21  C   UNL     1      -4.808   1.234   6.568  0.00  0.00    +0.018 C 
BRANCH  21  23
ATOM     22  C   UNL     1      -5.486   2.468   8.632  0.00  0.00    +0.004 C 
ATOM     23  C   UNL     1      -5.619   1.152   7.862  0.00  0.00    -0.002 C 
ENDBRANCH  21  23
ENDBRANCH  20  21
ENDBRANCH   1  20
BRANCH  10  24
ATOM     24  C   UNL     1      -1.447  -1.901   0.567  0.00  0.00    +0.106 C 
BRANCH  24  25
ATOM     25  C   UNL     1      -1.545  -0.403   0.698  0.00  0.00    +0.214 C 
ATOM     26  O   UNL     1      -2.632   0.134   0.719  0.00  0.00    -0.276 OA
ATOM     27  N   UNL     1      -0.425   0.340   0.792  0.00  0.00    -0.317 N 
ATOM     28  H   UNL     1       0.445  -0.089   0.775  0.00  0.00    +0.149 HD
BRANCH  27  29
ATOM     29  C   UNL     1      -0.520   1.797   0.919  0.00  0.00    +0.085 C 
BRANCH  29  30
ATOM     30  C   UNL     1       0.886   2.394   1.007  0.00  0.00    -0.060 C 
BRANCH  30  36
ATOM     31  C   UNL     1       0.238   4.455  -0.088  0.00  0.00    -0.050 C 
ATOM     32  C   UNL     1       0.100   5.967   0.110  0.00  0.00    +0.141 C 
ATOM     33  O   UNL     1       1.375   6.516   0.455  0.00  0.00    -0.383 OA
ATOM     34  C   UNL     1       1.942   5.954   1.641  0.00  0.00    +0.141 C 
ATOM     35  C   UNL     1       2.098   4.442   1.459  0.00  0.00    -0.050 C 
ATOM     36  N   UNL     1       0.773   3.861   1.155  0.00  0.00    +0.384 N 
ATOM     37  H   UNL     1       0.131   4.071   1.929  0.00  0.00    -0.082 HD
ENDBRANCH  30  36
ENDBRANCH  29  30
ENDBRANCH  27  29
ENDBRANCH  24  25
ENDBRANCH  10  24
BRANCH  14  38
ATOM     38  C   UNL     1      -3.113  -6.886   0.705  0.00  0.00    +0.165 C 
BRANCH  38  39
ATOM     39  O   UNL     1      -3.167  -8.276   0.378  0.00  0.00    -0.394 OA
ATOM     40  H   UNL     1      -2.591  -8.831   0.921  0.00  0.00    +0.209 HD
ENDBRANCH  38  39
ENDBRANCH  14  38
TORSDOF 11
