REMARK  Name = ZINC50609298
REMARK  9 active torsions:
REMARK  status: ('A' for Active; 'I' for Inactive)
REMARK    1  A    between atoms: C_1  and  C_2
REMARK    2  A    between atoms: N_6  and  C_8
REMARK    3  A    between atoms: C_8  and  C_9
REMARK    4  A    between atoms: C_9  and  C_10
REMARK    5  A    between atoms: C_9  and  N_11
REMARK    6  A    between atoms: C_12  and  C_14
REMARK    7  A    between atoms: C_14  and  N_15
REMARK    8  A    between atoms: N_18  and  C_19
REMARK    9  A    between atoms: C_19  and  C_20
REMARK                            x       y       z     vdW  Elec       q    Type
REMARK                         _______ _______ _______ _____ _____    ______ ____
ROOT
ATOM      1  N   UNL     1       0.204  -4.504   2.224  0.00  0.00    -0.313 N 
ATOM      2  C   UNL     1       0.004  -5.764   1.791  0.00  0.00    +0.230 C 
ATOM      3  O   UNL     1       0.952  -6.473   1.529  0.00  0.00    -0.274 OA
ATOM      4  H   UNL     1      -0.554  -3.937   2.434  0.00  0.00    +0.149 HD
ENDROOT
BRANCH   1   5
ATOM      5  C   UNL     1       1.568  -3.991   2.378  0.00  0.00    +0.053 C 
ATOM      6  C   UNL     1       2.097  -4.358   3.766  0.00  0.00    +0.026 C 
BRANCH   5   7
ATOM      7  C   UNL     1       1.561  -2.469   2.222  0.00  0.00    -0.057 C 
BRANCH   7  13
ATOM      8  C   UNL     1       2.043  -2.806  -2.638  0.00  0.00    +0.005 C 
ATOM      9  C   UNL     1       1.148  -2.301  -1.504  0.00  0.00    -0.031 C 
ATOM     10  C   UNL     1       0.949  -0.789  -1.646  0.00  0.00    -0.001 C 
ATOM     11  C   UNL     1       0.118  -0.281  -0.464  0.00  0.00    -0.018 C 
ATOM     12  C   UNL     1       0.820  -0.653   0.843  0.00  0.00    -0.079 C 
ATOM     13  N   UNL     1       0.957  -2.112   0.931  0.00  0.00    +0.381 N 
ATOM     14  C   UNL     1       1.812  -2.598  -0.158  0.00  0.00    -0.076 C 
ATOM     15  H   UNL     1       0.046  -2.539   0.859  0.00  0.00    -0.082 HD
ENDBRANCH   7  13
ENDBRANCH   5   7
ENDBRANCH   1   5
BRANCH   2  16
ATOM     16  C   UNL     1      -1.399  -6.292   1.632  0.00  0.00    +0.201 C 
BRANCH  16  17
ATOM     17  N   UNL     1      -1.349  -7.675   1.152  0.00  0.00    -0.291 N 
ATOM     18  C   UNL     1      -2.492  -8.356   0.936  0.00  0.00    +0.300 C 
ATOM     19  O   UNL     1      -3.565  -7.822   1.140  0.00  0.00    -0.253 OA
ATOM     20  N   UNL     1      -2.446  -9.628   0.494  0.00  0.00    -0.299 N 
ATOM     21  H   UNL     1      -0.492  -8.102   0.990  0.00  0.00    +0.151 HD
ATOM     22  H   UNL     1      -1.589 -10.054   0.332  0.00  0.00    +0.150 HD
BRANCH  20  23
ATOM     23  C   UNL     1      -3.688 -10.368   0.260  0.00  0.00    +0.109 C 
BRANCH  23  24
ATOM     24  C   UNL     1      -3.357 -11.777  -0.234  0.00  0.00    +0.006 C 
ATOM     25  C   UNL     1      -2.731 -11.710  -1.643  0.00  0.00    +0.005 C 
ATOM     26  C   UNL     1      -3.303 -12.951  -2.372  0.00  0.00    +0.000 C 
ATOM     27  C   UNL     1      -4.760 -13.014  -1.849  0.00  0.00    +0.000 C 
ATOM     28  C   UNL     1      -4.647 -12.606  -0.366  0.00  0.00    +0.005 C 
ENDBRANCH  23  24
ENDBRANCH  20  23
ENDBRANCH  16  17
ENDBRANCH   2  16
TORSDOF 7
