REMARK  Name = ZINC15936095
REMARK  4 active torsions:
REMARK  status: ('A' for Active; 'I' for Inactive)
REMARK    1  A    between atoms: C_1  and  C_2
REMARK    2  A    between atoms: N_8  and  C_13
REMARK    3  A    between atoms: C_13  and  C_14
REMARK    4  A    between atoms: N_19  and  C_22
REMARK                            x       y       z     vdW  Elec       q    Type
REMARK                         _______ _______ _______ _____ _____    ______ ____
ROOT
ATOM      1  C   UNL     1      -1.772  -2.274   3.898  0.00  0.00    +0.233 C 
ATOM      2  O   UNL     1      -2.475  -2.846   3.093  0.00  0.00    -0.274 OA
ATOM      3  N   UNL     1      -2.316  -1.743   5.011  0.00  0.00    -0.298 N 
ATOM      4  C   UNL     1      -1.482  -1.039   5.997  0.00  0.00    +0.123 C 
ATOM      5  C   UNL     1      -2.115   0.326   6.285  0.00  0.00    +0.103 C 
ATOM      6  N   UNL     1      -3.517   0.138   6.679  0.00  0.00    -0.296 NA
ATOM      7  C   UNL     1      -4.303  -0.454   5.588  0.00  0.00    +0.103 C 
ATOM      8  C   UNL     1      -3.760  -1.846   5.269  0.00  0.00    +0.123 C 
ENDROOT
BRANCH   6   9
ATOM      9  C   UNL     1      -4.112   1.404   7.129  0.00  0.00    +0.057 C 
ATOM     10  C   UNL     1      -3.331   1.935   8.333  0.00  0.00    +0.019 C 
ATOM     11  C   UNL     1      -3.950   3.253   8.802  0.00  0.00    +0.002 C 
ATOM     12  C   UNL     1      -5.408   3.018   9.203  0.00  0.00    +0.000 C 
ATOM     13  C   UNL     1      -6.189   2.487   7.999  0.00  0.00    +0.002 C 
ATOM     14  C   UNL     1      -5.569   1.169   7.530  0.00  0.00    +0.019 C 
ENDBRANCH   6   9
BRANCH   1  15
ATOM     15  C   UNL     1      -0.289  -2.157   3.654  0.00  0.00    +0.209 C 
BRANCH  15  23
ATOM     16  C   UNL     1      -0.018   1.503   0.010  0.00  0.00    +0.044 C 
ATOM     17  C   UNL     1       0.002  -0.004   0.002  0.00  0.00    -0.048 A 
ATOM     18  C   UNL     1       0.006  -0.687  -1.200  0.00  0.00    +0.007 A 
ATOM     19  C   UNL     1       0.025  -2.070  -1.217  0.00  0.00    +0.048 A 
ATOM     20  C   UNL     1       0.041  -2.773  -0.025  0.00  0.00    +0.143 A 
ATOM     21  C   UNL     1       0.037  -2.085   1.187  0.00  0.00    +0.079 A 
ATOM     22  C   UNL     1       0.023  -0.700   1.197  0.00  0.00    +0.030 A 
ATOM     23  N   UNL     1       0.050  -2.810   2.387  0.00  0.00    -0.257 N 
ATOM     24  C   UNL     1       0.382  -4.119   2.358  0.00  0.00    +0.258 C 
ATOM     25  O   UNL     1       0.369  -4.773   3.379  0.00  0.00    -0.271 OA
ATOM     26  C   UNL     1       0.766  -4.763   1.050  0.00  0.00    +0.325 C 
ATOM     27  O   UNL     1       0.060  -4.133  -0.022  0.00  0.00    -0.481 OA
ENDBRANCH  15  23
ENDBRANCH   1  15
TORSDOF 3
