REMARK  Name = ZINC32973781
REMARK  12 active torsions:
REMARK  status: ('A' for Active; 'I' for Inactive)
REMARK    1  A    between atoms: C_1  and  C_2
REMARK    2  A    between atoms: C_5  and  O_31
REMARK    3  A    between atoms: C_6  and  N_8
REMARK    4  A    between atoms: N_10  and  C_11
REMARK    5  A    between atoms: C_11  and  C_12
REMARK    6  A    between atoms: C_12  and  C_13
REMARK    7  A    between atoms: C_14  and  C_20
REMARK    8  A    between atoms: N_16  and  C_19
REMARK    9  A    between atoms: C_17  and  C_18
REMARK   10  A    between atoms: N_21  and  C_22
REMARK   11  A    between atoms: C_22  and  C_24
REMARK   12  A    between atoms: O_31  and  C_32
REMARK                            x       y       z     vdW  Elec       q    Type
REMARK                         _______ _______ _______ _____ _____    ______ ____
ROOT
ATOM      1  N   UNL     1       0.446  -2.759   2.371  0.00  0.00    -0.325 N 
ATOM      2  C   UNL     1       0.335  -2.111   3.567  0.00  0.00    +0.194 C 
ATOM      3  N   UNL     1       0.468  -2.805   4.734  0.00  0.00    -0.357 N 
ATOM      4  N   UNL     1       0.098  -0.808   3.594  0.00  0.00    -0.143 NA
ATOM      5  H   UNL     1       0.389  -2.344   5.584  0.00  0.00    +0.162 HD
ATOM      6  H   UNL     1      -0.218  -3.417   2.112  0.00  0.00    +0.169 HD
ENDROOT
BRANCH   1  12
ATOM      7  C   UNL     1       4.362   0.003   1.272  0.00  0.00    +0.044 C 
ATOM      8  C   UNL     1       3.433  -1.141   0.959  0.00  0.00    -0.048 A 
ATOM      9  C   UNL     1       3.641  -1.909  -0.172  0.00  0.00    +0.007 A 
ATOM     10  C   UNL     1       2.792  -2.960  -0.464  0.00  0.00    +0.048 A 
ATOM     11  C   UNL     1       1.729  -3.247   0.377  0.00  0.00    +0.143 A 
ATOM     12  C   UNL     1       1.519  -2.474   1.517  0.00  0.00    +0.084 A 
ATOM     13  C   UNL     1       2.379  -1.425   1.807  0.00  0.00    +0.032 A 
BRANCH  11  14
ATOM     14  O   UNL     1       0.892  -4.280   0.091  0.00  0.00    -0.493 OA
ATOM     15  C   UNL     1       1.169  -5.029  -1.095  0.00  0.00    +0.277 C 
ENDBRANCH  11  14
ENDBRANCH   1  12
BRANCH   4  16
ATOM     16  C   UNL     1      -0.074  -0.135   2.449  0.00  0.00    +0.270 C 
ATOM     17  O   UNL     1      -0.123  -0.735   1.391  0.00  0.00    -0.268 OA
BRANCH  16  18
ATOM     18  C   UNL     1      -0.204   1.340   2.471  0.00  0.00    +0.039 A 
ATOM     19  C   UNL     1      -0.097   2.035   3.676  0.00  0.00    +0.014 A 
ATOM     20  C   UNL     1      -0.220   3.409   3.690  0.00  0.00    +0.021 A 
ATOM     21  C   UNL     1      -0.448   4.098   2.511  0.00  0.00    +0.041 A 
ATOM     22  C   UNL     1      -0.556   3.414   1.312  0.00  0.00    +0.021 A 
ATOM     23  C   UNL     1      -0.429   2.041   1.285  0.00  0.00    +0.014 A 
ATOM     24 CL   UNL     1      -0.601   5.827   2.536  0.00  0.00    -0.084 Cl
ENDBRANCH  16  18
ENDBRANCH   4  16
BRANCH   3  25
ATOM     25  C   UNL     1       0.730  -4.246   4.703  0.00  0.00    +0.120 C 
BRANCH  25  26
ATOM     26  C   UNL     1       0.835  -4.776   6.135  0.00  0.00    +0.060 C 
BRANCH  26  27
ATOM     27  C   UNL     1       1.105  -6.258   6.104  0.00  0.00    -0.002 A 
ATOM     28  C   UNL     1       0.140  -7.270   6.087  0.00  0.00    +0.063 A 
ATOM     29  N   UNL     1       0.757  -8.423   6.060  0.00  0.00    -0.176 NA
ATOM     30  N   UNL     1       2.136  -8.181   6.059  0.00  0.00    -0.271 N 
ATOM     31  C   UNL     1       2.324  -6.845   6.081  0.00  0.00    +0.039 A 
ATOM     32  C   UNL     1       3.653  -6.134   6.083  0.00  0.00    +0.065 C 
ATOM     33  C   UNL     1       3.190  -9.199   6.034  0.00  0.00    +0.172 C 
ATOM     34  C   UNL     1      -1.354  -7.067   6.097  0.00  0.00    +0.068 C 
ENDBRANCH  26  27
ENDBRANCH  25  26
ENDBRANCH   3  25
TORSDOF 7
