REMARK  Name = ZINC14669752
REMARK  12 active torsions:
REMARK  status: ('A' for Active; 'I' for Inactive)
REMARK    1  A    between atoms: C_1  and  C_2
REMARK    2  A    between atoms: C_2  and  C_3
REMARK    3  A    between atoms: C_3  and  C_4
REMARK    4  A    between atoms: C_4  and  N_5
REMARK    5  A    between atoms: C_6  and  N_34
REMARK    6  A    between atoms: C_7  and  N_14
REMARK    7  A    between atoms: N_14  and  C_15
REMARK    8  A    between atoms: C_15  and  C_16
REMARK    9  A    between atoms: C_16  and  C_17
REMARK   10  A    between atoms: C_16  and  C_18
REMARK   11  A    between atoms: C_19  and  C_21
REMARK   12  A    between atoms: C_30  and  C_33
REMARK                            x       y       z     vdW  Elec       q    Type
REMARK                         _______ _______ _______ _____ _____    ______ ____
ROOT
ATOM      1  N   UNL     1       5.191  -3.752   3.254  0.00  0.00    -0.260 N 
ATOM      2  C   UNL     1       5.890  -2.849   2.538  0.00  0.00    +0.251 C 
ATOM      3  O   UNL     1       6.974  -2.466   2.935  0.00  0.00    -0.270 OA
ENDROOT
BRANCH   2   4
ATOM      4  C   UNL     1       5.340  -2.327   1.273  0.00  0.00    +0.039 A 
ATOM      5  C   UNL     1       3.957  -2.228   1.101  0.00  0.00    +0.014 A 
ATOM      6  C   UNL     1       3.447  -1.738  -0.081  0.00  0.00    +0.017 A 
ATOM      7  C   UNL     1       4.306  -1.345  -1.099  0.00  0.00    +0.030 A 
ATOM      8  C   UNL     1       5.693  -1.441  -0.942  0.00  0.00    +0.048 A 
ATOM      9  C   UNL     1       6.204  -1.927   0.251  0.00  0.00    +0.037 A 
ATOM     10  N   UNL     1       6.568  -1.061  -1.956  0.00  0.00    -0.284 N 
ATOM     11  C   UNL     1       6.298  -0.228  -2.958  0.00  0.00    +0.230 C 
ATOM     12  O   UNL     1       7.178   0.010  -3.758  0.00  0.00    -0.274 OA
ATOM     13  C   UNL     1       4.962   0.434  -3.154  0.00  0.00    +0.134 C 
ATOM     14  S   UNL     1       3.656  -0.711  -2.613  0.00  0.00    -0.111 S 
ATOM     15  C   UNL     1       4.769   0.774  -4.633  0.00  0.00    +0.029 C 
ATOM     16  H   UNL     1       7.461  -1.439  -1.929  0.00  0.00    +0.155 HD
ENDBRANCH   2   4
BRANCH   1  19
ATOM     17  N   UNL     1       1.546  -4.215   3.232  0.00  0.00    -0.280 N 
ATOM     18  C   UNL     1       2.802  -3.845   3.653  0.00  0.00    +0.127 A 
ATOM     19  C   UNL     1       3.890  -4.119   2.850  0.00  0.00    +0.140 A 
ATOM     20  C   UNL     1       3.680  -4.770   1.620  0.00  0.00    +0.277 A 
ATOM     21  O   UNL     1       4.623  -5.024   0.890  0.00  0.00    -0.266 OA
ATOM     22  N   UNL     1       2.429  -5.111   1.254  0.00  0.00    -0.273 N 
ATOM     23  H   UNL     1       2.283  -5.559   0.406  0.00  0.00    +0.173 HD
ATOM     24  C   UNL     1       1.381  -4.840   2.052  0.00  0.00    +0.331 A 
ATOM     25  O   UNL     1       0.263  -5.163   1.699  0.00  0.00    -0.246 OA
BRANCH  18  26
ATOM     26  N   UNL     1       2.971  -3.211   4.861  0.00  0.00    -0.343 N 
ATOM     27  H   UNL     1       2.198  -2.968   5.393  0.00  0.00    +0.144 HD
ATOM     28  H   UNL     1       3.864  -3.006   5.180  0.00  0.00    +0.144 HD
ENDBRANCH  18  26
BRANCH  17  29
ATOM     29  C   UNL     1       0.382  -3.931   4.074  0.00  0.00    +0.128 C 
BRANCH  29  30
ATOM     30  C   UNL     1       0.139  -5.108   5.022  0.00  0.00    +0.021 C 
BRANCH  30  32
ATOM     31  C   UNL     1      -1.319  -5.989   6.849  0.00  0.00    +0.004 C 
ATOM     32  C   UNL     1      -1.077  -4.812   5.902  0.00  0.00    -0.002 C 
ENDBRANCH  30  32
ENDBRANCH  29  30
ENDBRANCH  17  29
ENDBRANCH   1  19
BRANCH   1  33
ATOM     33  C   UNL     1       5.782  -4.352   4.453  0.00  0.00    +0.117 C 
BRANCH  33  34
ATOM     34  C   UNL     1       6.424  -5.692   4.089  0.00  0.00    +0.001 C 
ATOM     35  C   UNL     1       7.609  -5.451   3.151  0.00  0.00    +0.009 C 
ATOM     36  C   UNL     1       6.914  -6.385   5.362  0.00  0.00    +0.009 C 
ENDBRANCH  33  34
ENDBRANCH   1  33
TORSDOF 8
