REMARK  Name = ZINC67203054
REMARK  8 active torsions:
REMARK  status: ('A' for Active; 'I' for Inactive)
REMARK    1  A    between atoms: C_4  and  S_24
REMARK    2  A    between atoms: C_5  and  C_7
REMARK    3  A    between atoms: N_9  and  C_10
REMARK    4  A    between atoms: C_10  and  C_11
REMARK    5  A    between atoms: N_16  and  C_17
REMARK    6  A    between atoms: C_17  and  C_18
REMARK    7  A    between atoms: S_24  and  C_25
REMARK    8  A    between atoms: C_25  and  C_26
REMARK                            x       y       z     vdW  Elec       q    Type
REMARK                         _______ _______ _______ _____ _____    ______ ____
ROOT
ATOM      1  C   UNL     1       1.116  -1.733   0.126  0.00  0.00    +0.245 C 
ATOM      2  O   UNL     1       2.230  -2.221   0.110  0.00  0.00    -0.270 OA
ATOM      3  N   UNL     1       0.030  -2.530   0.082  0.00  0.00    -0.313 N 
ATOM      4  H   UNL     1      -0.858  -2.140   0.094  0.00  0.00    +0.149 HD
ENDROOT
BRANCH   1   9
ATOM      5  C   UNL     1      -0.468   1.665   0.272  0.00  0.00    +0.001 A 
ATOM      6  C   UNL     1       0.648   2.486   0.317  0.00  0.00    +0.001 A 
ATOM      7  C   UNL     1       1.916   1.944   0.300  0.00  0.00    +0.015 A 
ATOM      8  C   UNL     1       2.083   0.565   0.238  0.00  0.00    +0.020 A 
ATOM      9  C   UNL     1       0.954  -0.269   0.192  0.00  0.00    +0.050 A 
ATOM     10  C   UNL     1      -0.324   0.297   0.209  0.00  0.00    +0.014 A 
BRANCH   8  11
ATOM     11  S   UNL     1       3.701  -0.131   0.216  0.00  0.00    -0.115 S 
BRANCH  11  12
ATOM     12  C   UNL     1       4.800   1.310   0.289  0.00  0.00    +0.169 C 
BRANCH  12  13
ATOM     13  C   UNL     1       6.235   0.849   0.277  0.00  0.00    +0.221 C 
ATOM     14  O   UNL     1       6.490  -0.335   0.224  0.00  0.00    -0.275 OA
ATOM     15  N   UNL     1       7.233   1.753   0.325  0.00  0.00    -0.329 N 
ATOM     16  H   UNL     1       7.029   2.700   0.367  0.00  0.00    +0.145 HD
ATOM     17  H   UNL     1       8.157   1.456   0.317  0.00  0.00    +0.145 HD
ENDBRANCH  12  13
ENDBRANCH  11  12
ENDBRANCH   8  11
ENDBRANCH   1   9
BRANCH   3  18
ATOM     18  C   UNL     1       0.191  -3.984   0.015  0.00  0.00    +0.089 C 
BRANCH  18  19
ATOM     19  C   UNL     1      -1.186  -4.649  -0.024  0.00  0.00    -0.051 C 
ATOM     20  C   UNL     1      -1.033  -6.181   0.076  0.00  0.00    -0.016 C 
ATOM     21  C   UNL     1      -1.271  -6.458   1.584  0.00  0.00    -0.020 C 
ATOM     22  C   UNL     1      -2.353  -5.405   1.929  0.00  0.00    -0.078 C 
ATOM     23  N   UNL     1      -1.988  -4.210   1.133  0.00  0.00    +0.383 N 
ATOM     24  H   UNL     1      -1.447  -3.575   1.700  0.00  0.00    -0.081 HD
BRANCH  23  25
ATOM     25  C   UNL     1      -3.205  -3.534   0.663  0.00  0.00    -0.075 C 
BRANCH  25  26
ATOM     26  C   UNL     1      -3.964  -2.959   1.860  0.00  0.00    -0.028 C 
ATOM     27  C   UNL     1      -5.299  -2.379   1.388  0.00  0.00    +0.002 C 
ATOM     28  C   UNL     1      -6.058  -1.804   2.585  0.00  0.00    +0.000 C 
ATOM     29  C   UNL     1      -5.223  -0.699   3.236  0.00  0.00    +0.000 C 
ATOM     30  C   UNL     1      -3.889  -1.280   3.708  0.00  0.00    +0.000 C 
ATOM     31  C   UNL     1      -3.130  -1.854   2.511  0.00  0.00    +0.002 C 
ENDBRANCH  25  26
ENDBRANCH  23  25
ENDBRANCH  18  19
ENDBRANCH   3  18
TORSDOF 8
