REMARK  Name = ZINC07927255
REMARK  8 active torsions:
REMARK  status: ('A' for Active; 'I' for Inactive)
REMARK    1  A    between atoms: C_3  and  C_6
REMARK    2  A    between atoms: C_6  and  N_49
REMARK    3  A    between atoms: C_7  and  C_8
REMARK    4  A    between atoms: C_7  and  N_49
REMARK    5  A    between atoms: C_14  and  C_15
REMARK    6  A    between atoms: C_14  and  N_49
REMARK    7  A    between atoms: N_17  and  C_18
REMARK    8  A    between atoms: C_21  and  C_24
REMARK                            x       y       z     vdW  Elec       q    Type
REMARK                         _______ _______ _______ _____ _____    ______ ____
ROOT
ATOM      1  C   UNL     1      -5.685   0.759  -1.795  0.00  0.00    +0.019 C 
ENDROOT
BRANCH   1   2
ATOM      2  C   UNL     1      -5.244   1.421  -3.075  0.00  0.00    +0.201 C 
ATOM      3  O   UNL     1      -4.173   1.990  -3.125  0.00  0.00    -0.278 OA
ATOM      4  N   UNL     1      -6.038   1.382  -4.163  0.00  0.00    -0.287 N 
ATOM      5  H   UNL     1      -6.923   0.990  -4.104  0.00  0.00    +0.155 HD
BRANCH   4   6
ATOM      6  C   UNL     1      -5.588   1.907  -5.374  0.00  0.00    +0.033 A 
ATOM      7  C   UNL     1      -4.821   3.067  -5.386  0.00  0.00    +0.024 A 
ATOM      8  C   UNL     1      -4.370   3.585  -6.579  0.00  0.00    +0.015 A 
ATOM      9  C   UNL     1      -4.694   2.949  -7.781  0.00  0.00    +0.037 A 
ATOM     10  C   UNL     1      -5.469   1.786  -7.766  0.00  0.00    +0.015 A 
ATOM     11  C   UNL     1      -5.911   1.271  -6.569  0.00  0.00    +0.024 A 
BRANCH   9  12
ATOM     12  C   UNL     1      -4.218   3.505  -9.063  0.00  0.00    +0.242 C 
ATOM     13  O   UNL     1      -4.501   2.951 -10.108  0.00  0.00    -0.270 OA
ATOM     14  N   UNL     1      -3.471   4.626  -9.076  0.00  0.00    -0.325 N 
ATOM     15  H   UNL     1      -3.245   5.068  -8.242  0.00  0.00    +0.145 HD
ATOM     16  H   UNL     1      -3.158   4.992  -9.918  0.00  0.00    +0.145 HD
ENDBRANCH   9  12
ENDBRANCH   4   6
ENDBRANCH   1   2
BRANCH   1  17
ATOM     17  N   UNL     1      -4.646   0.970  -0.766  0.00  0.00    +0.390 N 
ATOM     18  H   UNL     1      -4.437   1.973  -0.703  0.00  0.00    -0.081 HD
BRANCH  17  19
ATOM     19  C   UNL     1      -5.133   0.498   0.548  0.00  0.00    -0.035 C 
BRANCH  19  22
ATOM     20  C   UNL     1      -3.107   2.219   3.276  0.00  0.00    +0.008 A 
ATOM     21  C   UNL     1      -4.115   2.052   2.345  0.00  0.00    +0.009 A 
ATOM     22  C   UNL     1      -4.148   0.913   1.610  0.00  0.00    -0.027 A 
ATOM     23  S   UNL     1      -2.718   0.037   2.221  0.00  0.00    -0.103 S 
ATOM     24  C   UNL     1      -2.176   1.244   3.420  0.00  0.00    +0.045 A 
ENDBRANCH  19  22
ENDBRANCH  17  19
BRANCH  17  25
ATOM     25  C   UNL     1      -3.413   0.245  -1.137  0.00  0.00    -0.046 C 
BRANCH  25  26
ATOM     26  C   UNL     1      -3.657  -1.266  -1.133  0.00  0.00    +0.102 C 
ATOM     27  C   UNL     1      -2.324  -2.012  -1.335  0.00  0.00    +0.032 C 
ATOM     28  C   UNL     1      -2.551  -2.855  -2.614  0.00  0.00    +0.030 C 
ATOM     29  C   UNL     1      -4.098  -2.929  -2.685  0.00  0.00    +0.160 C 
ATOM     30  O   UNL     1      -4.517  -1.624  -2.228  0.00  0.00    -0.378 OA
ENDBRANCH  25  26
ENDBRANCH  17  25
ENDBRANCH   1  17
TORSDOF 8
