REMARK  Name = ZINC15073548
REMARK  7 active torsions:
REMARK  status: ('A' for Active; 'I' for Inactive)
REMARK    1  A    between atoms: C_4  and  C_7
REMARK    2  A    between atoms: C_7  and  N_8
REMARK    3  A    between atoms: C_12  and  C_15
REMARK    4  A    between atoms: C_12  and  O_26
REMARK    5  A    between atoms: C_15  and  N_57
REMARK    6  A    between atoms: C_16  and  C_17
REMARK    7  A    between atoms: C_16  and  N_57
REMARK                            x       y       z     vdW  Elec       q    Type
REMARK                         _______ _______ _______ _____ _____    ______ ____
ROOT
ATOM      1  N   UNL     1      -4.124   1.975   4.705  0.00  0.00    -0.299 N 
ATOM      2  C   UNL     1      -5.351   2.682   5.049  0.00  0.00    +0.108 C 
ATOM      3  C   UNL     1      -5.219   4.171   4.729  0.00  0.00    +0.022 C 
ATOM      4  C   UNL     1      -4.718   4.321   3.288  0.00  0.00    +0.044 C 
ATOM      5  C   UNL     1      -3.282   3.798   3.218  0.00  0.00    +0.127 C 
ATOM      6  C   UNL     1      -3.197   2.449   3.872  0.00  0.00    +0.245 C 
ATOM      7  O   UNL     1      -2.234   1.752   3.629  0.00  0.00    -0.273 OA
ENDROOT
BRANCH   5   8
ATOM      8  O   UNL     1      -2.412   4.707   3.894  0.00  0.00    -0.381 OA
ATOM      9  H   UNL     1      -1.482   4.441   3.888  0.00  0.00    +0.211 HD
ENDBRANCH   5   8
BRANCH   1  10
ATOM     10  C   UNL     1      -3.894   0.663   5.314  0.00  0.00    +0.111 C 
BRANCH  10  14
ATOM     11  C   UNL     1      -4.564  -2.929   2.996  0.00  0.00    +0.000 C 
ATOM     12  C   UNL     1      -4.688  -1.579   2.286  0.00  0.00    +0.000 C 
ATOM     13  C   UNL     1      -3.972  -0.505   3.106  0.00  0.00    +0.005 C 
ATOM     14  C   UNL     1      -4.610  -0.412   4.494  0.00  0.00    +0.006 C 
ATOM     15  C   UNL     1      -4.487  -1.762   5.203  0.00  0.00    +0.005 C 
ATOM     16  C   UNL     1      -5.203  -2.837   4.383  0.00  0.00    +0.000 C 
ENDBRANCH  10  14
ENDBRANCH   1  10
BRANCH   5  17
ATOM     17  C   UNL     1      -2.854   3.680   1.753  0.00  0.00    -0.037 C 
BRANCH  17  18
ATOM     18  N   UNL     1      -3.014   4.991   1.096  0.00  0.00    +0.385 N 
ATOM     19  H   UNL     1      -2.486   5.699   1.620  0.00  0.00    -0.085 HD
ATOM     20  H   UNL     1      -4.009   5.245   1.085  0.00  0.00    -0.085 HD
BRANCH  18  21
ATOM     21  C   UNL     1      -2.510   4.935  -0.289  0.00  0.00    -0.024 C 
BRANCH  21  22
ATOM     22  C   UNL     1      -2.685   6.285  -0.934  0.00  0.00    +0.049 A 
ATOM     23  C   UNL     1      -3.810   6.712  -1.653  0.00  0.00    -0.006 A 
ATOM     24  C   UNL     1      -3.579   7.976  -2.072  0.00  0.00    +0.039 A 
ATOM     25  N   UNL     1      -2.351   8.337  -1.635  0.00  0.00    -0.281 N 
ATOM     26  H   UNL     1      -1.907   9.219  -1.792  0.00  0.00    +0.189 HD
ATOM     27  N   UNL     1      -1.812   7.259  -0.924  0.00  0.00    -0.180 NA
ATOM     28  C   UNL     1      -4.764   8.493  -2.859  0.00  0.00    +0.055 C 
ATOM     29  C   UNL     1      -5.926   7.542  -2.502  0.00  0.00    +0.011 C 
ATOM     30  C   UNL     1      -5.175   6.249  -2.114  0.00  0.00    +0.039 C 
ENDBRANCH  21  22
ENDBRANCH  18  21
ENDBRANCH  17  18
ENDBRANCH   5  17
TORSDOF 7
