REMARK  Name = ZINC45064782
REMARK  11 active torsions:
REMARK  status: ('A' for Active; 'I' for Inactive)
REMARK    1  A    between atoms: C_1  and  C_2
REMARK    2  A    between atoms: C_2  and  C_4
REMARK    3  A    between atoms: C_2  and  N_16
REMARK    4  A    between atoms: N_6  and  C_7
REMARK    5  A    between atoms: C_10  and  N_14
REMARK    6  A    between atoms: N_16  and  C_17
REMARK    7  A    between atoms: N_16  and  C_18
REMARK    8  A    between atoms: C_18  and  C_19
REMARK    9  A    between atoms: C_19  and  C_20
REMARK   10  A    between atoms: C_19  and  C_21
REMARK   11  A    between atoms: C_19  and  C_22
REMARK                            x       y       z     vdW  Elec       q    Type
REMARK                         _______ _______ _______ _____ _____    ______ ____
ROOT
ATOM      1  C   UNL     1       1.316   1.079   0.206  0.00  0.00    +0.203 C 
ATOM      2  O   UNL     1       0.889   0.379   1.100  0.00  0.00    -0.277 OA
ATOM      3  N   UNL     1       2.175   2.079   0.486  0.00  0.00    -0.284 N 
ATOM      4  H   UNL     1       2.460   2.684  -0.217  0.00  0.00    +0.155 HD
ENDROOT
BRANCH   3   5
ATOM      5  C   UNL     1       2.656   2.246   1.793  0.00  0.00    +0.070 A 
ATOM      6  C   UNL     1       4.024   2.299   2.028  0.00  0.00    +0.065 A 
ATOM      7  C   UNL     1       4.498   2.463   3.315  0.00  0.00    +0.044 A 
ATOM      8  C   UNL     1       3.607   2.576   4.374  0.00  0.00    +0.027 A 
ATOM      9  C   UNL     1       2.239   2.523   4.139  0.00  0.00    +0.044 A 
ATOM     10  C   UNL     1       1.764   2.365   2.851  0.00  0.00    +0.065 A 
ATOM     11 CL   UNL     1       0.055   2.307   2.557  0.00  0.00    -0.082 Cl
ATOM     12 CL   UNL     1       5.138   2.157   0.704  0.00  0.00    -0.082 Cl
BRANCH   8  13
ATOM     13  N   UNL     1       4.086   2.742   5.678  0.00  0.00    -0.358 N 
ATOM     14  H   UNL     1       5.042   2.779   5.842  0.00  0.00    +0.142 HD
ATOM     15  H   UNL     1       3.464   2.821   6.417  0.00  0.00    +0.142 HD
ENDBRANCH   8  13
ENDBRANCH   3   5
BRANCH   1  17
ATOM     16  C   UNL     1      -0.341   1.685  -1.536  0.00  0.00    -0.004 C 
ATOM     17  C   UNL     1       0.887   0.830  -1.216  0.00  0.00    +0.016 C 
BRANCH  17  18
ATOM     18  N   UNL     1       0.552  -0.591  -1.385  0.00  0.00    +0.386 N 
ATOM     19  C   UNL     1       1.741  -1.410  -1.116  0.00  0.00    -0.095 C 
ATOM     20  H   UNL     1      -0.183  -0.842  -0.740  0.00  0.00    -0.081 HD
BRANCH  18  21
ATOM     21  C   UNL     1       0.096  -0.826  -2.762  0.00  0.00    -0.072 C 
BRANCH  21  22
ATOM     22  C   UNL     1      -0.669  -2.149  -2.826  0.00  0.00    -0.052 C 
ATOM     23  C   UNL     1      -1.818  -2.123  -1.816  0.00  0.00    +0.009 C 
ATOM     24  C   UNL     1      -1.234  -2.344  -4.235  0.00  0.00    +0.009 C 
ATOM     25  C   UNL     1       0.278  -3.304  -2.493  0.00  0.00    +0.009 C 
ENDBRANCH  21  22
ENDBRANCH  18  21
ENDBRANCH  17  18
ENDBRANCH   1  17
TORSDOF 6
