REMARK  Name = ZINC04236633
REMARK  14 active torsions:
REMARK  status: ('A' for Active; 'I' for Inactive)
REMARK    1  A    between atoms: C_1  and  C_2
REMARK    2  A    between atoms: C_2  and  C_3
REMARK    3  A    between atoms: C_2  and  N_4
REMARK    4  A    between atoms: C_5  and  O_7
REMARK    5  A    between atoms: O_7  and  C_8
REMARK    6  A    between atoms: C_12  and  C_37
REMARK    7  A    between atoms: C_15  and  C_16
REMARK    8  A    between atoms: C_15  and  C_17
REMARK    9  A    between atoms: C_17  and  O_18
REMARK   10  A    between atoms: C_21  and  O_36
REMARK   11  A    between atoms: C_23  and  C_25
REMARK   12  A    between atoms: C_25  and  C_26
REMARK   13  A    between atoms: C_32  and  C_34
REMARK   14  A    between atoms: C_34  and  O_35
REMARK                            x       y       z     vdW  Elec       q    Type
REMARK                         _______ _______ _______ _____ _____    ______ ____
ROOT
ATOM      1  C   UNL     1      -2.189   1.037   3.463  0.00  0.00    +0.186 C 
ATOM      2  C   UNL     1      -0.754   1.567   3.506  0.00  0.00    +0.046 C 
ATOM      3  C   UNL     1       0.009   1.074   2.275  0.00  0.00    +0.011 C 
ATOM      4  C   UNL     1      -0.684   1.581   1.009  0.00  0.00    -0.023 C 
ATOM      5  C   UNL     1      -2.119   1.052   0.965  0.00  0.00    +0.007 C 
ATOM      6  C   UNL     1      -2.882   1.545   2.196  0.00  0.00    +0.031 C 
ATOM      7  C   UNL     1      -4.317   1.016   2.153  0.00  0.00    +0.017 C 
ATOM      8  C   UNL     1      -2.811   1.560  -0.301  0.00  0.00    +0.007 C 
ATOM      9  C   UNL     1      -2.048   1.067  -1.532  0.00  0.00    +0.032 C 
ATOM     10  C   UNL     1      -0.613   1.596  -1.489  0.00  0.00    +0.119 C 
ATOM     11  C   UNL     1       0.079   1.088  -0.222  0.00  0.00    +0.032 C 
ATOM     12  C   UNL     1      -0.705   3.111   1.017  0.00  0.00    +0.012 C 
ENDROOT
BRANCH  10  13
ATOM     13  O   UNL     1      -0.633   3.025  -1.481  0.00  0.00    -0.391 OA
ATOM     14  H   UNL     1      -1.058   3.417  -2.256  0.00  0.00    +0.210 HD
ENDBRANCH  10  13
BRANCH   1  15
ATOM     15  O   UNL     1      -2.913   1.505   4.631  0.00  0.00    -0.446 OA
BRANCH  15  17
ATOM     16  N   UNL     1      -3.527   1.100   6.845  0.00  0.00    -0.279 N 
ATOM     17  C   UNL     1      -2.876   0.724   5.727  0.00  0.00    +0.401 C 
ATOM     18  O   UNL     1      -2.255  -0.321   5.707  0.00  0.00    -0.226 OA
ATOM     19  H   UNL     1      -4.023   1.933   6.861  0.00  0.00    +0.152 HD
BRANCH  16  21
ATOM     20  C   UNL     1      -2.224   0.562   8.844  0.00  0.00    +0.027 C 
ATOM     21  C   UNL     1      -3.486   0.250   8.038  0.00  0.00    +0.070 C 
ATOM     22  C   UNL     1      -4.721   0.520   8.899  0.00  0.00    +0.027 C 
ENDBRANCH  16  21
ENDBRANCH  15  17
ENDBRANCH   1  15
BRANCH   6  23
ATOM     23  C   UNL     1      -2.903   3.075   2.205  0.00  0.00    +0.166 C 
BRANCH  23  24
ATOM     24  O   UNL     1      -3.776   3.534   3.238  0.00  0.00    -0.394 OA
ATOM     25  H   UNL     1      -3.838   4.497   3.302  0.00  0.00    +0.209 HD
ENDBRANCH  23  24
ENDBRANCH   6  23
BRANCH  11  26
ATOM     26  C   UNL     1       1.514   1.618  -0.179  0.00  0.00    +0.102 C 
BRANCH  26  27
ATOM     27  C   UNL     1       2.300   1.034  -1.324  0.00  0.00    +0.216 C 
ATOM     28  O   UNL     1       1.765   0.269  -2.099  0.00  0.00    -0.276 OA
ATOM     29  N   UNL     1       3.597   1.361  -1.488  0.00  0.00    -0.296 N 
ATOM     30  C   UNL     1       4.367   2.278  -0.627  0.00  0.00    +0.108 C 
ATOM     31  C   UNL     1       5.518   2.793  -1.524  0.00  0.00    +0.021 C 
ATOM     32  C   UNL     1       5.857   1.529  -2.357  0.00  0.00    +0.026 C 
ATOM     33  C   UNL     1       4.477   0.867  -2.556  0.00  0.00    +0.101 C 
BRANCH  33  34
ATOM     34  C   UNL     1       4.612  -0.654  -2.458  0.00  0.00    +0.178 C 
BRANCH  34  35
ATOM     35  O   UNL     1       5.276  -0.996  -1.240  0.00  0.00    -0.393 OA
ATOM     36  H   UNL     1       5.396  -1.947  -1.111  0.00  0.00    +0.209 HD
ENDBRANCH  34  35
ENDBRANCH  33  34
ENDBRANCH  26  27
ENDBRANCH  11  26
TORSDOF 10
