REMARK  Name = ZINC40735809
REMARK  9 active torsions:
REMARK  status: ('A' for Active; 'I' for Inactive)
REMARK    1  A    between atoms: C_9  and  O_22
REMARK    2  A    between atoms: C_10  and  C_11
REMARK    3  A    between atoms: C_11  and  N_12
REMARK    4  A    between atoms: N_12  and  C_13
REMARK    5  A    between atoms: C_13  and  C_14
REMARK    6  A    between atoms: C_14  and  C_15
REMARK    7  A    between atoms: C_15  and  N_16
REMARK    8  A    between atoms: O_22  and  C_23
REMARK    9  A    between atoms: C_23  and  C_24
REMARK                            x       y       z     vdW  Elec       q    Type
REMARK                         _______ _______ _______ _____ _____    ______ ____
ROOT
ATOM      1  C   UNL     1      -0.016   1.357   0.009  0.00  0.00    +0.001 A 
ATOM      2  C   UNL     1       1.168   2.091   0.002  0.00  0.00    +0.001 A 
ATOM      3  C   UNL     1       2.378   1.468  -0.013  0.00  0.00    +0.009 A 
ATOM      4  C   UNL     1       2.438   0.064  -0.021  0.00  0.00    -0.013 A 
ATOM      5  C   UNL     1       1.232  -0.683  -0.013  0.00  0.00    -0.017 A 
ATOM      6  C   UNL     1       0.002  -0.004   0.002  0.00  0.00    +0.008 A 
ATOM      7  C   UNL     1       1.290  -2.087  -0.021  0.00  0.00    +0.012 A 
ATOM      8  C   UNL     1       2.497  -2.713  -0.036  0.00  0.00    +0.046 A 
ATOM      9  C   UNL     1       3.687  -1.979  -0.043  0.00  0.00    +0.123 A 
ATOM     10  C   UNL     1       3.668  -0.613  -0.037  0.00  0.00    -0.015 A 
ENDROOT
BRANCH  10  11
ATOM     11  C   UNL     1       4.960   0.163  -0.046  0.00  0.00    -0.042 C 
BRANCH  11  12
ATOM     12  N   UNL     1       5.393   0.408   1.336  0.00  0.00    +0.382 N 
ATOM     13  H   UNL     1       4.685   0.939   1.821  0.00  0.00    -0.085 HD
ATOM     14  H   UNL     1       5.534  -0.473   1.806  0.00  0.00    -0.085 HD
BRANCH  12  15
ATOM     15  C   UNL     1       6.652   1.165   1.327  0.00  0.00    -0.081 C 
BRANCH  15  16
ATOM     16  C   UNL     1       7.104   1.421   2.766  0.00  0.00    -0.000 C 
BRANCH  16  17
ATOM     17  C   UNL     1       8.415   2.208   2.757  0.00  0.00    +0.106 C 
BRANCH  17  18
ATOM     18  N   UNL     1       8.848   2.454   4.135  0.00  0.00    -0.302 N 
ATOM     19  C   UNL     1       8.463   3.628   4.927  0.00  0.00    +0.108 C 
ATOM     20  C   UNL     1       8.770   3.253   6.394  0.00  0.00    +0.028 C 
ATOM     21  C   UNL     1       9.879   2.190   6.224  0.00  0.00    +0.097 C 
ATOM     22  C   UNL     1       9.643   1.629   4.839  0.00  0.00    +0.216 C 
ATOM     23  O   UNL     1      10.105   0.588   4.423  0.00  0.00    -0.276 OA
ENDBRANCH  17  18
ENDBRANCH  16  17
ENDBRANCH  15  16
ENDBRANCH  12  15
ENDBRANCH  11  12
ENDBRANCH  10  11
BRANCH   9  24
ATOM     24  O   UNL     1       4.878  -2.633  -0.057  0.00  0.00    -0.487 OA
BRANCH  24  25
ATOM     25  C   UNL     1       4.834  -4.061  -0.064  0.00  0.00    +0.268 C 
BRANCH  25  26
ATOM     26  C   UNL     1       6.239  -4.607  -0.079  0.00  0.00    +0.043 A 
ATOM     27  C   UNL     1       6.875  -4.847  -1.285  0.00  0.00    +0.131 A 
ATOM     28  C   UNL     1       8.166  -5.348  -1.298  0.00  0.00    +0.039 A 
ATOM     29  C   UNL     1       8.818  -5.609  -0.107  0.00  0.00    +0.004 A 
ATOM     30  C   UNL     1       8.182  -5.370   1.097  0.00  0.00    +0.020 A 
ATOM     31  C   UNL     1       6.894  -4.863   1.111  0.00  0.00    +0.050 A 
ATOM     32 CL   UNL     1       6.100  -4.556   2.624  0.00  0.00    -0.083 Cl
ATOM     33  F   UNL     1       6.238  -4.592  -2.448  0.00  0.00    -0.205 F 
ENDBRANCH  25  26
ENDBRANCH  24  25
ENDBRANCH   9  24
TORSDOF 9
