REMARK  Name = ZINC41488539
REMARK  12 active torsions:
REMARK  status: ('A' for Active; 'I' for Inactive)
REMARK    1  A    between atoms: C_1  and  C_2
REMARK    2  A    between atoms: C_2  and  C_3
REMARK    3  A    between atoms: C_2  and  N_4
REMARK    4  A    between atoms: N_4  and  C_5
REMARK    5  A    between atoms: N_4  and  C_6
REMARK    6  A    between atoms: C_6  and  C_7
REMARK    7  A    between atoms: C_12  and  C_13
REMARK    8  A    between atoms: C_13  and  N_14
REMARK    9  A    between atoms: C_15  and  C_17
REMARK   10  A    between atoms: N_19  and  C_20
REMARK   11  A    between atoms: C_25  and  C_26
REMARK   12  A    between atoms: C_26  and  C_27
REMARK                            x       y       z     vdW  Elec       q    Type
REMARK                         _______ _______ _______ _____ _____    ______ ____
ROOT
ATOM      1  N   UNL     1      -2.205  -3.490  -2.841  0.00  0.00    -0.303 N 
ATOM      2  C   UNL     1      -1.553  -3.299  -4.006  0.00  0.00    +0.300 C 
ATOM      3  O   UNL     1      -1.740  -2.285  -4.646  0.00  0.00    -0.265 OA
ATOM      4  H   UNL     1      -2.056  -4.300  -2.329  0.00  0.00    +0.149 HD
ENDROOT
BRANCH   2   5
ATOM      5  C   UNL     1      -0.602  -4.334  -4.507  0.00  0.00    +0.303 C 
ATOM      6  O   UNL     1      -0.415  -5.348  -3.867  0.00  0.00    -0.265 OA
ATOM      7  N   UNL     1       0.050  -4.143  -5.672  0.00  0.00    -0.277 N 
ATOM      8  H   UNL     1      -0.048  -3.305  -6.150  0.00  0.00    +0.155 HD
BRANCH   7   9
ATOM      9  C   UNL     1       0.866  -5.152  -6.189  0.00  0.00    +0.037 A 
ATOM     10  C   UNL     1       1.468  -6.069  -5.335  0.00  0.00    +0.023 A 
ATOM     11  C   UNL     1       2.273  -7.064  -5.850  0.00  0.00    +0.002 A 
ATOM     12  C   UNL     1       2.482  -7.151  -7.215  0.00  0.00    +0.000 A 
ATOM     13  C   UNL     1       1.886  -6.240  -8.068  0.00  0.00    +0.006 A 
ATOM     14  C   UNL     1       1.073  -5.245  -7.560  0.00  0.00    -0.017 A 
BRANCH  14  15
ATOM     15  C   UNL     1       0.418  -4.258  -8.491  0.00  0.00    +0.132 C 
BRANCH  15  16
ATOM     16  C   UNL     1       1.271  -3.020  -8.592  0.00  0.00    +0.215 C 
ATOM     17  O   UNL     1       2.309  -2.947  -7.970  0.00  0.00    -0.276 OA
ATOM     18  N   UNL     1       0.880  -1.995  -9.374  0.00  0.00    -0.329 N 
ATOM     19  H   UNL     1       0.050  -2.053  -9.872  0.00  0.00    +0.145 HD
ATOM     20  H   UNL     1       1.430  -1.198  -9.440  0.00  0.00    +0.145 HD
ENDBRANCH  15  16
ENDBRANCH  14  15
ENDBRANCH   7   9
ENDBRANCH   2   5
BRANCH   1  21
ATOM     21  C   UNL     1      -3.139  -2.474  -2.349  0.00  0.00    +0.140 C 
BRANCH  21  27
ATOM     22  C   UNL     1      -2.862  -2.596   0.135  0.00  0.00    -0.059 A 
ATOM     23  C   UNL     1      -3.317  -2.951   1.392  0.00  0.00    +0.002 A 
ATOM     24  C   UNL     1      -4.540  -3.581   1.532  0.00  0.00    +0.000 A 
ATOM     25  C   UNL     1      -5.308  -3.856   0.415  0.00  0.00    +0.000 A 
ATOM     26  C   UNL     1      -4.853  -3.500  -0.841  0.00  0.00    +0.005 A 
ATOM     27  C   UNL     1      -3.632  -2.866  -0.980  0.00  0.00    -0.029 A 
BRANCH  22  28
ATOM     28  C   UNL     1      -1.529  -1.910  -0.017  0.00  0.00    -0.043 C 
BRANCH  28  29
ATOM     29  N   UNL     1      -0.511  -2.896  -0.402  0.00  0.00    +0.382 N 
ATOM     30  C   UNL     1      -0.327  -3.861   0.690  0.00  0.00    -0.095 C 
ATOM     31  H   UNL     1      -0.812  -3.383  -1.234  0.00  0.00    -0.081 HD
BRANCH  29  33
ATOM     32  C   UNL     1       1.820  -3.237  -1.070  0.00  0.00    -0.014 C 
ATOM     33  C   UNL     1       0.760  -2.210  -0.669  0.00  0.00    -0.075 C 
ATOM     34  C   UNL     1       0.568  -1.205  -1.806  0.00  0.00    -0.014 C 
ENDBRANCH  29  33
ENDBRANCH  28  29
ENDBRANCH  22  28
ENDBRANCH  21  27
ENDBRANCH   1  21
TORSDOF 9
