REMARK  Name = ZINC03043012
REMARK  9 active torsions:
REMARK  status: ('A' for Active; 'I' for Inactive)
REMARK    1  A    between atoms: C_1  and  C_2
REMARK    2  A    between atoms: C_7  and  C_8
REMARK    3  A    between atoms: C_8  and  N_9
REMARK    4  A    between atoms: N_17  and  N_18
REMARK    5  A    between atoms: N_18  and  C_19
REMARK    6  A    between atoms: C_19  and  N_21
REMARK    7  A    between atoms: N_21  and  C_22
REMARK    8  A    between atoms: C_24  and  C_29
REMARK    9  A    between atoms: C_26  and  C_28
REMARK                            x       y       z     vdW  Elec       q    Type
REMARK                         _______ _______ _______ _____ _____    ______ ____
ROOT
ATOM      1  N   UNL     1      -1.120   0.906   2.913  0.00  0.00    -0.261 N 
ATOM      2  C   UNL     1      -1.616   1.846   2.015  0.00  0.00    +0.046 A 
ATOM      3  C   UNL     1      -1.004   2.558   0.989  0.00  0.00    +0.025 A 
ATOM      4  C   UNL     1      -1.736   3.449   0.231  0.00  0.00    +0.017 A 
ATOM      5  C   UNL     1      -3.084   3.646   0.481  0.00  0.00    +0.019 A 
ATOM      6  C   UNL     1      -3.709   2.949   1.496  0.00  0.00    +0.027 A 
ATOM      7  C   UNL     1      -2.979   2.049   2.265  0.00  0.00    +0.029 A 
ATOM      8  C   UNL     1      -3.333   1.163   3.399  0.00  0.00    +0.153 C 
ATOM      9  N   UNL     1      -4.507   1.026   3.969  0.00  0.00    -0.175 NA
ATOM     10  C   UNL     1      -2.079   0.466   3.744  0.00  0.00    +0.272 C 
ATOM     11  O   UNL     1      -1.939  -0.360   4.626  0.00  0.00    -0.268 OA
ATOM     12 BR   UNL     1      -4.069   4.872  -0.569  0.00  0.00    -0.050 Br
ENDROOT
BRANCH   9  13
ATOM     13  N   UNL     1      -4.665   0.136   5.039  0.00  0.00    -0.217 N 
ATOM     14  H   UNL     1      -3.908  -0.378   5.359  0.00  0.00    +0.176 HD
BRANCH  13  15
ATOM     15  C   UNL     1      -5.871  -0.005   5.625  0.00  0.00    +0.154 C 
ATOM     16  S   UNL     1      -6.065  -1.093   6.933  0.00  0.00    -0.017 S 
BRANCH  15  17
ATOM     17  N   UNL     1      -6.924   0.709   5.181  0.00  0.00    -0.296 N 
ATOM     18  H   UNL     1      -6.801   1.370   4.481  0.00  0.00    +0.154 HD
BRANCH  17  19
ATOM     19  C   UNL     1      -8.194   0.498   5.728  0.00  0.00    +0.033 A 
ATOM     20  C   UNL     1      -8.351   0.403   7.105  0.00  0.00    +0.026 A 
ATOM     21  C   UNL     1      -9.606   0.194   7.642  0.00  0.00    -0.048 A 
ATOM     22  C   UNL     1     -10.705   0.079   6.811  0.00  0.00    +0.006 A 
ATOM     23  C   UNL     1     -10.552   0.173   5.440  0.00  0.00    -0.048 A 
ATOM     24  C   UNL     1      -9.300   0.388   4.896  0.00  0.00    +0.026 A 
ATOM     25  C   UNL     1     -11.752   0.046   4.538  0.00  0.00    +0.044 C 
ATOM     26  C   UNL     1      -9.777   0.091   9.136  0.00  0.00    +0.044 C 
ENDBRANCH  17  19
ENDBRANCH  15  17
ENDBRANCH  13  15
ENDBRANCH   9  13
BRANCH   1  27
ATOM     27  C   UNL     1       0.272   0.450   2.943  0.00  0.00    +0.149 C 
BRANCH  27  34
ATOM     28  C   UNL     1       3.119   0.053   3.233  0.00  0.00    +0.044 C 
ATOM     29  C   UNL     1       2.415   1.096   4.063  0.00  0.00    -0.046 A 
ATOM     30  C   UNL     1       3.133   1.866   4.959  0.00  0.00    +0.003 A 
ATOM     31  C   UNL     1       2.487   2.822   5.720  0.00  0.00    +0.000 A 
ATOM     32  C   UNL     1       1.124   3.009   5.585  0.00  0.00    +0.000 A 
ATOM     33  C   UNL     1       0.407   2.239   4.689  0.00  0.00    +0.005 A 
ATOM     34  C   UNL     1       1.053   1.286   3.925  0.00  0.00    -0.027 A 
ENDBRANCH  27  34
ENDBRANCH   1  27
TORSDOF 6
