REMARK  Name = ZINC52757647
REMARK  10 active torsions:
REMARK  status: ('A' for Active; 'I' for Inactive)
REMARK    1  A    between atoms: C_1  and  C_2
REMARK    2  A    between atoms: C_2  and  C_3
REMARK    3  A    between atoms: C_3  and  C_5
REMARK    4  A    between atoms: C_3  and  N_24
REMARK    5  A    between atoms: C_5  and  C_7
REMARK    6  A    between atoms: C_5  and  N_14
REMARK    7  A    between atoms: C_18  and  C_20
REMARK    8  A    between atoms: C_20  and  C_21
REMARK    9  A    between atoms: C_21  and  C_22
REMARK   10  A    between atoms: C_22  and  O_23
REMARK                            x       y       z     vdW  Elec       q    Type
REMARK                         _______ _______ _______ _____ _____    ______ ____
ROOT
ATOM      1  C   UNL     1       0.237  -2.443  -1.686  0.00  0.00    +0.073 C 
ENDROOT
BRANCH   1   2
ATOM      2  C   UNL     1      -1.204  -2.817  -1.450  0.00  0.00    -0.031 A 
ATOM      3  C   UNL     1      -2.152  -2.561  -2.423  0.00  0.00    +0.005 A 
ATOM      4  C   UNL     1      -3.474  -2.903  -2.207  0.00  0.00    +0.001 A 
ATOM      5  C   UNL     1      -3.848  -3.502  -1.018  0.00  0.00    +0.015 A 
ATOM      6  C   UNL     1      -2.899  -3.758  -0.045  0.00  0.00    +0.018 A 
ATOM      7  C   UNL     1      -1.576  -3.420  -0.264  0.00  0.00    +0.020 A 
ATOM      8 BR   UNL     1      -3.410  -4.577   1.581  0.00  0.00    -0.050 Br
ENDBRANCH   1   2
BRANCH   1   9
ATOM      9  N   UNL     1       0.706  -3.062  -2.933  0.00  0.00    -0.294 NA
ATOM     10  C   UNL     1      -0.106  -4.251  -3.272  0.00  0.00    +0.085 C 
ATOM     11  C   UNL     1       0.886  -5.226  -3.954  0.00  0.00    +0.017 C 
ATOM     12  C   UNL     1       2.179  -4.984  -3.130  0.00  0.00    +0.020 C 
ATOM     13  C   UNL     1       2.117  -3.473  -2.821  0.00  0.00    +0.057 C 
BRANCH  13  14
ATOM     14  C   UNL     1       2.625  -3.211  -1.402  0.00  0.00    +0.021 C 
BRANCH  14  15
ATOM     15  C   UNL     1       4.125  -3.504  -1.334  0.00  0.00    +0.029 C 
BRANCH  15  16
ATOM     16  C   UNL     1       4.609  -3.354   0.109  0.00  0.00    +0.156 C 
BRANCH  16  17
ATOM     17  O   UNL     1       6.028  -3.516   0.154  0.00  0.00    -0.395 OA
ATOM     18  H   UNL     1       6.405  -3.433   1.041  0.00  0.00    +0.209 HD
ENDBRANCH  16  17
ENDBRANCH  15  16
ENDBRANCH  14  15
ENDBRANCH  13  14
ENDBRANCH   1   9
BRANCH   1  19
ATOM     19  C   UNL     1       0.358  -0.922  -1.795  0.00  0.00    -0.053 C 
BRANCH  19  20
ATOM     20  N   UNL     1       1.716  -0.568  -2.229  0.00  0.00    +0.381 N 
ATOM     21  H   UNL     1       2.352  -0.656  -1.450  0.00  0.00    -0.090 HD
ATOM     22  H   UNL     1       2.005  -1.190  -2.970  0.00  0.00    -0.090 HD
ATOM     23  H   UNL     1       1.725   0.383  -2.565  0.00  0.00    -0.090 HD
ENDBRANCH  19  20
BRANCH  19  25
ATOM     24  C   UNL     1       0.076   1.235  -0.566  0.00  0.00    +0.002 C 
ATOM     25  C   UNL     1       0.078  -0.289  -0.430  0.00  0.00    -0.018 C 
ENDBRANCH  19  25
ENDBRANCH   1  19
TORSDOF 9
