REMARK  Name = ZINC67373203
REMARK  10 active torsions:
REMARK  status: ('A' for Active; 'I' for Inactive)
REMARK    1  A    between atoms: C_1  and  C_2
REMARK    2  A    between atoms: N_5  and  C_8
REMARK    3  A    between atoms: C_8  and  C_9
REMARK    4  A    between atoms: C_9  and  C_11
REMARK    5  A    between atoms: C_9  and  O_26
REMARK    6  A    between atoms: C_11  and  N_12
REMARK    7  A    between atoms: N_12  and  C_13
REMARK    8  A    between atoms: C_16  and  S_22
REMARK    9  A    between atoms: C_18  and  N_19
REMARK   10  A    between atoms: S_22  and  N_25
REMARK                            x       y       z     vdW  Elec       q    Type
REMARK                         _______ _______ _______ _____ _____    ______ ____
ROOT
ATOM      1  N   UNL     1       0.092  -6.375   4.366  0.00  0.00    -0.340 N 
ATOM      2  H   UNL     1       0.359  -5.723   5.032  0.00  0.00    +0.146 HD
ENDROOT
BRANCH   1   3
ATOM      3  C   UNL     1       0.477  -7.711   4.504  0.00  0.00    +0.058 A 
ATOM      4  C   UNL     1      -0.004  -8.668   3.619  0.00  0.00    +0.027 A 
ATOM      5  C   UNL     1       0.379  -9.988   3.758  0.00  0.00    +0.030 A 
ATOM      6  C   UNL     1       1.240 -10.357   4.775  0.00  0.00    +0.107 A 
ATOM      7  C   UNL     1       1.720  -9.406   5.657  0.00  0.00    +0.063 A 
ATOM      8  C   UNL     1       1.346  -8.084   5.521  0.00  0.00    +0.149 A 
BRANCH   8   9
ATOM      9  N   UNL     1       1.865  -7.066   6.462  0.00  0.00    +0.058 N 
ATOM     10  O   UNL     1       2.146  -5.960   6.062  0.00  0.00    -0.126 OA
ATOM     11  O   UNL     1       2.010  -7.341   7.630  0.00  0.00    -0.126 OA
ENDBRANCH   8   9
BRANCH   6  12
ATOM     12  S   UNL     1       1.725 -12.042   4.948  0.00  0.00    +0.056 S 
ATOM     13  O   UNL     1       2.104 -12.218   6.307  0.00  0.00    -0.153 OA
ATOM     14  O   UNL     1       0.710 -12.822   4.333  0.00  0.00    -0.153 OA
BRANCH  12  15
ATOM     15  N   UNL     1       3.096 -12.251   4.044  0.00  0.00    -0.204 NA
ATOM     16  H   UNL     1       3.757 -12.911   4.309  0.00  0.00    +0.144 HD
ATOM     17  H   UNL     1       3.240 -11.715   3.248  0.00  0.00    +0.144 HD
ENDBRANCH  12  15
ENDBRANCH   6  12
ENDBRANCH   1   3
BRANCH   1  18
ATOM     18  C   UNL     1      -0.714  -5.960   3.216  0.00  0.00    +0.131 C 
BRANCH  18  19
ATOM     19  C   UNL     1      -0.995  -4.458   3.305  0.00  0.00    +0.115 C 
BRANCH  19  20
ATOM     20  O   UNL     1      -1.707  -4.178   4.513  0.00  0.00    -0.392 OA
ATOM     21  H   UNL     1      -2.558  -4.632   4.582  0.00  0.00    +0.210 HD
ENDBRANCH  19  20
BRANCH  19  22
ATOM     22  C   UNL     1      -1.838  -4.025   2.104  0.00  0.00    -0.046 C 
BRANCH  22  27
ATOM     23  C   UNL     1      -2.046   1.586   1.107  0.00  0.00    +0.007 C 
ATOM     24  C   UNL     1      -1.821   0.080   0.961  0.00  0.00    -0.018 C 
ATOM     25  C   UNL     1      -3.156  -0.654   1.111  0.00  0.00    -0.016 C 
ATOM     26  C   UNL     1      -2.913  -2.163   1.043  0.00  0.00    -0.078 C 
ATOM     27  N   UNL     1      -2.007  -2.566   2.126  0.00  0.00    +0.381 N 
ATOM     28  C   UNL     1      -0.700  -1.921   1.948  0.00  0.00    -0.078 C 
ATOM     29  C   UNL     1      -0.859  -0.402   2.050  0.00  0.00    -0.016 C 
ATOM     30  H   UNL     1      -2.400  -2.288   3.013  0.00  0.00    -0.082 HD
ENDBRANCH  22  27
ENDBRANCH  19  22
ENDBRANCH  18  19
ENDBRANCH   1  18
TORSDOF 9
