REMARK  Name = ZINC12883182
REMARK  8 active torsions:
REMARK  status: ('A' for Active; 'I' for Inactive)
REMARK    1  A    between atoms: C_1  and  C_2
REMARK    2  A    between atoms: C_2  and  C_3
REMARK    3  A    between atoms: C_17  and  C_19
REMARK    4  A    between atoms: C_19  and  C_20
REMARK    5  A    between atoms: C_20  and  C_21
REMARK    6  A    between atoms: N_26  and  C_29
REMARK    7  A    between atoms: C_29  and  C_30
REMARK    8  A    between atoms: C_30  and  C_31
REMARK                            x       y       z     vdW  Elec       q    Type
REMARK                         _______ _______ _______ _____ _____    ______ ____
ROOT
ATOM      1  C   UNL     1       2.228   5.095   6.330  0.00  0.00    -0.026 A 
ATOM      2  C   UNL     1       1.552   5.948   5.483  0.00  0.00    +0.005 A 
ATOM      3  C   UNL     1       0.646   5.449   4.566  0.00  0.00    +0.001 A 
ATOM      4  C   UNL     1       0.417   4.085   4.497  0.00  0.00    +0.004 A 
ATOM      5  C   UNL     1       1.090   3.230   5.340  0.00  0.00    -0.027 A 
ATOM      6  C   UNL     1       2.003   3.722   6.268  0.00  0.00    +0.039 A 
ATOM      7  N   UNL     1       2.554   2.672   7.006  0.00  0.00    -0.286 N 
ATOM      8  C   UNL     1       2.063   1.475   6.631  0.00  0.00    +0.211 C 
ATOM      9  O   UNL     1       2.358   0.394   7.095  0.00  0.00    -0.277 OA
ATOM     10  C   UNL     1       1.079   1.739   5.525  0.00  0.00    +0.050 C 
ATOM     11  C   UNL     1       1.477   1.010   4.235  0.00  0.00    +0.088 C 
ATOM     12  C   UNL     1       0.605  -0.276   4.229  0.00  0.00    +0.073 C 
ATOM     13  C   UNL     1      -0.224  -0.200   5.528  0.00  0.00    -0.057 C 
ATOM     14  C   UNL     1      -0.311  -0.071   3.044  0.00  0.00    +0.224 C 
ATOM     15  O   UNL     1      -1.174  -0.843   2.684  0.00  0.00    -0.275 OA
ATOM     16  N   UNL     1      -0.020   1.094   2.454  0.00  0.00    -0.241 N 
ATOM     17  C   UNL     1       0.967   1.782   3.039  0.00  0.00    +0.225 C 
ATOM     18  O   UNL     1       1.387   2.857   2.667  0.00  0.00    -0.275 OA
ATOM     19  H   UNL     1       3.214   2.791   7.708  0.00  0.00    +0.155 HD
ATOM     20  N   UNL     1      -0.238   1.227   5.856  0.00  0.00    +0.394 N 
ATOM     21  H   UNL     1      -0.957   1.711   5.304  0.00  0.00    -0.083 HD
ATOM     22  H   UNL     1      -0.429   1.359   6.857  0.00  0.00    -0.083 HD
ENDROOT
BRANCH   1  24
ATOM     23  C   UNL     1       4.623   5.593   6.736  0.00  0.00    +0.009 C 
ATOM     24  C   UNL     1       3.213   5.650   7.327  0.00  0.00    +0.033 C 
ENDBRANCH   1  24
BRANCH  13  25
ATOM     25  C   UNL     1      -1.638  -0.733   5.290  0.00  0.00    -0.006 C 
BRANCH  25  26
ATOM     26  C   UNL     1      -2.426  -0.693   6.601  0.00  0.00    +0.094 C 
BRANCH  26  27
ATOM     27  C   UNL     1      -3.819  -1.217   6.365  0.00  0.00    +0.210 C 
ATOM     28  O   UNL     1      -4.149  -1.587   5.258  0.00  0.00    -0.276 OA
ATOM     29  N   UNL     1      -4.698  -1.276   7.385  0.00  0.00    -0.329 N 
ATOM     30  H   UNL     1      -4.434  -0.980   8.271  0.00  0.00    +0.145 HD
ATOM     31  H   UNL     1      -5.595  -1.613   7.234  0.00  0.00    +0.145 HD
ENDBRANCH  26  27
ENDBRANCH  25  26
ENDBRANCH  13  25
BRANCH  16  32
ATOM     32  C   UNL     1      -0.729   1.579   1.267  0.00  0.00    +0.121 C 
BRANCH  32  33
ATOM     33  C   UNL     1      -0.013   1.086   0.008  0.00  0.00    +0.054 C 
BRANCH  33  34
ATOM     34  C   UNL     1      -0.742   1.585  -1.213  0.00  0.00    -0.046 A 
ATOM     35  C   UNL     1      -1.750   0.825  -1.775  0.00  0.00    +0.004 A 
ATOM     36  C   UNL     1      -2.422   1.285  -2.892  0.00  0.00    +0.000 A 
ATOM     37  C   UNL     1      -2.078   2.501  -3.453  0.00  0.00    +0.000 A 
ATOM     38  C   UNL     1      -1.066   3.259  -2.894  0.00  0.00    +0.000 A 
ATOM     39  C   UNL     1      -0.398   2.801  -1.774  0.00  0.00    +0.004 A 
ENDBRANCH  33  34
ENDBRANCH  32  33
ENDBRANCH  16  32
TORSDOF 7
