REMARK  Name = ZINC63308326
REMARK  10 active torsions:
REMARK  status: ('A' for Active; 'I' for Inactive)
REMARK    1  A    between atoms: C_1  and  C_2
REMARK    2  A    between atoms: C_7  and  N_8
REMARK    3  A    between atoms: N_8  and  C_9
REMARK    4  A    between atoms: C_9  and  N_11
REMARK    5  A    between atoms: N_13  and  C_14
REMARK    6  A    between atoms: C_16  and  C_21
REMARK    7  A    between atoms: C_18  and  C_20
REMARK    8  A    between atoms: N_22  and  C_23
REMARK    9  A    between atoms: C_23  and  C_24
REMARK   10  A    between atoms: C_24  and  C_25
REMARK                            x       y       z     vdW  Elec       q    Type
REMARK                         _______ _______ _______ _____ _____    ______ ____
ROOT
ATOM      1  N   UNL     1      -0.546  -0.311   4.883  0.00  0.00    -0.267 N 
ATOM      2  C   UNL     1      -0.403  -0.627   6.214  0.00  0.00    +0.198 C 
ATOM      3  N   UNL     1      -0.582  -1.866   6.619  0.00  0.00    -0.179 NA
ATOM      4  N   UNL     1      -0.074   0.348   7.117  0.00  0.00    -0.357 N 
ATOM      5  H   UNL     1      -0.414   0.602   4.585  0.00  0.00    +0.157 HD
ATOM      6  H   UNL     1       0.113   0.111   8.039  0.00  0.00    +0.162 HD
ENDROOT
BRANCH   3   7
ATOM      7  C   UNL     1      -0.765  -2.129   7.942  0.00  0.00    +0.254 A 
ATOM      8  N   UNL     1      -0.899  -1.117   8.795  0.00  0.00    -0.216 NA
ATOM      9  C   UNL     1      -1.079  -1.341  10.085  0.00  0.00    +0.044 A 
ATOM     10  C   UNL     1      -1.126  -2.648  10.545  0.00  0.00    +0.046 A 
ATOM     11  C   UNL     1      -0.983  -3.682   9.631  0.00  0.00    +0.044 A 
ATOM     12  N   UNL     1      -0.811  -3.394   8.353  0.00  0.00    -0.216 NA
ATOM     13  C   UNL     1      -1.028  -5.116  10.090  0.00  0.00    +0.066 C 
ATOM     14  C   UNL     1      -1.229  -0.189  11.044  0.00  0.00    +0.066 C 
ENDBRANCH   3   7
BRANCH   1  15
ATOM     15  C   UNL     1      -0.870  -1.271   3.994  0.00  0.00    +0.141 C 
ATOM     16  S   UNL     1      -1.103  -2.883   4.521  0.00  0.00    -0.018 S 
BRANCH  15  17
ATOM     17  N   UNL     1      -1.010  -0.962   2.690  0.00  0.00    -0.296 N 
ATOM     18  H   UNL     1      -0.810  -0.064   2.380  0.00  0.00    +0.154 HD
BRANCH  17  25
ATOM     19  C   UNL     1      -3.183  -0.322   0.968  0.00  0.00    +0.045 C 
ATOM     20  C   UNL     1      -2.500  -1.664   0.924  0.00  0.00    -0.029 A 
ATOM     21  C   UNL     1      -2.921  -2.625   0.026  0.00  0.00    +0.005 A 
ATOM     22  C   UNL     1      -2.295  -3.857  -0.015  0.00  0.00    +0.000 A 
ATOM     23  C   UNL     1      -1.245  -4.132   0.843  0.00  0.00    +0.002 A 
ATOM     24  C   UNL     1      -0.819  -3.176   1.744  0.00  0.00    +0.023 A 
ATOM     25  C   UNL     1      -1.442  -1.935   1.783  0.00  0.00    +0.036 A 
ENDBRANCH  17  25
ENDBRANCH  15  17
ENDBRANCH   1  15
BRANCH   4  26
ATOM     26  C   UNL     1      -0.007   1.748   6.691  0.00  0.00    +0.120 C 
BRANCH  26  27
ATOM     27  C   UNL     1       0.495   2.610   7.851  0.00  0.00    +0.054 C 
BRANCH  27  28
ATOM     28  C   UNL     1       0.451   4.063   7.454  0.00  0.00    -0.040 C 
ATOM     29  C   UNL     1      -0.559   4.935   7.674  0.00  0.00    +0.000 A 
ATOM     30  C   UNL     1      -1.868   4.798   8.323  0.00  0.00    +0.030 A 
ATOM     31  C   UNL     1      -2.682   5.876   8.393  0.00  0.00    +0.042 A 
ATOM     32  C   UNL     1      -2.308   7.119   7.859  0.00  0.00    +0.022 A 
ATOM     33  C   UNL     1      -1.122   7.322   7.248  0.00  0.00    +0.027 A 
ATOM     34  C   UNL     1      -0.188   6.257   7.120  0.00  0.00    +0.043 A 
ATOM     35  N   UNL     1       1.005   6.203   6.578  0.00  0.00    -0.380 N 
ATOM     36  C   UNL     1       1.529   4.842   6.734  0.00  0.00    +0.144 C 
ATOM     37 CL   UNL     1      -4.231   5.718   9.160  0.00  0.00    -0.084 Cl
ATOM     38  H   UNL     1       1.466   6.942   6.150  0.00  0.00    +0.160 HD
ENDBRANCH  27  28
ENDBRANCH  26  27
ENDBRANCH   4  26
TORSDOF 7
