REMARK  Name = ZINC06453155
REMARK  5 active torsions:
REMARK  status: ('A' for Active; 'I' for Inactive)
REMARK    1  A    between atoms: C_3  and  O_9
REMARK    2  A    between atoms: O_9  and  C_10
REMARK    3  A    between atoms: C_10  and  C_11
REMARK    4  A    between atoms: N_13  and  C_14
REMARK    5  A    between atoms: C_15  and  C_19
REMARK                            x       y       z     vdW  Elec       q    Type
REMARK                         _______ _______ _______ _____ _____    ______ ____
ROOT
ATOM      1  C   UNL     1       3.712  -0.860  -0.038  0.00  0.00    +0.255 C 
ATOM      2  O   UNL     1       4.663  -0.107  -0.043  0.00  0.00    -0.272 OA
ATOM      3  N   UNL     1       3.909  -2.193  -0.047  0.00  0.00    -0.277 N 
ATOM      4  H   UNL     1       3.148  -2.796  -0.043  0.00  0.00    +0.155 HD
ENDROOT
BRANCH   3   5
ATOM      5  C   UNL     1       5.197  -2.704  -0.062  0.00  0.00    +0.084 A 
ATOM      6  C   UNL     1       5.599  -4.035  -0.067  0.00  0.00    +0.065 A 
ATOM      7  C   UNL     1       7.020  -4.285  -0.087  0.00  0.00    +0.022 A 
ATOM      8  C   UNL     1       7.832  -3.212  -0.089  0.00  0.00    +0.048 A 
ATOM      9  S   UNL     1       6.698  -1.840  -0.071  0.00  0.00    -0.081 S 
BRANCH   6  10
ATOM     10  C   UNL     1       4.625  -5.132  -0.057  0.00  0.00    +0.244 C 
ATOM     11  O   UNL     1       3.433  -4.887  -0.043  0.00  0.00    -0.270 OA
ATOM     12  N   UNL     1       5.051  -6.411  -0.062  0.00  0.00    -0.325 N 
ATOM     13  H   UNL     1       6.001  -6.606  -0.073  0.00  0.00    +0.145 HD
ATOM     14  H   UNL     1       4.407  -7.136  -0.055  0.00  0.00    +0.145 HD
ENDBRANCH   6  10
ENDBRANCH   3   5
BRANCH   1  15
ATOM     15  C   UNL     1       2.312  -0.304  -0.022  0.00  0.00    +0.325 C 
BRANCH  15  16
ATOM     16  O   UNL     1       2.366   1.123  -0.015  0.00  0.00    -0.482 OA
BRANCH  16  19
ATOM     17  C   UNL     1      -1.218   1.751   0.017  0.00  0.00    +0.023 A 
ATOM     18  C   UNL     1      -0.013   1.076   0.008  0.00  0.00    +0.048 A 
ATOM     19  C   UNL     1       1.179   1.786   0.000  0.00  0.00    +0.135 A 
ATOM     20  C   UNL     1       1.157   3.174   0.008  0.00  0.00    +0.061 A 
ATOM     21  C   UNL     1      -0.051   3.845   0.022  0.00  0.00    +0.039 A 
ATOM     22  C   UNL     1      -1.238   3.134   0.030  0.00  0.00    +0.042 A 
ATOM     23 CL   UNL     1      -2.754   3.979   0.048  0.00  0.00    -0.084 Cl
ATOM     24 BR   UNL     1       2.779   4.145  -0.002  0.00  0.00    -0.046 Br
ENDBRANCH  16  19
ENDBRANCH  15  16
ENDBRANCH   1  15
TORSDOF 5
