REMARK  Name = ZINC39982614
REMARK  10 active torsions:
REMARK  status: ('A' for Active; 'I' for Inactive)
REMARK    1  A    between atoms: C_1  and  C_2
REMARK    2  A    between atoms: C_4  and  C_12
REMARK    3  A    between atoms: C_12  and  C_14
REMARK    4  A    between atoms: C_14  and  C_16
REMARK    5  A    between atoms: C_14  and  S_17
REMARK    6  A    between atoms: S_17  and  C_18
REMARK    7  A    between atoms: C_22  and  C_32
REMARK    8  A    between atoms: N_23  and  C_24
REMARK    9  A    between atoms: C_24  and  C_25
REMARK   10  A    between atoms: C_25  and  N_26
REMARK                            x       y       z     vdW  Elec       q    Type
REMARK                         _______ _______ _______ _____ _____    ______ ____
ROOT
ATOM      1  C   UNL     1      -6.061  -2.260  -1.893  0.00  0.00    +0.237 C 
ATOM      2  N   UNL     1      -7.163  -1.877  -0.994  0.00  0.00    -0.237 N 
ATOM      3  N   UNL     1      -7.145  -2.796   0.063  0.00  0.00    -0.169 NA
ATOM      4  C   UNL     1      -6.198  -3.664  -0.079  0.00  0.00    +0.148 C 
ATOM      5  N   UNL     1      -5.463  -3.440  -1.245  0.00  0.00    -0.284 N 
ATOM      6  H   UNL     1      -7.778  -1.137  -1.110  0.00  0.00    +0.171 HD
ENDROOT
BRANCH   4   7
ATOM      7  C   UNL     1      -5.927  -4.760   0.875  0.00  0.00    +0.017 A 
ATOM      8  C   UNL     1      -4.666  -5.356   0.916  0.00  0.00    +0.014 A 
ATOM      9  C   UNL     1      -4.418  -6.379   1.808  0.00  0.00    +0.039 A 
ATOM     10  C   UNL     1      -5.419  -6.814   2.662  0.00  0.00    +0.123 A 
ATOM     11  C   UNL     1      -6.673  -6.225   2.625  0.00  0.00    +0.039 A 
ATOM     12  C   UNL     1      -6.930  -5.198   1.741  0.00  0.00    +0.014 A 
ATOM     13  F   UNL     1      -5.171  -7.816   3.534  0.00  0.00    -0.205 F 
ENDBRANCH   4   7
BRANCH   1  14
ATOM     14  S   UNL     1      -4.846  -0.919  -2.018  0.00  0.00    -0.107 S 
BRANCH  14  15
ATOM     15  C   UNL     1      -4.346  -0.619  -0.301  0.00  0.00    +0.117 C 
ATOM     16  C   UNL     1      -5.542  -0.094   0.495  0.00  0.00    +0.027 C 
BRANCH  15  17
ATOM     17  C   UNL     1      -3.237   0.402  -0.272  0.00  0.00    +0.174 C 
ATOM     18  O   UNL     1      -3.100   1.176  -1.197  0.00  0.00    -0.291 OA
BRANCH  17  21
ATOM     19  C   UNL     1      -1.549   2.815   0.934  0.00  0.00    +0.035 C 
ATOM     20  C   UNL     1      -1.140   1.341   0.986  0.00  0.00    +0.111 C 
ATOM     21  C   UNL     1      -2.357   0.457   0.830  0.00  0.00    +0.027 C 
ATOM     22  C   UNL     1      -2.427  -0.287   1.994  0.00  0.00    +0.006 A 
ATOM     23  C   UNL     1      -3.328  -1.278   2.450  0.00  0.00    +0.010 A 
ATOM     24  C   UNL     1      -3.153  -1.852   3.662  0.00  0.00    +0.001 A 
ATOM     25  C   UNL     1      -2.093  -1.505   4.515  0.00  0.00    +0.002 A 
ATOM     26  C   UNL     1      -1.179  -0.572   4.174  0.00  0.00    +0.026 A 
ATOM     27  C   UNL     1      -1.296   0.103   2.871  0.00  0.00    +0.043 A 
ATOM     28  N   UNL     1      -0.570   1.022   2.299  0.00  0.00    -0.377 N 
ATOM     29  H   UNL     1       0.223   1.432   2.680  0.00  0.00    +0.160 HD
ENDBRANCH  17  21
ENDBRANCH  15  17
ENDBRANCH  14  15
ENDBRANCH   1  14
BRANCH   5  30
ATOM     30  C   UNL     1      -4.322  -4.221  -1.730  0.00  0.00    +0.124 C 
BRANCH  30  31
ATOM     31  C   UNL     1      -3.020  -3.554  -1.283  0.00  0.00    +0.103 C 
BRANCH  31  32
ATOM     32  N   UNL     1      -1.876  -4.329  -1.781  0.00  0.00    -0.297 NA
ATOM     33  C   UNL     1      -1.819  -5.653  -1.145  0.00  0.00    +0.112 C 
ATOM     34  C   UNL     1      -0.651  -6.448  -1.735  0.00  0.00    +0.175 C 
ATOM     35  O   UNL     1       0.560  -5.709  -1.557  0.00  0.00    -0.377 OA
ATOM     36  C   UNL     1       0.540  -4.414  -2.165  0.00  0.00    +0.175 C 
ATOM     37  C   UNL     1      -0.616  -3.599  -1.579  0.00  0.00    +0.112 C 
ENDBRANCH  31  32
ENDBRANCH  30  31
ENDBRANCH   5  30
TORSDOF 8
