REMARK  Name = ZINC59855204
REMARK  10 active torsions:
REMARK  status: ('A' for Active; 'I' for Inactive)
REMARK    1  A    between atoms: C_1  and  C_2
REMARK    2  A    between atoms: C_2  and  N_3
REMARK    3  A    between atoms: N_6  and  S_9
REMARK    4  A    between atoms: S_9  and  C_12
REMARK    5  A    between atoms: C_16  and  N_18
REMARK    6  A    between atoms: C_19  and  C_21
REMARK    7  A    between atoms: C_26  and  N_27
REMARK    8  A    between atoms: N_30  and  C_31
REMARK    9  A    between atoms: C_31  and  C_32
REMARK   10  A    between atoms: C_31  and  C_33
REMARK                            x       y       z     vdW  Elec       q    Type
REMARK                         _______ _______ _______ _____ _____    ______ ____
ROOT
ATOM      1  N   UNL     1       5.564  -4.602  -6.360  0.00  0.00    -0.281 N 
ATOM      2  C   UNL     1       6.813  -4.255  -6.729  0.00  0.00    +0.250 C 
ATOM      3  O   UNL     1       7.020  -3.163  -7.223  0.00  0.00    -0.270 OA
ATOM      4  H   UNL     1       5.410  -5.442  -5.899  0.00  0.00    +0.155 HD
ENDROOT
BRANCH   1   9
ATOM      5  C   UNL     1       2.357  -2.832  -6.044  0.00  0.00    +0.107 A 
ATOM      6  C   UNL     1       2.365  -2.069  -7.198  0.00  0.00    +0.028 A 
ATOM      7  C   UNL     1       3.432  -2.146  -8.073  0.00  0.00    +0.004 A 
ATOM      8  C   UNL     1       4.494  -2.985  -7.799  0.00  0.00    +0.023 A 
ATOM      9  C   UNL     1       4.490  -3.751  -6.641  0.00  0.00    +0.036 A 
ATOM     10  C   UNL     1       3.419  -3.668  -5.760  0.00  0.00    +0.051 A 
BRANCH   5  11
ATOM     11  S   UNL     1       0.995  -2.731  -4.931  0.00  0.00    +0.061 S 
ATOM     12  O   UNL     1       0.980  -3.947  -4.195  0.00  0.00    -0.153 OA
ATOM     13  O   UNL     1      -0.120  -2.288  -5.693  0.00  0.00    -0.153 OA
BRANCH  11  17
ATOM     14  N   UNL     1       1.007   0.204  -1.688  0.00  0.00    -0.300 NA
ATOM     15  C   UNL     1       0.181   0.394  -2.888  0.00  0.00    +0.101 C 
ATOM     16  C   UNL     1       0.934  -0.137  -4.112  0.00  0.00    +0.125 C 
ATOM     17  N   UNL     1       1.336  -1.526  -3.847  0.00  0.00    -0.174 NA
ATOM     18  C   UNL     1       2.050  -1.818  -2.595  0.00  0.00    +0.125 C 
ATOM     19  C   UNL     1       1.253  -1.221  -1.430  0.00  0.00    +0.101 C 
BRANCH  14  21
ATOM     20  C   UNL     1       0.385   2.369  -0.727  0.00  0.00    +0.020 C 
ATOM     21  C   UNL     1       0.397   0.853  -0.520  0.00  0.00    +0.081 C 
ENDBRANCH  14  21
ENDBRANCH  11  17
ENDBRANCH   5  11
ENDBRANCH   1   9
BRANCH   2  22
ATOM     22  C   UNL     1       7.929  -5.199  -6.533  0.00  0.00    +0.058 A 
ATOM     23  C   UNL     1       7.679  -6.499  -6.085  0.00  0.00    +0.015 A 
ATOM     24  C   UNL     1       8.726  -7.376  -5.904  0.00  0.00    +0.001 A 
ATOM     25  C   UNL     1      10.027  -6.977  -6.165  0.00  0.00    +0.002 A 
ATOM     26  C   UNL     1      10.289  -5.696  -6.609  0.00  0.00    +0.024 A 
ATOM     27  C   UNL     1       9.246  -4.800  -6.802  0.00  0.00    +0.047 A 
BRANCH  27  28
ATOM     28  N   UNL     1       9.508  -3.509  -7.256  0.00  0.00    -0.269 N 
ATOM     29  C   UNL     1      10.596  -3.269  -8.013  0.00  0.00    +0.304 C 
ATOM     30  O   UNL     1      11.295  -4.192  -8.384  0.00  0.00    -0.253 OA
ATOM     31  N   UNL     1      10.910  -2.005  -8.360  0.00  0.00    -0.297 N 
ATOM     32  H   UNL     1       8.907  -2.784  -7.026  0.00  0.00    +0.156 HD
ATOM     33  H   UNL     1      10.353  -1.268  -8.064  0.00  0.00    +0.151 HD
BRANCH  31  34
ATOM     34  C   UNL     1      12.093  -1.743  -9.183  0.00  0.00    +0.068 C 
ATOM     35  C   UNL     1      11.732  -1.903 -10.661  0.00  0.00    +0.027 C 
ATOM     36  C   UNL     1      12.586  -0.317  -8.930  0.00  0.00    +0.027 C 
ENDBRANCH  31  34
ENDBRANCH  27  28
ENDBRANCH   2  22
TORSDOF 7
