REMARK  Name = ZINC49151898
REMARK  5 active torsions:
REMARK  status: ('A' for Active; 'I' for Inactive)
REMARK    1  A    between atoms: C_1  and  C_2
REMARK    2  A    between atoms: C_2  and  C_4
REMARK    3  A    between atoms: C_2  and  N_10
REMARK    4  A    between atoms: C_4  and  N_5
REMARK    5  A    between atoms: N_10  and  C_11
REMARK                            x       y       z     vdW  Elec       q    Type
REMARK                         _______ _______ _______ _____ _____    ______ ____
ROOT
ATOM      1  C   UNL     1       2.080  -0.781  -0.819  0.00  0.00    +0.173 C 
ATOM      2  C   UNL     1       2.893  -0.692  -2.090  0.00  0.00    +0.003 A 
ATOM      3  C   UNL     1       3.107   0.324  -2.995  0.00  0.00    +0.046 A 
ATOM      4  C   UNL     1       3.921   0.109  -4.096  0.00  0.00    +0.125 A 
ATOM      5  C   UNL     1       4.516  -1.129  -4.280  0.00  0.00    +0.055 A 
ATOM      6  C   UNL     1       4.302  -2.147  -3.373  0.00  0.00    +0.042 A 
ATOM      7  C   UNL     1       3.483  -1.937  -2.264  0.00  0.00    +0.053 A 
ATOM      8  N   UNL     1       3.118  -2.794  -1.224  0.00  0.00    -0.283 N 
ATOM      9  C   UNL     1       2.301  -2.198  -0.335  0.00  0.00    +0.239 C 
ATOM     10  O   UNL     1       1.830  -2.700   0.664  0.00  0.00    -0.273 OA
ATOM     11 BR   UNL     1       5.120  -3.831  -3.636  0.00  0.00    -0.048 Br
ATOM     12  F   UNL     1       4.134   1.102  -4.986  0.00  0.00    -0.205 F 
ATOM     13  H   UNL     1       3.418  -3.713  -1.150  0.00  0.00    +0.155 HD
ENDROOT
BRANCH   1  14
ATOM     14  N   UNL     1       0.657  -0.549  -1.100  0.00  0.00    -0.301 NA
ATOM     15  H   UNL     1       0.224  -1.377  -1.482  0.00  0.00    +0.123 HD
BRANCH  14  17
ATOM     16  C   UNL     1       0.223   1.398   0.320  0.00  0.00    +0.022 C 
ATOM     17  C   UNL     1      -0.050  -0.092   0.103  0.00  0.00    +0.035 C 
BRANCH  17  18
ATOM     18  C   UNL     1      -1.554  -0.315  -0.073  0.00  0.00    -0.060 C 
BRANCH  18  19
ATOM     19  N   UNL     1      -1.813  -1.742  -0.304  0.00  0.00    +0.381 N 
ATOM     20  C   UNL     1      -1.541  -2.519   0.933  0.00  0.00    -0.079 C 
ATOM     21  C   UNL     1      -2.364  -3.815   0.725  0.00  0.00    -0.020 C 
ATOM     22  C   UNL     1      -3.643  -3.304   0.022  0.00  0.00    -0.020 C 
ATOM     23  C   UNL     1      -3.244  -1.957  -0.609  0.00  0.00    -0.079 C 
ATOM     24  H   UNL     1      -1.240  -2.082  -1.062  0.00  0.00    -0.082 HD
ENDBRANCH  18  19
ENDBRANCH  17  18
ENDBRANCH  14  17
ENDBRANCH   1  14
TORSDOF 4
