REMARK  Name = ZINC63948102
REMARK  7 active torsions:
REMARK  status: ('A' for Active; 'I' for Inactive)
REMARK    1  A    between atoms: C_1  and  C_2
REMARK    2  A    between atoms: C_8  and  C_11
REMARK    3  A    between atoms: C_11  and  C_12
REMARK    4  A    between atoms: C_12  and  N_13
REMARK    5  A    between atoms: C_15  and  C_20
REMARK    6  A    between atoms: N_22  and  C_23
REMARK    7  A    between atoms: C_26  and  C_29
REMARK                            x       y       z     vdW  Elec       q    Type
REMARK                         _______ _______ _______ _____ _____    ______ ____
ROOT
ATOM      1  N   UNL     1      -1.365  -2.600   5.613  0.00  0.00    -0.300 N 
ATOM      2  C   UNL     1      -1.246  -3.644   6.637  0.00  0.00    +0.121 C 
ATOM      3  C   UNL     1      -0.856  -2.905   7.936  0.00  0.00    +0.101 C 
ATOM      4  C   UNL     1      -1.424  -1.491   7.677  0.00  0.00    +0.110 C 
ATOM      5  C   UNL     1      -1.466  -1.380   6.169  0.00  0.00    +0.216 C 
ATOM      6  O   UNL     1      -1.578  -0.343   5.551  0.00  0.00    -0.276 OA
ENDROOT
BRANCH   3   7
ATOM      7  C   UNL     1      -1.512  -3.539   9.136  0.00  0.00    +0.222 C 
ATOM      8  O   UNL     1      -2.235  -4.502   8.993  0.00  0.00    -0.275 OA
ATOM      9  N   UNL     1      -1.294  -3.036  10.367  0.00  0.00    -0.285 N 
ATOM     10  H   UNL     1      -0.664  -2.309  10.490  0.00  0.00    +0.155 HD
BRANCH   9  11
ATOM     11  C   UNL     1      -1.975  -3.562  11.465  0.00  0.00    +0.033 A 
ATOM     12  C   UNL     1      -2.260  -4.922  11.519  0.00  0.00    +0.024 A 
ATOM     13  C   UNL     1      -2.932  -5.444  12.601  0.00  0.00    +0.015 A 
ATOM     14  C   UNL     1      -3.328  -4.605  13.646  0.00  0.00    +0.037 A 
ATOM     15  C   UNL     1      -3.041  -3.239  13.589  0.00  0.00    +0.015 A 
ATOM     16  C   UNL     1      -2.364  -2.724  12.506  0.00  0.00    +0.024 A 
BRANCH  14  17
ATOM     17  C   UNL     1      -4.050  -5.161  14.808  0.00  0.00    +0.242 C 
ATOM     18  O   UNL     1      -4.300  -6.350  14.856  0.00  0.00    -0.270 OA
ATOM     19  N   UNL     1      -4.431  -4.351  15.815  0.00  0.00    -0.325 N 
ATOM     20  H   UNL     1      -4.231  -3.402  15.777  0.00  0.00    +0.145 HD
ATOM     21  H   UNL     1      -4.905  -4.716  16.578  0.00  0.00    +0.145 HD
ENDBRANCH  14  17
ENDBRANCH   9  11
ENDBRANCH   3   7
BRANCH   1  22
ATOM     22  C   UNL     1      -1.367  -2.854   4.170  0.00  0.00    +0.112 C 
BRANCH  22  23
ATOM     23  C   UNL     1       0.069  -2.811   3.643  0.00  0.00    +0.052 C 
BRANCH  23  31
ATOM     24  C   UNL     1       0.036   1.492   0.012  0.00  0.00    +0.044 C 
ATOM     25  C   UNL     1       0.044  -0.015   0.004  0.00  0.00    -0.050 A 
ATOM     26  C   UNL     1       0.045  -0.691  -1.224  0.00  0.00    +0.005 A 
ATOM     27  C   UNL     1       0.052  -2.038  -1.315  0.00  0.00    +0.026 A 
ATOM     28  C   UNL     1       0.060  -2.838  -0.139  0.00  0.00    +0.043 A 
ATOM     29  N   UNL     1       0.067  -4.138   0.033  0.00  0.00    -0.380 N 
ATOM     30  C   UNL     1       0.072  -4.419   1.472  0.00  0.00    +0.144 C 
ATOM     31  C   UNL     1       0.067  -3.072   2.159  0.00  0.00    -0.040 C 
ATOM     32  C   UNL     1       0.060  -2.148   1.171  0.00  0.00    -0.001 A 
ATOM     33  C   UNL     1       0.057  -0.680   1.182  0.00  0.00    +0.013 A 
ATOM     34  H   UNL     1       0.068  -4.802  -0.674  0.00  0.00    +0.160 HD
ENDBRANCH  23  31
ENDBRANCH  22  23
ENDBRANCH   1  22
TORSDOF 6
