REMARK  Name = ZINC61882443
REMARK  6 active torsions:
REMARK  status: ('A' for Active; 'I' for Inactive)
REMARK    1  A    between atoms: C_1  and  N_2
REMARK    2  A    between atoms: C_7  and  C_9
REMARK    3  A    between atoms: C_9  and  N_10
REMARK    4  A    between atoms: N_10  and  S_11
REMARK    5  A    between atoms: S_11  and  C_14
REMARK    6  A    between atoms: C_18  and  N_21
REMARK                            x       y       z     vdW  Elec       q    Type
REMARK                         _______ _______ _______ _____ _____    ______ ____
ROOT
ATOM      1  S   UNL     1       3.204   2.759   1.702  0.00  0.00    +0.060 S 
ATOM      2  O   UNL     1       2.818   4.126   1.671  0.00  0.00    -0.153 OA
ATOM      3  O   UNL     1       3.744   2.146   2.864  0.00  0.00    -0.153 OA
ENDROOT
BRANCH   1   4
ATOM      4  C   UNL     1       4.391   2.541   0.419  0.00  0.00    +0.122 A 
ATOM      5  C   UNL     1       5.587   1.900   0.686  0.00  0.00    +0.049 A 
ATOM      6  C   UNL     1       6.523   1.727  -0.319  0.00  0.00    +0.045 A 
ATOM      7  C   UNL     1       6.264   2.194  -1.594  0.00  0.00    +0.044 A 
ATOM      8  C   UNL     1       5.064   2.838  -1.865  0.00  0.00    +0.042 A 
ATOM      9  C   UNL     1       4.125   3.006  -0.854  0.00  0.00    +0.065 A 
ATOM     10 BR   UNL     1       2.486   3.875  -1.220  0.00  0.00    -0.046 Br
ATOM     11 CL   UNL     1       8.023   0.922   0.022  0.00  0.00    -0.083 Cl
BRANCH   8  12
ATOM     12  N   UNL     1       4.800   3.312  -3.152  0.00  0.00    -0.357 N 
ATOM     13  H   UNL     1       5.455   3.192  -3.858  0.00  0.00    +0.142 HD
ATOM     14  H   UNL     1       3.961   3.762  -3.341  0.00  0.00    +0.142 HD
ENDBRANCH   8  12
ENDBRANCH   1   4
BRANCH   1  15
ATOM     15  N   UNL     1       1.864   1.880   1.283  0.00  0.00    -0.191 NA
ATOM     16  H   UNL     1       1.028   2.332   1.091  0.00  0.00    +0.148 HD
BRANCH  15  17
ATOM     17  C   UNL     1       1.942   0.419   1.202  0.00  0.00    +0.090 C 
BRANCH  17  24
ATOM     18  C   UNL     1       0.534  -0.056   3.585  0.00  0.00    -0.096 C 
ATOM     19  N   UNL     1      -0.207   0.306   2.369  0.00  0.00    +0.381 N 
ATOM     20  C   UNL     1      -1.538  -0.311   2.406  0.00  0.00    -0.079 C 
ATOM     21  C   UNL     1      -2.343   0.129   1.182  0.00  0.00    -0.019 C 
ATOM     22  C   UNL     1      -1.610  -0.311  -0.089  0.00  0.00    -0.003 C 
ATOM     23  C   UNL     1      -0.197   0.278  -0.081  0.00  0.00    -0.014 C 
ATOM     24  C   UNL     1       0.529  -0.167   1.190  0.00  0.00    -0.053 C 
ATOM     25  H   UNL     1      -0.305   1.310   2.322  0.00  0.00    -0.082 HD
ENDBRANCH  17  24
ENDBRANCH  15  17
ENDBRANCH   1  15
TORSDOF 5
