REMARK  Name = ZINC16694823
REMARK  13 active torsions:
REMARK  status: ('A' for Active; 'I' for Inactive)
REMARK    1  A    between atoms: C_1  and  C_2
REMARK    2  A    between atoms: C_2  and  C_4
REMARK    3  A    between atoms: C_2  and  N_12
REMARK    4  A    between atoms: N_12  and  C_13
REMARK    5  A    between atoms: C_13  and  C_14
REMARK    6  A    between atoms: N_16  and  C_17
REMARK    7  A    between atoms: C_17  and  C_18
REMARK    8  A    between atoms: C_18  and  N_19
REMARK    9  A    between atoms: C_20  and  C_22
REMARK   10  A    between atoms: C_22  and  N_23
REMARK   11  A    between atoms: N_23  and  C_24
REMARK   12  A    between atoms: C_24  and  C_26
REMARK   13  A    between atoms: C_24  and  C_27
REMARK                            x       y       z     vdW  Elec       q    Type
REMARK                         _______ _______ _______ _____ _____    ______ ____
ROOT
ATOM      1  C   UNL     1      -8.416   0.382   4.316  0.00  0.00    +0.123 C 
ENDROOT
BRANCH   1   4
ATOM      2  C   UNL     1     -10.361   0.384   5.784  0.00  0.00    +0.196 C 
ATOM      3  O   UNL     1     -10.489  -0.803   5.567  0.00  0.00    -0.278 OA
ATOM      4  N   UNL     1      -9.354   1.069   5.207  0.00  0.00    -0.315 N 
ATOM      5  H   UNL     1      -9.238   2.145   5.404  0.00  0.00    +0.149 HD
BRANCH   2   6
ATOM      6  C   UNL     1     -11.326   1.090   6.700  0.00  0.00    +0.016 C 
BRANCH   6   7
ATOM      7  N   UNL     1     -12.322   0.131   7.197  0.00  0.00    +0.389 N 
ATOM      8  H   UNL     1     -11.799  -0.670   7.740  0.00  0.00    -0.084 HD
ATOM      9  H   UNL     1     -12.857  -0.298   6.338  0.00  0.00    -0.084 HD
BRANCH   7  11
ATOM     10  C   UNL     1     -12.708   0.826   9.514  0.00  0.00    -0.009 C 
ATOM     11  C   UNL     1     -13.281   0.786   8.095  0.00  0.00    -0.043 C 
BRANCH  11  12
ATOM     12  C   UNL     1     -14.575   0.014   8.098  0.00  0.00    -0.059 A 
ATOM     13  C   UNL     1     -14.554  -1.369   8.085  0.00  0.00    +0.005 A 
ATOM     14  C   UNL     1     -15.739  -2.080   8.092  0.00  0.00    +0.041 A 
ATOM     15  C   UNL     1     -16.949  -1.408   8.101  0.00  0.00    +0.158 A 
ATOM     16  C   UNL     1     -16.971  -0.021   8.109  0.00  0.00    +0.159 A 
ATOM     17  C   UNL     1     -15.782   0.688   8.107  0.00  0.00    +0.043 A 
ATOM     18  F   UNL     1     -18.151   0.637   8.118  0.00  0.00    -0.202 F 
ATOM     19  F   UNL     1     -18.108  -2.102   8.103  0.00  0.00    -0.202 F 
ENDBRANCH  11  12
ENDBRANCH   7  11
ENDBRANCH   6   7
ENDBRANCH   2   6
ENDBRANCH   1   4
BRANCH   1  20
ATOM     20  C   UNL     1      -7.379   1.381   3.799  0.00  0.00    +0.123 C 
BRANCH  20  21
ATOM     21  N   UNL     1      -6.441   0.694   2.908  0.00  0.00    -0.315 N 
ATOM     22  C   UNL     1      -5.434   1.380   2.331  0.00  0.00    +0.196 C 
ATOM     23  O   UNL     1      -5.306   2.566   2.549  0.00  0.00    -0.278 OA
ATOM     24  H   UNL     1      -6.557  -0.382   2.711  0.00  0.00    +0.149 HD
BRANCH  22  25
ATOM     25  C   UNL     1      -4.469   0.673   1.415  0.00  0.00    +0.016 C 
BRANCH  25  26
ATOM     26  N   UNL     1      -3.473   1.633   0.918  0.00  0.00    +0.389 N 
ATOM     27  H   UNL     1      -3.982   2.436   0.365  0.00  0.00    -0.084 HD
ATOM     28  H   UNL     1      -2.924   2.064   1.768  0.00  0.00    -0.084 HD
BRANCH  26  29
ATOM     29  C   UNL     1      -2.513   0.977   0.020  0.00  0.00    -0.043 C 
ATOM     30  C   UNL     1      -3.087   0.938  -1.398  0.00  0.00    -0.009 C 
BRANCH  29  31
ATOM     31  C   UNL     1      -1.220   1.750   0.017  0.00  0.00    -0.059 A 
ATOM     32  C   UNL     1      -0.013   1.076   0.008  0.00  0.00    +0.005 A 
ATOM     33  C   UNL     1       1.175   1.782   0.000  0.00  0.00    +0.041 A 
ATOM     34  C   UNL     1       1.157   3.166   0.008  0.00  0.00    +0.158 A 
ATOM     35  C   UNL     1      -0.053   3.842   0.022  0.00  0.00    +0.159 A 
ATOM     36  C   UNL     1      -1.241   3.132   0.030  0.00  0.00    +0.043 A 
ATOM     37  F   UNL     1      -0.073   5.193   0.029  0.00  0.00    -0.202 F 
ATOM     38  F   UNL     1       2.318   3.858   0.001  0.00  0.00    -0.202 F 
ENDBRANCH  29  31
ENDBRANCH  26  29
ENDBRANCH  25  26
ENDBRANCH  22  25
ENDBRANCH  20  21
ENDBRANCH   1  20
TORSDOF 11
