REMARK  Name = ZINC39670584
REMARK  9 active torsions:
REMARK  status: ('A' for Active; 'I' for Inactive)
REMARK    1  A    between atoms: C_1  and  C_2
REMARK    2  A    between atoms: C_2  and  C_3
REMARK    3  A    between atoms: C_3  and  C_5
REMARK    4  A    between atoms: C_3  and  C_6
REMARK    5  A    between atoms: C_6  and  C_7
REMARK    6  A    between atoms: C_11  and  C_20
REMARK    7  A    between atoms: N_22  and  C_23
REMARK    8  A    between atoms: C_23  and  C_24
REMARK    9  A    between atoms: C_28  and  C_33
REMARK                            x       y       z     vdW  Elec       q    Type
REMARK                         _______ _______ _______ _____ _____    ______ ____
ROOT
ATOM      1  C   UNL     1      -2.986  -2.594   0.242  0.00  0.00    +0.216 C 
ATOM      2  O   UNL     1      -3.931  -1.836   0.301  0.00  0.00    -0.276 OA
ATOM      3  N   UNL     1      -3.176  -3.920   0.393  0.00  0.00    -0.300 N 
ATOM      4  C   UNL     1      -2.155  -4.993   0.360  0.00  0.00    +0.121 C 
ATOM      5  C   UNL     1      -2.586  -5.977   1.470  0.00  0.00    +0.100 C 
ATOM      6  C   UNL     1      -4.095  -5.738   1.642  0.00  0.00    -0.004 C 
ATOM      7  C   UNL     1      -4.453  -4.633   0.637  0.00  0.00    +0.115 C 
ATOM      8  C   UNL     1      -4.872  -7.013   1.326  0.00  0.00    -0.010 C 
ATOM      9  C   UNL     1      -6.365  -6.766   1.560  0.00  0.00    -0.082 C 
ATOM     10  N   UNL     1      -6.585  -6.369   2.956  0.00  0.00    +0.379 N 
ATOM     11  C   UNL     1      -5.910  -5.094   3.226  0.00  0.00    -0.082 C 
ATOM     12  C   UNL     1      -4.398  -5.269   3.062  0.00  0.00    -0.010 C 
ATOM     13  H   UNL     1      -7.574  -6.267   3.123  0.00  0.00    -0.086 HD
ATOM     14  H   UNL     1      -6.214  -7.080   3.569  0.00  0.00    -0.086 HD
ENDROOT
BRANCH   5  15
ATOM     15  C   UNL     1      -2.323  -7.399   1.043  0.00  0.00    +0.219 C 
ATOM     16  O   UNL     1      -2.379  -7.699  -0.130  0.00  0.00    -0.275 OA
ATOM     17  N   UNL     1      -2.025  -8.335   1.966  0.00  0.00    -0.309 N 
ATOM     18  H   UNL     1      -1.981  -8.094   2.904  0.00  0.00    +0.149 HD
BRANCH  17  19
ATOM     19  C   UNL     1      -1.770  -9.717   1.551  0.00  0.00    +0.159 C 
BRANCH  19  20
ATOM     20  C   UNL     1      -1.463 -10.557   2.764  0.00  0.00    +0.051 A 
ATOM     21  C   UNL     1      -0.229 -10.839   3.236  0.00  0.00    +0.115 A 
ATOM     22  N   UNL     1      -0.390 -11.624   4.345  0.00  0.00    -0.308 N 
ATOM     23  C   UNL     1       0.499 -12.195   5.209  0.00  0.00    +0.096 A 
ATOM     24  C   UNL     1       0.066 -12.940   6.247  0.00  0.00    -0.034 A 
ATOM     25  C   UNL     1      -1.310 -13.139   6.452  0.00  0.00    +0.008 A 
ATOM     26  C   UNL     1      -2.206 -12.576   5.598  0.00  0.00    +0.045 A 
ATOM     27  C   UNL     1      -1.738 -11.800   4.519  0.00  0.00    +0.115 A 
ATOM     28  N   UNL     1      -2.366 -11.142   3.554  0.00  0.00    -0.342 N 
ATOM     29  C   UNL     1       1.062 -13.563   7.191  0.00  0.00    +0.045 C 
ATOM     30  H   UNL     1      -3.328 -11.095   3.440  0.00  0.00    +0.167 HD
ENDBRANCH  19  20
ENDBRANCH  17  19
ENDBRANCH   5  15
BRANCH   1  31
ATOM     31  C   UNL     1      -1.600  -2.054  -0.000  0.00  0.00    +0.099 C 
BRANCH  31  32
ATOM     32  C   UNL     1      -1.663  -0.532  -0.135  0.00  0.00    -0.006 C 
ATOM     33  C   UNL     1      -2.465  -0.163  -1.385  0.00  0.00    +0.008 C 
BRANCH  32  35
ATOM     34  C   UNL     1      -0.298   1.557  -0.266  0.00  0.00    +0.004 C 
ATOM     35  C   UNL     1      -0.244   0.028  -0.257  0.00  0.00    +0.000 C 
ENDBRANCH  32  35
ENDBRANCH  31  32
ENDBRANCH   1  31
TORSDOF 6
