REMARK  Name = ZINC51761854
REMARK  12 active torsions:
REMARK  status: ('A' for Active; 'I' for Inactive)
REMARK    1  A    between atoms: C_1  and  C_2
REMARK    2  A    between atoms: C_2  and  O_3
REMARK    3  A    between atoms: O_3  and  C_4
REMARK    4  A    between atoms: C_6  and  C_18
REMARK    5  A    between atoms: C_9  and  O_10
REMARK    6  A    between atoms: O_10  and  C_11
REMARK    7  A    between atoms: C_11  and  C_12
REMARK    8  A    between atoms: C_12  and  C_13
REMARK    9  A    between atoms: N_15  and  C_16
REMARK   10  A    between atoms: C_18  and  C_19
REMARK   11  A    between atoms: C_19  and  C_21
REMARK   12  A    between atoms: C_19  and  N_22
REMARK                            x       y       z     vdW  Elec       q    Type
REMARK                         _______ _______ _______ _____ _____    ______ ____
ROOT
ATOM      1  C   UNL     1       0.777  -1.811  -1.336  0.00  0.00    +0.163 A 
ATOM      2  C   UNL     1       0.243  -2.669  -0.388  0.00  0.00    +0.053 A 
ATOM      3  C   UNL     1       0.352  -4.037  -0.554  0.00  0.00    -0.044 A 
ATOM      4  C   UNL     1       0.992  -4.553  -1.665  0.00  0.00    +0.022 A 
ATOM      5  C   UNL     1       1.527  -3.702  -2.616  0.00  0.00    +0.063 A 
ATOM      6  C   UNL     1       1.416  -2.329  -2.458  0.00  0.00    +0.176 A 
ATOM      7 BR   UNL     1       2.403  -4.412  -4.134  0.00  0.00    -0.046 Br
ENDROOT
BRANCH   1   8
ATOM      8  O   UNL     1       0.671  -0.465  -1.174  0.00  0.00    -0.489 OA
BRANCH   8  10
ATOM      9  C   UNL     1      -0.019   1.526   0.010  0.00  0.00    +0.048 C 
ATOM     10  C   UNL     1       0.002  -0.004   0.002  0.00  0.00    +0.226 C 
ENDBRANCH   8  10
ENDBRANCH   1   8
BRANCH   6  11
ATOM     11  O   UNL     1       1.936  -1.491  -3.394  0.00  0.00    -0.487 OA
BRANCH  11  12
ATOM     12  C   UNL     1       3.293  -1.080  -3.215  0.00  0.00    +0.238 C 
BRANCH  12  13
ATOM     13  C   UNL     1       3.698  -0.147  -4.358  0.00  0.00    +0.136 C 
BRANCH  13  14
ATOM     14  C   UNL     1       5.129   0.287  -4.169  0.00  0.00    +0.216 C 
ATOM     15  O   UNL     1       5.762  -0.111  -3.214  0.00  0.00    -0.276 OA
ATOM     16  N   UNL     1       5.705   1.117  -5.061  0.00  0.00    -0.318 N 
ATOM     17  C   UNL     1       7.096   1.538  -4.877  0.00  0.00    +0.128 C 
ATOM     18  H   UNL     1       5.199   1.435  -5.824  0.00  0.00    +0.148 HD
ENDBRANCH  13  14
ENDBRANCH  12  13
ENDBRANCH  11  12
ENDBRANCH   6  11
BRANCH   3  19
ATOM     19  C   UNL     1      -0.228  -4.968   0.479  0.00  0.00    +0.019 C 
BRANCH  19  20
ATOM     20  C   UNL     1      -1.677  -5.296   0.114  0.00  0.00    -0.074 C 
ATOM     21  C   UNL     1      -2.227  -6.337   1.091  0.00  0.00    -0.014 C 
BRANCH  20  22
ATOM     22  N   UNL     1      -2.490  -4.075   0.191  0.00  0.00    +0.380 N 
ATOM     23  H   UNL     1      -2.455  -3.706   1.130  0.00  0.00    -0.090 HD
ATOM     24  H   UNL     1      -2.128  -3.388  -0.454  0.00  0.00    -0.090 HD
ATOM     25  H   UNL     1      -3.446  -4.291  -0.050  0.00  0.00    -0.090 HD
ENDBRANCH  20  22
ENDBRANCH  19  20
ENDBRANCH   3  19
TORSDOF 9
