REMARK  Name = ZINC48788657
REMARK  9 active torsions:
REMARK  status: ('A' for Active; 'I' for Inactive)
REMARK    1  A    between atoms: C_1  and  C_2
REMARK    2  A    between atoms: C_2  and  C_4
REMARK    3  A    between atoms: C_2  and  N_10
REMARK    4  A    between atoms: C_4  and  N_5
REMARK    5  A    between atoms: N_13  and  C_14
REMARK    6  A    between atoms: C_14  and  C_16
REMARK    7  A    between atoms: C_14  and  C_17
REMARK    8  A    between atoms: C_21  and  N_23
REMARK    9  A    between atoms: C_24  and  C_26
REMARK                            x       y       z     vdW  Elec       q    Type
REMARK                         _______ _______ _______ _____ _____    ______ ____
ROOT
ATOM      1  C   UNL     1      -0.065  -1.422  -4.463  0.00  0.00    +0.102 C 
ATOM      2  C   UNL     1      -0.276  -0.034  -5.072  0.00  0.00    +0.033 C 
ENDROOT
BRANCH   1   6
ATOM      3  N   UNL     1       1.024  -0.909  -0.989  0.00  0.00    -0.295 N 
ATOM      4  C   UNL     1       0.241  -1.011  -2.081  0.00  0.00    +0.300 C 
ATOM      5  O   UNL     1      -0.959  -0.834  -1.988  0.00  0.00    -0.253 OA
ATOM      6  N   UNL     1       0.786  -1.311  -3.276  0.00  0.00    -0.293 N 
ATOM      7  H   UNL     1       1.981  -1.051  -1.064  0.00  0.00    +0.151 HD
ATOM      8  H   UNL     1       1.743  -1.453  -3.351  0.00  0.00    +0.151 HD
BRANCH   3  10
ATOM      9  C   UNL     1       0.298   0.935   0.444  0.00  0.00    +0.029 C 
ATOM     10  C   UNL     1       0.431  -0.584   0.310  0.00  0.00    +0.091 C 
BRANCH  10  11
ATOM     11  C   UNL     1       1.328  -1.117   1.429  0.00  0.00    +0.144 C 
BRANCH  11  12
ATOM     12  N   UNL     1       1.360  -2.581   1.373  0.00  0.00    -0.337 N 
ATOM     13  C   UNL     1       0.505  -3.437   2.013  0.00  0.00    +0.104 A 
ATOM     14  C   UNL     1       0.889  -4.686   1.689  0.00  0.00    +0.101 A 
ATOM     15  N   UNL     1       1.950  -4.596   0.873  0.00  0.00    -0.352 N 
ATOM     16  C   UNL     1       2.235  -3.338   0.675  0.00  0.00    +0.173 A 
ATOM     17  H   UNL     1       2.428  -5.347   0.488  0.00  0.00    +0.166 HD
ENDBRANCH  11  12
ENDBRANCH  10  11
ENDBRANCH   3  10
ENDBRANCH   1   6
BRANCH   1  18
ATOM     18  C   UNL     1       0.599  -2.319  -5.476  0.00  0.00    -0.026 A 
ATOM     19  C   UNL     1       1.965  -2.243  -5.675  0.00  0.00    +0.005 A 
ATOM     20  C   UNL     1       2.578  -3.064  -6.603  0.00  0.00    +0.002 A 
ATOM     21  C   UNL     1       1.827  -3.964  -7.334  0.00  0.00    +0.023 A 
ATOM     22  C   UNL     1       0.455  -4.043  -7.136  0.00  0.00    +0.034 A 
ATOM     23  C   UNL     1      -0.157  -3.220  -6.199  0.00  0.00    +0.028 A 
BRANCH  22  24
ATOM     24  N   UNL     1      -0.308  -4.953  -7.874  0.00  0.00    -0.281 N 
ATOM     25  C   UNL     1       0.221  -6.139  -8.236  0.00  0.00    +0.248 C 
ATOM     26  O   UNL     1       1.325  -6.459  -7.839  0.00  0.00    -0.270 OA
ATOM     27  H   UNL     1      -1.218  -4.731  -8.127  0.00  0.00    +0.155 HD
BRANCH  25  28
ATOM     28  C   UNL     1      -0.542  -7.052  -9.114  0.00  0.00    +0.037 A 
ATOM     29  C   UNL     1      -1.807  -6.686  -9.575  0.00  0.00    +0.013 A 
ATOM     30  C   UNL     1      -2.514  -7.542 -10.394  0.00  0.00    +0.001 A 
ATOM     31  C   UNL     1      -1.970  -8.761 -10.759  0.00  0.00    +0.000 A 
ATOM     32  C   UNL     1      -0.717  -9.130 -10.304  0.00  0.00    +0.001 A 
ATOM     33  C   UNL     1       0.003  -8.281  -9.490  0.00  0.00    +0.013 A 
ENDBRANCH  25  28
ENDBRANCH  22  24
ENDBRANCH   1  18
TORSDOF 7
