REMARK  Name = ZINC06107130
REMARK  5 active torsions:
REMARK  status: ('A' for Active; 'I' for Inactive)
REMARK    1  A    between atoms: C_1  and  C_2
REMARK    2  A    between atoms: C_18  and  S_19
REMARK    3  A    between atoms: S_19  and  C_20
REMARK    4  A    between atoms: C_20  and  C_22
REMARK    5  A    between atoms: C_20  and  C_23
REMARK                            x       y       z     vdW  Elec       q    Type
REMARK                         _______ _______ _______ _____ _____    ______ ____
ROOT
ATOM      1  C   UNL     1       8.489  -3.112  -2.534  0.00  0.00    +0.045 C 
ATOM      2  C   UNL     1       7.145  -3.699  -2.186  0.00  0.00    -0.032 A 
ATOM      3  C   UNL     1       6.207  -3.943  -3.180  0.00  0.00    +0.008 A 
ATOM      4  C   UNL     1       4.988  -4.488  -2.817  0.00  0.00    +0.047 A 
ATOM      5  C   UNL     1       4.741  -4.761  -1.477  0.00  0.00    +0.142 A 
ATOM      6  N   UNL     1       5.660  -4.514  -0.558  0.00  0.00    -0.237 NA
ATOM      7  C   UNL     1       6.833  -3.999  -0.874  0.00  0.00    +0.116 A 
ATOM      8  N   UNL     1       3.513  -5.307  -1.097  0.00  0.00    -0.239 N 
ATOM      9  C   UNL     1       3.353  -6.650  -1.077  0.00  0.00    +0.268 A 
ATOM     10  O   UNL     1       4.262  -7.399  -1.383  0.00  0.00    -0.267 OA
ATOM     11  C   UNL     1       2.039  -7.172  -0.675  0.00  0.00    +0.065 A 
ATOM     12  C   UNL     1       1.774  -8.540  -0.627  0.00  0.00    +0.015 A 
ATOM     13  C   UNL     1       0.534  -8.973  -0.246  0.00  0.00    +0.001 A 
ATOM     14  C   UNL     1      -0.462  -8.065   0.092  0.00  0.00    +0.002 A 
ATOM     15  C   UNL     1      -0.229  -6.719   0.054  0.00  0.00    +0.028 A 
ATOM     16  C   UNL     1       1.029  -6.245  -0.332  0.00  0.00    +0.079 A 
ATOM     17  N   UNL     1       1.303  -4.921  -0.383  0.00  0.00    -0.223 NA
ATOM     18  C   UNL     1       2.482  -4.479  -0.744  0.00  0.00    +0.179 A 
ENDROOT
BRANCH  18  19
ATOM     19  S   UNL     1       2.751  -2.738  -0.783  0.00  0.00    -0.075 S 
BRANCH  19  20
ATOM     20  C   UNL     1       1.121  -2.156  -0.253  0.00  0.00    +0.137 C 
ATOM     21  C   UNL     1       0.864  -2.602   1.188  0.00  0.00    +0.029 C 
BRANCH  20  22
ATOM     22  C   UNL     1       1.076  -0.651  -0.329  0.00  0.00    +0.233 C 
ATOM     23  O   UNL     1       2.107  -0.014  -0.345  0.00  0.00    -0.274 OA
ATOM     24  N   UNL     1      -0.111  -0.015  -0.379  0.00  0.00    -0.239 N 
ATOM     25  C   UNL     1      -0.151   1.331  -0.447  0.00  0.00    +0.303 C 
ATOM     26  O   UNL     1       0.882   1.970  -0.463  0.00  0.00    -0.253 OA
ATOM     27  N   UNL     1      -1.338   1.967  -0.502  0.00  0.00    -0.313 N 
ATOM     28  H   UNL     1      -0.936  -0.525  -0.366  0.00  0.00    +0.159 HD
ATOM     29  H   UNL     1      -2.163   1.457  -0.494  0.00  0.00    +0.146 HD
ATOM     30  H   UNL     1      -1.367   2.935  -0.551  0.00  0.00    +0.146 HD
ENDBRANCH  20  22
ENDBRANCH  19  20
ENDBRANCH  18  19
TORSDOF 3
