REMARK  Name = ZINC63807085
REMARK  7 active torsions:
REMARK  status: ('A' for Active; 'I' for Inactive)
REMARK    1  A    between atoms: C_3  and  N_9
REMARK    2  A    between atoms: C_10  and  C_12
REMARK    3  A    between atoms: C_12  and  C_13
REMARK    4  A    between atoms: C_16  and  C_20
REMARK    5  A    between atoms: N_22  and  C_23
REMARK    6  A    between atoms: C_23  and  C_24
REMARK    7  A    between atoms: C_24  and  C_25
REMARK                            x       y       z     vdW  Elec       q    Type
REMARK                         _______ _______ _______ _____ _____    ______ ____
ROOT
ATOM      1  C   UNL     1       4.563   5.736  -0.329  0.00  0.00    +0.158 C 
ATOM      2  N   UNL     1       5.817   6.495  -0.545  0.00  0.00    -0.265 NA
ATOM      3  C   UNL     1       5.639   7.724   0.273  0.00  0.00    +0.297 C 
ATOM      4  O   UNL     1       4.954   7.243   1.451  0.00  0.00    -0.270 OA
ATOM      5  N   UNL     1       4.010   6.225   0.952  0.00  0.00    -0.181 NA
ATOM      6  H   UNL     1       6.618   5.967  -0.233  0.00  0.00    +0.126 HD
ATOM      7  H   UNL     1       3.908   5.470   1.613  0.00  0.00    +0.156 HD
ENDROOT
BRANCH   3   8
ATOM      8  C   UNL     1       6.975   8.319   0.636  0.00  0.00    +0.259 C 
ATOM      9  O   UNL     1       7.327   9.367   0.138  0.00  0.00    -0.271 OA
ATOM     10  N   UNL     1       7.778   7.686   1.514  0.00  0.00    -0.312 N 
ATOM     11  H   UNL     1       7.496   6.848   1.912  0.00  0.00    +0.149 HD
BRANCH  10  12
ATOM     12  C   UNL     1       9.077   8.265   1.867  0.00  0.00    +0.108 C 
BRANCH  12  13
ATOM     13  C   UNL     1       9.783   7.356   2.875  0.00  0.00    +0.052 C 
BRANCH  13  14
ATOM     14  C   UNL     1      11.119   7.951   3.238  0.00  0.00    -0.040 C 
ATOM     15  C   UNL     1      11.397   8.735   4.304  0.00  0.00    +0.000 A 
ATOM     16  C   UNL     1      10.570   9.249   5.403  0.00  0.00    +0.030 A 
ATOM     17  C   UNL     1      11.145  10.030   6.347  0.00  0.00    +0.042 A 
ATOM     18  C   UNL     1      12.508  10.361   6.301  0.00  0.00    +0.022 A 
ATOM     19  C   UNL     1      13.330   9.926   5.323  0.00  0.00    +0.027 A 
ATOM     20  C   UNL     1      12.832   9.098   4.279  0.00  0.00    +0.043 A 
ATOM     21  N   UNL     1      13.419   8.559   3.238  0.00  0.00    -0.380 N 
ATOM     22  C   UNL     1      12.422   7.787   2.487  0.00  0.00    +0.144 C 
ATOM     23 CL   UNL     1      10.171  10.640   7.648  0.00  0.00    -0.084 Cl
ATOM     24  H   UNL     1      14.356   8.652   3.005  0.00  0.00    +0.160 HD
ENDBRANCH  13  14
ENDBRANCH  12  13
ENDBRANCH  10  12
ENDBRANCH   3   8
BRANCH   1  25
ATOM     25  C   UNL     1       4.861   4.238  -0.238  0.00  0.00    +0.132 C 
BRANCH  25  27
ATOM     26  N   UNL     1       3.585   2.131  -0.021  0.00  0.00    -0.283 N 
ATOM     27  C   UNL     1       3.568   3.475  -0.116  0.00  0.00    +0.220 C 
ATOM     28  O   UNL     1       2.511   4.070  -0.103  0.00  0.00    -0.275 OA
ATOM     29  H   UNL     1       4.430   1.660   0.049  0.00  0.00    +0.155 HD
BRANCH  26  32
ATOM     30  C   UNL     1       0.065   1.244  -0.621  0.00  0.00    +0.040 A 
ATOM     31  C   UNL     1       1.250   1.954  -0.618  0.00  0.00    +0.029 A 
ATOM     32  C   UNL     1       2.381   1.412  -0.024  0.00  0.00    +0.069 A 
ATOM     33  C   UNL     1       2.319   0.155   0.567  0.00  0.00    +0.147 A 
ATOM     34  C   UNL     1       1.130  -0.551   0.562  0.00  0.00    +0.078 A 
ATOM     35  C   UNL     1       0.004  -0.007  -0.032  0.00  0.00    +0.126 A 
ATOM     36  F   UNL     1      -1.157  -0.698  -0.035  0.00  0.00    -0.205 F 
ATOM     37  F   UNL     1       3.419  -0.375   1.146  0.00  0.00    -0.203 F 
ENDBRANCH  26  32
ENDBRANCH  25  27
ENDBRANCH   1  25
TORSDOF 7
