REMARK  Name = ZINC28192540
REMARK  3 active torsions:
REMARK  status: ('A' for Active; 'I' for Inactive)
REMARK    1  A    between atoms: C_8  and  C_25
REMARK    2  A    between atoms: N_9  and  C_10
REMARK    3  A    between atoms: C_10  and  C_11
REMARK                            x       y       z     vdW  Elec       q    Type
REMARK                         _______ _______ _______ _____ _____    ______ ____
ROOT
ATOM      1  C   UNL     1      -3.679   3.822   0.057  0.00  0.00    +0.179 C 
ENDROOT
BRANCH   1   2
ATOM      2  C   UNL     1      -4.188   3.740  -1.359  0.00  0.00    +0.069 A 
ATOM      3  C   UNL     1      -4.311   2.522  -1.992  0.00  0.00    +0.095 A 
ATOM      4  C   UNL     1      -4.782   2.466  -3.304  0.00  0.00    +0.259 A 
ATOM      5  O   UNL     1      -4.893   1.389  -3.869  0.00  0.00    -0.267 OA
ATOM      6  N   UNL     1      -5.120   3.619  -3.955  0.00  0.00    -0.259 N 
ATOM      7  C   UNL     1      -5.599   3.701  -5.255  0.00  0.00    +0.039 A 
ATOM      8  C   UNL     1      -5.887   4.911  -5.752  0.00  0.00    +0.013 A 
ATOM      9  S   UNL     1      -5.502   6.018  -4.420  0.00  0.00    -0.054 S 
ATOM     10  C   UNL     1      -4.968   4.782  -3.254  0.00  0.00    +0.181 A 
ATOM     11  N   UNL     1      -4.531   4.843  -2.020  0.00  0.00    -0.226 NA
ATOM     12  C   UNL     1      -6.409   5.248  -7.112  0.00  0.00    +0.044 C 
ATOM     13  C   UNL     1      -6.233   4.018  -8.015  0.00  0.00    +0.006 C 
ATOM     14  C   UNL     1      -6.742   2.784  -7.264  0.00  0.00    +0.006 C 
ATOM     15  C   UNL     1      -5.797   2.451  -6.110  0.00  0.00    +0.055 C 
ENDBRANCH   1   2
BRANCH   1  24
ATOM     16  C   UNL     1       1.183   1.781   0.000  0.00  0.00    +0.002 A 
ATOM     17  C   UNL     1      -0.013   1.076   0.008  0.00  0.00    +0.002 A 
ATOM     18  C   UNL     1      -1.218   1.744   0.017  0.00  0.00    +0.028 A 
ATOM     19  C   UNL     1      -1.235   3.132   0.030  0.00  0.00    +0.069 A 
ATOM     20  C   UNL     1      -0.025   3.846   0.022  0.00  0.00    +0.090 A 
ATOM     21  C   UNL     1       1.185   3.147   0.007  0.00  0.00    +0.030 A 
ATOM     22  N   UNL     1      -0.344   5.166   0.031  0.00  0.00    -0.224 NA
ATOM     23  C   UNL     1      -1.638   5.303   0.044  0.00  0.00    +0.216 A 
ATOM     24  N   UNL     1      -2.237   4.082   0.044  0.00  0.00    -0.314 N 
BRANCH  23  25
ATOM     25  C   UNL     1      -2.366   6.622   0.056  0.00  0.00    +0.451 C 
ATOM     26  F   UNL     1      -1.479   7.647  -0.289  0.00  0.00    -0.163 F 
ATOM     27  F   UNL     1      -3.417   6.583  -0.867  0.00  0.00    -0.163 F 
ATOM     28  F   UNL     1      -2.879   6.860   1.336  0.00  0.00    -0.163 F 
ENDBRANCH  23  25
ENDBRANCH   1  24
TORSDOF 3
