REMARK  Name = ZINC12630959
REMARK  9 active torsions:
REMARK  status: ('A' for Active; 'I' for Inactive)
REMARK    1  A    between atoms: C_1  and  C_2
REMARK    2  A    between atoms: C_2  and  C_4
REMARK    3  A    between atoms: C_2  and  N_15
REMARK    4  A    between atoms: N_6  and  C_7
REMARK    5  A    between atoms: C_10  and  C_13
REMARK    6  A    between atoms: N_15  and  C_16
REMARK    7  A    between atoms: C_19  and  N_22
REMARK    8  A    between atoms: N_22  and  S_23
REMARK    9  A    between atoms: S_23  and  C_26
REMARK                            x       y       z     vdW  Elec       q    Type
REMARK                         _______ _______ _______ _____ _____    ______ ____
ROOT
ATOM      1  C   UNL     1       3.023   0.036  -1.159  0.00  0.00    +0.028 A 
ATOM      2  C   UNL     1       1.899  -0.714  -1.480  0.00  0.00    +0.025 A 
ATOM      3  C   UNL     1       0.641  -0.153  -1.377  0.00  0.00    +0.026 A 
ATOM      4  C   UNL     1       0.501   1.162  -0.952  0.00  0.00    +0.048 A 
ATOM      5  C   UNL     1       1.624   1.912  -0.631  0.00  0.00    +0.026 A 
ATOM      6  C   UNL     1       2.882   1.351  -0.735  0.00  0.00    +0.025 A 
ENDROOT
BRANCH   1   7
ATOM      7  N   UNL     1       4.298  -0.533  -1.264  0.00  0.00    -0.333 N 
ATOM      8  H   UNL     1       4.396  -1.451  -1.561  0.00  0.00    +0.147 HD
BRANCH   7  10
ATOM      9  C   UNL     1       5.911   1.082  -2.143  0.00  0.00    +0.038 C 
ATOM     10  C   UNL     1       5.483   0.259  -0.926  0.00  0.00    +0.154 C 
BRANCH  10  11
ATOM     11  C   UNL     1       6.605  -0.663  -0.524  0.00  0.00    +0.237 C 
ATOM     12  O   UNL     1       6.431  -1.864  -0.521  0.00  0.00    -0.273 OA
ATOM     13  N   UNL     1       7.801  -0.154  -0.169  0.00  0.00    -0.284 N 
ATOM     14  H   UNL     1       7.920   0.806  -0.104  0.00  0.00    +0.155 HD
BRANCH  13  15
ATOM     15  C   UNL     1       8.869  -1.009   0.107  0.00  0.00    +0.034 A 
ATOM     16  C   UNL     1       8.638  -2.226   0.741  0.00  0.00    +0.024 A 
ATOM     17  C   UNL     1       9.689  -3.074   1.010  0.00  0.00    +0.020 A 
ATOM     18  C   UNL     1      10.990  -2.707   0.656  0.00  0.00    +0.052 A 
ATOM     19  C   UNL     1      11.219  -1.481   0.025  0.00  0.00    +0.020 A 
ATOM     20  C   UNL     1      10.163  -0.640  -0.246  0.00  0.00    +0.024 A 
BRANCH  18  21
ATOM     21  C   UNL     1      12.086  -3.584   0.939  0.00  0.00    +0.099 C 
ATOM     22  N   UNL     1      12.955  -4.280   1.164  0.00  0.00    -0.191 NA
ENDBRANCH  18  21
ENDBRANCH  13  15
ENDBRANCH  10  11
ENDBRANCH   7  10
ENDBRANCH   1   7
BRANCH   4  23
ATOM     23  N   UNL     1      -0.774   1.732  -0.853  0.00  0.00    -0.216 N 
ATOM     24  H   UNL     1      -1.074   2.369  -1.521  0.00  0.00    +0.174 HD
BRANCH  23  25
ATOM     25  S   UNL     1      -1.770   1.322   0.405  0.00  0.00    +0.072 S 
ATOM     26  O   UNL     1      -2.946   2.106   0.265  0.00  0.00    -0.150 OA
ATOM     27  O   UNL     1      -1.802  -0.098   0.451  0.00  0.00    -0.150 OA
BRANCH  25  28
ATOM     28  C   UNL     1      -0.982   1.855   1.888  0.00  0.00    +0.112 A 
ATOM     29  C   UNL     1      -0.064   1.033   2.515  0.00  0.00    +0.032 A 
ATOM     30  C   UNL     1       0.561   1.448   3.677  0.00  0.00    +0.051 A 
ATOM     31  C   UNL     1       0.257   2.686   4.217  0.00  0.00    +0.162 A 
ATOM     32  C   UNL     1      -0.668   3.509   3.590  0.00  0.00    +0.164 A 
ATOM     33  C   UNL     1      -1.289   3.093   2.425  0.00  0.00    +0.078 A 
ATOM     34  O   UNL     1      -0.960   4.728   4.130  0.00  0.00    -0.488 OA
ATOM     35  C   UNL     1      -1.663   4.708   5.374  0.00  0.00    +0.232 C 
ATOM     36  C   UNL     1      -0.696   4.550   6.537  0.00  0.00    +0.082 C 
ATOM     37  C   UNL     1       0.021   3.210   6.514  0.00  0.00    +0.232 C 
ATOM     38  O   UNL     1       0.864   3.105   5.365  0.00  0.00    -0.488 OA
ENDBRANCH  25  28
ENDBRANCH  23  25
ENDBRANCH   4  23
TORSDOF 8
