REMARK  Name = ZINC64802079
REMARK  12 active torsions:
REMARK  status: ('A' for Active; 'I' for Inactive)
REMARK    1  A    between atoms: C_1  and  C_2
REMARK    2  A    between atoms: C_2  and  N_3
REMARK    3  A    between atoms: C_6  and  C_31
REMARK    4  A    between atoms: C_8  and  N_10
REMARK    5  A    between atoms: N_10  and  C_11
REMARK    6  A    between atoms: C_14  and  N_17
REMARK    7  A    between atoms: N_17  and  S_18
REMARK    8  A    between atoms: S_18  and  C_21
REMARK    9  A    between atoms: C_24  and  O_29
REMARK   10  A    between atoms: C_25  and  C_28
REMARK   11  A    between atoms: C_26  and  C_27
REMARK   12  A    between atoms: O_29  and  C_30
REMARK                            x       y       z     vdW  Elec       q    Type
REMARK                         _______ _______ _______ _____ _____    ______ ____
ROOT
ATOM      1  C   UNL     1       2.087  -5.687  -3.894  0.00  0.00    +0.032 A 
ATOM      2  C   UNL     1       1.677  -6.782  -3.145  0.00  0.00    +0.025 A 
ATOM      3  C   UNL     1       2.088  -8.052  -3.497  0.00  0.00    +0.026 A 
ATOM      4  C   UNL     1       2.910  -8.235  -4.602  0.00  0.00    +0.048 A 
ATOM      5  C   UNL     1       3.319  -7.140  -5.352  0.00  0.00    +0.026 A 
ATOM      6  C   UNL     1       2.904  -5.870  -5.002  0.00  0.00    +0.025 A 
ENDROOT
BRANCH   1   7
ATOM      7  N   UNL     1       1.670  -4.398  -3.537  0.00  0.00    -0.299 N 
ATOM      8  H   UNL     1       1.519  -3.729  -4.223  0.00  0.00    +0.154 HD
BRANCH   7  14
ATOM      9  N   UNL     1       1.937  -5.574   0.998  0.00  0.00    -0.315 N 
ATOM     10  C   UNL     1       1.599  -4.646   0.028  0.00  0.00    +0.195 A 
ATOM     11  N   UNL     1       1.097  -3.477   0.399  0.00  0.00    -0.332 N 
ATOM     12  C   UNL     1       0.763  -2.563  -0.500  0.00  0.00    +0.019 A 
ATOM     13  C   UNL     1       0.942  -2.839  -1.842  0.00  0.00    +0.064 A 
ATOM     14  C   UNL     1       1.473  -4.079  -2.203  0.00  0.00    +0.128 A 
ATOM     15  N   UNL     1       1.792  -4.946  -1.247  0.00  0.00    -0.201 NA
ATOM     16  C   UNL     1       0.192  -1.239  -0.064  0.00  0.00    +0.063 C 
ATOM     17  H   UNL     1       2.309  -6.431   0.740  0.00  0.00    +0.149 HD
ATOM     18  H   UNL     1       0.973  -3.288   1.342  0.00  0.00    +0.168 HD
BRANCH   9  20
ATOM     19  C   UNL     1       2.183  -6.446   3.270  0.00  0.00    +0.024 C 
ATOM     20  C   UNL     1       1.732  -5.260   2.414  0.00  0.00    +0.101 C 
ENDBRANCH   9  20
ENDBRANCH   7  14
ENDBRANCH   1   7
BRANCH   4  21
ATOM     21  N   UNL     1       3.327  -9.522  -4.958  0.00  0.00    -0.216 N 
ATOM     22  H   UNL     1       3.655 -10.132  -4.279  0.00  0.00    +0.174 HD
BRANCH  21  23
ATOM     23  S   UNL     1       3.260 -10.005  -6.541  0.00  0.00    +0.073 S 
ATOM     24  O   UNL     1       3.692 -11.358  -6.571  0.00  0.00    -0.150 OA
ATOM     25  O   UNL     1       1.991  -9.600  -7.036  0.00  0.00    -0.150 OA
BRANCH  23  26
ATOM     26  C   UNL     1       4.466  -9.071  -7.422  0.00  0.00    +0.112 A 
ATOM     27  C   UNL     1       4.068  -8.162  -8.385  0.00  0.00    +0.032 A 
ATOM     28  C   UNL     1       5.011  -7.429  -9.078  0.00  0.00    +0.048 A 
ATOM     29  C   UNL     1       6.361  -7.605  -8.806  0.00  0.00    +0.123 A 
ATOM     30  C   UNL     1       6.758  -8.517  -7.839  0.00  0.00    -0.004 A 
ATOM     31  C   UNL     1       5.810  -9.244  -7.146  0.00  0.00    -0.017 A 
ATOM     32  C   UNL     1       6.241 -10.231  -6.091  0.00  0.00    +0.046 C 
ATOM     33  C   UNL     1       8.223  -8.710  -7.542  0.00  0.00    +0.048 C 
BRANCH  29  34
ATOM     34  O   UNL     1       7.291  -6.885  -9.486  0.00  0.00    -0.495 OA
ATOM     35  C   UNL     1       6.810  -5.965 -10.467  0.00  0.00    +0.277 C 
ENDBRANCH  29  34
ENDBRANCH  23  26
ENDBRANCH  21  23
ENDBRANCH   4  21
TORSDOF 7
