REMARK  Name = ZINC09332062
REMARK  10 active torsions:
REMARK  status: ('A' for Active; 'I' for Inactive)
REMARK    1  A    between atoms: C_1  and  C_2
REMARK    2  A    between atoms: C_4  and  C_31
REMARK    3  A    between atoms: C_6  and  N_8
REMARK    4  A    between atoms: C_11  and  C_17
REMARK    5  A    between atoms: C_12  and  O_16
REMARK    6  A    between atoms: C_14  and  O_15
REMARK    7  A    between atoms: C_21  and  O_29
REMARK    8  A    between atoms: C_22  and  O_27
REMARK    9  A    between atoms: O_27  and  C_28
REMARK   10  A    between atoms: O_29  and  C_30
REMARK                            x       y       z     vdW  Elec       q    Type
REMARK                         _______ _______ _______ _____ _____    ______ ____
ROOT
ATOM      1  N   UNL     1      -2.429   1.039   0.020  0.00  0.00    -0.231 N 
ATOM      2  C   UNL     1      -3.602   1.697   0.131  0.00  0.00    +0.267 A 
ATOM      3  O   UNL     1      -3.626   2.913   0.230  0.00  0.00    -0.267 OA
ATOM      4  C   UNL     1      -4.792   0.959   0.130  0.00  0.00    +0.069 A 
ATOM      5  C   UNL     1      -4.720  -0.419   0.016  0.00  0.00    +0.224 A 
ATOM      6  N   UNL     1      -3.528  -1.015  -0.091  0.00  0.00    -0.161 NA
ATOM      7  C   UNL     1      -2.415  -0.316  -0.096  0.00  0.00    +0.306 A 
ENDROOT
BRANCH   4   8
ATOM      8  C   UNL     1      -6.126   1.651   0.253  0.00  0.00    +0.001 C 
ATOM      9  C   UNL     1      -6.356   2.505  -0.967  0.00  0.00    -0.050 A 
ATOM     10  C   UNL     1      -6.021   1.984  -2.209  0.00  0.00    +0.052 A 
ATOM     11  C   UNL     1      -6.218   2.728  -3.357  0.00  0.00    +0.162 A 
ATOM     12  C   UNL     1      -6.757   4.009  -3.265  0.00  0.00    +0.162 A 
ATOM     13  C   UNL     1      -7.088   4.525  -2.025  0.00  0.00    +0.053 A 
ATOM     14  C   UNL     1      -6.886   3.774  -0.876  0.00  0.00    -0.044 A 
ATOM     15  C   UNL     1      -7.255   4.384   0.452  0.00  0.00    +0.016 C 
ATOM     16  C   UNL     1      -7.356   3.292   1.518  0.00  0.00    -0.077 C 
ATOM     17  N   UNL     1      -6.130   2.475   1.469  0.00  0.00    +0.387 N 
ATOM     18  H   UNL     1      -5.309   3.092   1.465  0.00  0.00    -0.085 HD
ATOM     19  H   UNL     1      -6.094   1.864   2.294  0.00  0.00    -0.085 HD
BRANCH  12  20
ATOM     20  O   UNL     1      -6.957   4.748  -4.388  0.00  0.00    -0.491 OA
ATOM     21  C   UNL     1      -7.514   6.053  -4.216  0.00  0.00    +0.277 C 
ENDBRANCH  12  20
BRANCH  11  22
ATOM     22  O   UNL     1      -5.887   2.213  -4.571  0.00  0.00    -0.491 OA
ATOM     23  C   UNL     1      -5.339   0.893  -4.588  0.00  0.00    +0.277 C 
ENDBRANCH  11  22
ENDBRANCH   4   8
BRANCH   1  29
ATOM     24  C   UNL     1       1.088   3.401  -2.478  0.00  0.00    +0.044 C 
ATOM     25  C   UNL     1       0.503   2.910  -1.179  0.00  0.00    -0.048 A 
ATOM     26  C   UNL     1       1.158   3.162   0.012  0.00  0.00    +0.006 A 
ATOM     27  C   UNL     1       0.625   2.713   1.206  0.00  0.00    -0.048 A 
ATOM     28  C   UNL     1      -0.566   2.013   1.212  0.00  0.00    +0.029 A 
ATOM     29  C   UNL     1      -1.224   1.754   0.017  0.00  0.00    +0.055 A 
ATOM     30  C   UNL     1      -0.688   2.210  -1.180  0.00  0.00    +0.029 A 
ATOM     31  C   UNL     1       1.342   2.989   2.503  0.00  0.00    +0.044 C 
ENDBRANCH   1  29
BRANCH   7  32
ATOM     32  O   UNL     1      -1.234  -0.957  -0.212  0.00  0.00    -0.479 OA
ATOM     33  H   UNL     1      -1.263  -1.920  -0.292  0.00  0.00    +0.295 HD
ENDBRANCH   7  32
BRANCH   5  34
ATOM     34  O   UNL     1      -5.853  -1.160   0.012  0.00  0.00    -0.492 OA
ATOM     35  H   UNL     1      -5.700  -2.111  -0.072  0.00  0.00    +0.294 HD
ENDBRANCH   5  34
TORSDOF 6
