REMARK  Name = ZINC26103117
REMARK  4 active torsions:
REMARK  status: ('A' for Active; 'I' for Inactive)
REMARK    1  A    between atoms: C_4  and  C_7
REMARK    2  A    between atoms: N_10  and  C_18
REMARK    3  A    between atoms: C_18  and  C_19
REMARK    4  A    between atoms: N_21  and  C_22
REMARK                            x       y       z     vdW  Elec       q    Type
REMARK                         _______ _______ _______ _____ _____    ______ ____
ROOT
ATOM      1  C   UNL     1      -2.506   3.767  -0.058  0.00  0.00    +0.033 C 
ATOM      2  C   UNL     1      -3.391   3.465  -1.267  0.00  0.00    -0.065 C 
ATOM      3  N   UNL     1      -4.708   4.084  -1.047  0.00  0.00    +0.389 N 
ATOM      4  C   UNL     1      -5.442   3.360  -0.004  0.00  0.00    -0.042 C 
ATOM      5  C   UNL     1      -4.599   3.227   1.237  0.00  0.00    -0.060 A 
ATOM      6  C   UNL     1      -3.235   3.412   1.212  0.00  0.00    -0.040 A 
ATOM      7  C   UNL     1      -2.500   3.273   2.380  0.00  0.00    +0.004 A 
ATOM      8  C   UNL     1      -3.129   2.952   3.566  0.00  0.00    +0.000 A 
ATOM      9  C   UNL     1      -4.499   2.768   3.590  0.00  0.00    +0.000 A 
ATOM     10  C   UNL     1      -5.229   2.908   2.431  0.00  0.00    +0.002 A 
ATOM     11  H   UNL     1      -4.557   5.119  -0.707  0.00  0.00    -0.081 HD
ENDROOT
BRANCH   1  15
ATOM     12  C   UNL     1       1.086   1.470  -0.323  0.00  0.00    +0.000 A 
ATOM     13  C   UNL     1      -0.139   0.833  -0.265  0.00  0.00    +0.000 A 
ATOM     14  C   UNL     1      -1.302   1.576  -0.184  0.00  0.00    +0.004 A 
ATOM     15  C   UNL     1      -1.238   2.957  -0.151  0.00  0.00    -0.042 A 
ATOM     16  C   UNL     1      -0.013   3.594  -0.208  0.00  0.00    +0.004 A 
ATOM     17  C   UNL     1       1.149   2.850  -0.294  0.00  0.00    +0.000 A 
ENDBRANCH   1  15
BRANCH   3  18
ATOM     18  C   UNL     1      -5.481   4.135  -2.296  0.00  0.00    +0.019 C 
BRANCH  18  19
ATOM     19  C   UNL     1      -4.810   5.074  -3.264  0.00  0.00    +0.201 C 
ATOM     20  O   UNL     1      -3.849   5.725  -2.911  0.00  0.00    -0.278 OA
ATOM     21  N   UNL     1      -5.278   5.192  -4.522  0.00  0.00    -0.286 N 
ATOM     22  H   UNL     1      -6.200   4.670  -4.817  0.00  0.00    +0.155 HD
BRANCH  21  23
ATOM     23  C   UNL     1      -4.590   5.979  -5.455  0.00  0.00    +0.051 A 
ATOM     24  C   UNL     1      -3.831   7.059  -5.027  0.00  0.00    +0.073 A 
ATOM     25  C   UNL     1      -3.145   7.834  -5.949  0.00  0.00    +0.164 A 
ATOM     26  C   UNL     1      -3.226   7.534  -7.303  0.00  0.00    +0.163 A 
ATOM     27  C   UNL     1      -3.991   6.458  -7.729  0.00  0.00    +0.066 A 
ATOM     28  C   UNL     1      -4.671   5.683  -6.809  0.00  0.00    +0.043 A 
ATOM     29 BR   UNL     1      -5.712   4.216  -7.395  0.00  0.00    -0.048 Br
ATOM     30  O   UNL     1      -2.556   8.282  -8.224  0.00  0.00    -0.485 OA
ATOM     31  C   UNL     1      -2.102   9.571  -7.798  0.00  0.00    +0.270 C 
ATOM     32  C   UNL     1      -1.433   9.415  -6.425  0.00  0.00    +0.270 C 
ATOM     33  O   UNL     1      -2.403   8.889  -5.512  0.00  0.00    -0.485 OA
ENDBRANCH  21  23
ENDBRANCH  18  19
ENDBRANCH   3  18
TORSDOF 4
