REMARK  Name = ZINC36482244
REMARK  18 active torsions:
REMARK  status: ('A' for Active; 'I' for Inactive)
REMARK    1  A    between atoms: C_1  and  C_2
REMARK    2  A    between atoms: C_2  and  C_3
REMARK    3  A    between atoms: C_3  and  C_4
REMARK    4  A    between atoms: C_4  and  C_5
REMARK    5  A    between atoms: C_5  and  C_7
REMARK    6  A    between atoms: C_5  and  C_9
REMARK    7  A    between atoms: C_7  and  C_8
REMARK    8  A    between atoms: N_11  and  C_12
REMARK    9  A    between atoms: N_11  and  C_19
REMARK   10  A    between atoms: C_19  and  C_21
REMARK   11  A    between atoms: C_19  and  C_30
REMARK   12  A    between atoms: C_22  and  O_29
REMARK   13  A    between atoms: C_24  and  O_28
REMARK   14  A    between atoms: C_26  and  O_27
REMARK   15  A    between atoms: N_32  and  C_33
REMARK   16  A    between atoms: C_33  and  C_34
REMARK   17  A    between atoms: C_33  and  C_35
REMARK   18  A    between atoms: C_33  and  C_36
REMARK                            x       y       z     vdW  Elec       q    Type
REMARK                         _______ _______ _______ _____ _____    ______ ____
ROOT
ATOM      1  C   UNL     1       1.248  -6.592   2.998  0.00  0.00    +0.204 C 
ENDROOT
BRANCH   1   2
ATOM      2  C   UNL     1       2.310  -6.913   1.978  0.00  0.00    +0.065 A 
ATOM      3  C   UNL     1       3.585  -6.384   2.116  0.00  0.00    +0.129 A 
ATOM      4  C   UNL     1       4.563  -6.678   1.177  0.00  0.00    +0.091 A 
ATOM      5  C   UNL     1       4.266  -7.502   0.102  0.00  0.00    +0.124 A 
ATOM      6  C   UNL     1       2.992  -8.032  -0.035  0.00  0.00    +0.091 A 
ATOM      7  C   UNL     1       2.015  -7.741   0.906  0.00  0.00    +0.129 A 
BRANCH   7   8
ATOM      8  O   UNL     1       0.768  -8.264   0.774  0.00  0.00    -0.506 OA
ATOM      9  H   UNL     1       0.162  -7.712   0.261  0.00  0.00    +0.292 HD
ENDBRANCH   7   8
BRANCH   5  10
ATOM     10  O   UNL     1       5.224  -7.790  -0.818  0.00  0.00    -0.507 OA
ATOM     11  H   UNL     1       5.744  -8.579  -0.610  0.00  0.00    +0.292 HD
ENDBRANCH   5  10
BRANCH   3  12
ATOM     12  O   UNL     1       3.876  -5.576   3.169  0.00  0.00    -0.506 OA
ATOM     13  H   UNL     1       4.274  -6.037   3.920  0.00  0.00    +0.292 HD
ENDBRANCH   3  12
ENDBRANCH   1   2
BRANCH   1  14
ATOM     14  C   UNL     1       1.493  -7.397   4.248  0.00  0.00    +0.239 C 
ATOM     15  O   UNL     1       2.050  -6.888   5.197  0.00  0.00    -0.273 OA
ATOM     16  N   UNL     1       1.092  -8.682   4.312  0.00  0.00    -0.309 N 
ATOM     17  H   UNL     1       0.646  -9.089   3.553  0.00  0.00    +0.149 HD
BRANCH  16  18
ATOM     18  C   UNL     1       1.330  -9.465   5.527  0.00  0.00    +0.026 C 
ATOM     19  C   UNL     1       0.623  -8.799   6.709  0.00  0.00    +0.031 C 
ATOM     20  C   UNL     1       0.783 -10.881   5.338  0.00  0.00    +0.031 C 
ATOM     21  C   UNL     1       2.833  -9.532   5.804  0.00  0.00    +0.031 C 
ENDBRANCH  16  18
ENDBRANCH   1  14
BRANCH   1  24
ATOM     22  C   UNL     1       1.395  -4.253   2.331  0.00  0.00    +0.224 C 
ATOM     23  O   UNL     1       1.542  -4.618   1.183  0.00  0.00    -0.275 OA
ATOM     24  N   UNL     1       1.294  -5.164   3.320  0.00  0.00    -0.255 N 
BRANCH  24  25
ATOM     25  C   UNL     1       1.234  -4.745   4.653  0.00  0.00    +0.039 A 
ATOM     26  C   UNL     1       0.208  -5.190   5.477  0.00  0.00    +0.023 A 
ATOM     27  C   UNL     1       0.151  -4.775   6.793  0.00  0.00    +0.003 A 
ATOM     28  C   UNL     1       1.114  -3.917   7.292  0.00  0.00    +0.020 A 
ATOM     29  C   UNL     1       2.138  -3.471   6.474  0.00  0.00    +0.043 A 
ATOM     30  C   UNL     1       2.203  -3.888   5.157  0.00  0.00    +0.043 A 
ATOM     31 CL   UNL     1       3.344  -2.394   7.104  0.00  0.00    -0.083 Cl
ENDBRANCH  24  25
BRANCH  22  32
ATOM     32  C   UNL     1       1.326  -2.783   2.651  0.00  0.00    +0.075 C 
BRANCH  32  33
ATOM     33  C   UNL     1      -0.138  -2.349   2.743  0.00  0.00    +0.009 C 
ATOM     34  C   UNL     1      -0.810  -3.067   3.915  0.00  0.00    +0.004 C 
ENDBRANCH  32  33
BRANCH  32  35
ATOM     35  C   UNL     1       2.026  -1.987   1.547  0.00  0.00    +0.013 C 
BRANCH  35  36
ATOM     36  C   UNL     1       2.065  -0.507   1.933  0.00  0.00    +0.000 C 
BRANCH  36  38
ATOM     37  C   UNL     1       2.804   1.769   1.214  0.00  0.00    +0.004 C 
ATOM     38  C   UNL     1       2.765   0.289   0.829  0.00  0.00    -0.003 C 
ENDBRANCH  36  38
ENDBRANCH  35  36
ENDBRANCH  32  35
ENDBRANCH  22  32
ENDBRANCH   1  24
TORSDOF 13
