REMARK  Name = ZINC67473441
REMARK  11 active torsions:
REMARK  status: ('A' for Active; 'I' for Inactive)
REMARK    1  A    between atoms: C_1  and  N_2
REMARK    2  A    between atoms: N_2  and  C_3
REMARK    3  A    between atoms: N_2  and  C_8
REMARK    4  A    between atoms: C_3  and  C_4
REMARK    5  A    between atoms: C_4  and  C_5
REMARK    6  A    between atoms: C_8  and  C_9
REMARK    7  A    between atoms: C_9  and  O_26
REMARK    8  A    between atoms: N_13  and  C_16
REMARK    9  A    between atoms: C_16  and  C_17
REMARK   10  A    between atoms: C_19  and  O_24
REMARK   11  A    between atoms: O_24  and  C_25
REMARK                            x       y       z     vdW  Elec       q    Type
REMARK                         _______ _______ _______ _____ _____    ______ ____
ROOT
ATOM      1  C   UNL     1      -1.974  -0.018   1.449  0.00  0.00    +0.127 C 
ATOM      2  C   UNL     1      -3.303  -0.736   1.700  0.00  0.00    +0.044 C 
ATOM      3  C   UNL     1      -3.751  -0.438   3.136  0.00  0.00    +0.022 C 
ATOM      4  C   UNL     1      -2.777  -1.113   4.103  0.00  0.00    +0.108 C 
ATOM      5  N   UNL     1      -1.401  -0.772   3.762  0.00  0.00    -0.295 N 
ATOM      6  C   UNL     1      -1.020  -0.302   2.574  0.00  0.00    +0.246 C 
ATOM      7  O   UNL     1       0.161  -0.093   2.391  0.00  0.00    -0.273 OA
ENDROOT
BRANCH   1   8
ATOM      8  O   UNL     1      -2.204   1.389   1.366  0.00  0.00    -0.381 OA
ATOM      9  H   UNL     1      -2.587   1.773   2.167  0.00  0.00    +0.211 HD
ENDBRANCH   1   8
BRANCH   1  10
ATOM     10  C   UNL     1      -1.370  -0.513   0.133  0.00  0.00    -0.034 C 
BRANCH  10  12
ATOM     11  C   UNL     1      -0.337   1.601  -0.335  0.00  0.00    -0.096 C 
ATOM     12  N   UNL     1      -0.092   0.171  -0.107  0.00  0.00    +0.380 N 
ATOM     13  H   UNL     1       0.507   0.056   0.697  0.00  0.00    -0.082 HD
BRANCH  12  14
ATOM     14  C   UNL     1       0.559  -0.409  -1.289  0.00  0.00    -0.070 C 
BRANCH  14  15
ATOM     15  C   UNL     1       1.944   0.216  -1.466  0.00  0.00    +0.077 C 
BRANCH  15  16
ATOM     16  C   UNL     1       2.612  -0.379  -2.679  0.00  0.00    +0.209 C 
ATOM     17  O   UNL     1       2.037  -1.220  -3.337  0.00  0.00    -0.276 OA
ATOM     18  N   UNL     1       3.849   0.024  -3.033  0.00  0.00    -0.329 N 
ATOM     19  H   UNL     1       4.309   0.697  -2.507  0.00  0.00    +0.145 HD
ATOM     20  H   UNL     1       4.279  -0.359  -3.814  0.00  0.00    +0.145 HD
ENDBRANCH  15  16
ENDBRANCH  14  15
ENDBRANCH  12  14
ENDBRANCH  10  12
ENDBRANCH   1  10
BRANCH   5  21
ATOM     21  C   UNL     1      -0.373  -0.958   4.789  0.00  0.00    +0.146 C 
BRANCH  21  22
ATOM     22  C   UNL     1       0.195  -2.350   4.685  0.00  0.00    +0.008 A 
ATOM     23  C   UNL     1       1.452  -2.545   4.145  0.00  0.00    +0.053 A 
ATOM     24  C   UNL     1       1.974  -3.826   4.050  0.00  0.00    +0.121 A 
ATOM     25  C   UNL     1       1.234  -4.910   4.497  0.00  0.00    +0.048 A 
ATOM     26  C   UNL     1      -0.022  -4.713   5.037  0.00  0.00    +0.042 A 
ATOM     27  C   UNL     1      -0.540  -3.433   5.136  0.00  0.00    +0.128 A 
ATOM     28  F   UNL     1      -1.767  -3.241   5.670  0.00  0.00    -0.205 F 
BRANCH  24  29
ATOM     29  O   UNL     1       3.210  -4.019   3.518  0.00  0.00    -0.495 OA
ATOM     30  C   UNL     1       3.685  -5.365   3.451  0.00  0.00    +0.277 C 
ENDBRANCH  24  29
ENDBRANCH  21  22
ENDBRANCH   5  21
TORSDOF 9
