REMARK  Name = ZINC16688330
REMARK  13 active torsions:
REMARK  status: ('A' for Active; 'I' for Inactive)
REMARK    1  A    between atoms: C_1  and  C_2
REMARK    2  A    between atoms: C_2  and  O_3
REMARK    3  A    between atoms: O_3  and  C_4
REMARK    4  A    between atoms: C_6  and  C_16
REMARK    5  A    between atoms: C_9  and  O_10
REMARK    6  A    between atoms: O_10  and  C_11
REMARK    7  A    between atoms: C_11  and  C_12
REMARK    8  A    between atoms: C_16  and  N_51
REMARK    9  A    between atoms: C_17  and  C_18
REMARK   10  A    between atoms: C_17  and  N_51
REMARK   11  A    between atoms: C_18  and  N_19
REMARK   12  A    between atoms: N_19  and  C_20
REMARK   13  A    between atoms: C_23  and  N_27
REMARK                            x       y       z     vdW  Elec       q    Type
REMARK                         _______ _______ _______ _____ _____    ______ ____
ROOT
ATOM      1  C   UNL     1       1.526   0.032   6.145  0.00  0.00    -0.047 C 
ENDROOT
BRANCH   1   4
ATOM      2  C   UNL     1       0.807   1.987   2.993  0.00  0.00    +0.163 A 
ATOM      3  C   UNL     1       1.347   1.611   4.212  0.00  0.00    +0.051 A 
ATOM      4  C   UNL     1       0.937   0.438   4.818  0.00  0.00    -0.060 A 
ATOM      5  C   UNL     1      -0.012  -0.362   4.211  0.00  0.00    +0.021 A 
ATOM      6  C   UNL     1      -0.559   0.009   2.996  0.00  0.00    +0.063 A 
ATOM      7  C   UNL     1      -0.148   1.182   2.381  0.00  0.00    +0.176 A 
ATOM      8 BR   UNL     1      -1.863  -1.084   2.172  0.00  0.00    -0.046 Br
BRANCH   2   9
ATOM      9  O   UNL     1       1.209   3.141   2.396  0.00  0.00    -0.489 OA
BRANCH   9  11
ATOM     10  C   UNL     1       2.516   5.169   2.264  0.00  0.00    +0.048 C 
ATOM     11  C   UNL     1       2.192   3.918   3.083  0.00  0.00    +0.226 C 
ENDBRANCH   9  11
ENDBRANCH   2   9
BRANCH   7  12
ATOM     12  O   UNL     1      -0.682   1.547   1.184  0.00  0.00    -0.478 OA
BRANCH  12  13
ATOM     13  C   UNL     1      -0.013   1.086   0.008  0.00  0.00    +0.324 C 
BRANCH  13  14
ATOM     14  C   UNL     1      -0.742   1.585  -1.213  0.00  0.00    +0.248 C 
ATOM     15  O   UNL     1      -1.736   2.268  -1.088  0.00  0.00    -0.272 OA
ATOM     16  N   UNL     1      -0.288   1.272  -2.443  0.00  0.00    -0.327 N 
ATOM     17  H   UNL     1       0.507   0.726  -2.543  0.00  0.00    +0.145 HD
ATOM     18  H   UNL     1      -0.758   1.594  -3.229  0.00  0.00    +0.145 HD
ENDBRANCH  13  14
ENDBRANCH  12  13
ENDBRANCH   7  12
ENDBRANCH   1   4
BRANCH   1  19
ATOM     19  N   UNL     1       0.704   0.596   7.232  0.00  0.00    +0.383 N 
ATOM     20  H   UNL     1      -0.255   0.239   7.152  0.00  0.00    -0.085 HD
ATOM     21  H   UNL     1       0.696   1.620   7.153  0.00  0.00    -0.085 HD
BRANCH  19  22
ATOM     22  C   UNL     1       1.258   0.214   8.544  0.00  0.00    -0.063 C 
BRANCH  22  23
ATOM     23  C   UNL     1       0.387   0.813   9.650  0.00  0.00    +0.082 C 
BRANCH  23  24
ATOM     24  N   UNL     1       0.930   0.437  10.958  0.00  0.00    -0.345 N 
ATOM     25  H   UNL     1       1.728  -0.112  11.011  0.00  0.00    +0.146 HD
BRANCH  24  26
ATOM     26  C   UNL     1       0.300   0.870  12.127  0.00  0.00    +0.046 A 
ATOM     27  C   UNL     1      -0.842   1.657  12.052  0.00  0.00    +0.026 A 
ATOM     28  C   UNL     1      -1.463   2.083  13.210  0.00  0.00    +0.034 A 
ATOM     29  C   UNL     1      -0.949   1.728  14.443  0.00  0.00    +0.128 A 
ATOM     30  C   UNL     1       0.188   0.945  14.523  0.00  0.00    +0.054 A 
ATOM     31  C   UNL     1       0.811   0.510  13.368  0.00  0.00    +0.064 A 
ATOM     32 CL   UNL     1       2.234  -0.479  13.469  0.00  0.00    -0.082 Cl
BRANCH  29  33
ATOM     33  N   UNL     1      -1.618   2.187  15.682  0.00  0.00    +0.056 N 
ATOM     34  O   UNL     1      -2.619   2.876  15.613  0.00  0.00    -0.126 OA
ATOM     35  O   UNL     1      -1.166   1.875  16.769  0.00  0.00    -0.126 OA
ENDBRANCH  29  33
ENDBRANCH  24  26
ENDBRANCH  23  24
ENDBRANCH  22  23
ENDBRANCH  19  22
ENDBRANCH   1  19
TORSDOF 12
