REMARK  Name = ZINC67516861
REMARK  3 active torsions:
REMARK  status: ('A' for Active; 'I' for Inactive)
REMARK    1  A    between atoms: C_1  and  C_2
REMARK    2  A    between atoms: C_15  and  C_17
REMARK    3  A    between atoms: C_17  and  N_18
REMARK                            x       y       z     vdW  Elec       q    Type
REMARK                         _______ _______ _______ _____ _____    ______ ____
ROOT
ATOM      1  C   UNL     1       0.133   1.854   0.724  0.00  0.00    +0.007 C 
ATOM      2  C   UNL     1       0.174   0.343   0.485  0.00  0.00    -0.014 C 
ATOM      3  C   UNL     1      -1.250  -0.184   0.294  0.00  0.00    +0.005 C 
ATOM      4  C   UNL     1      -1.199  -1.691   0.040  0.00  0.00    +0.023 C 
ATOM      5  C   UNL     1      -0.548  -2.396   1.226  0.00  0.00    +0.079 C 
ATOM      6  C   UNL     1       0.862  -1.848   1.462  0.00  0.00    +0.010 C 
ATOM      7  C   UNL     1       0.811  -0.347   1.692  0.00  0.00    +0.008 C 
ATOM      8  C   UNL     1       1.450  -2.523   2.707  0.00  0.00    +0.007 C 
ATOM      9  C   UNL     1       0.590  -2.175   3.924  0.00  0.00    +0.019 C 
ATOM     10  C   UNL     1      -0.832  -2.704   3.715  0.00  0.00    +0.108 C 
ATOM     11  N   UNL     1      -1.340  -2.177   2.441  0.00  0.00    -0.297 N 
ATOM     12  C   UNL     1      -2.516  -1.520   2.389  0.00  0.00    +0.234 C 
ATOM     13  O   UNL     1      -2.975  -1.183   1.318  0.00  0.00    -0.274 OA
ENDROOT
BRANCH  12  14
ATOM     14  C   UNL     1      -3.260  -1.205   3.661  0.00  0.00    +0.212 C 
BRANCH  14  15
ATOM     15  N   UNL     1      -4.499  -0.492   3.338  0.00  0.00    -0.233 N 
ATOM     16  C   UNL     1      -4.571   0.847   3.246  0.00  0.00    +0.226 C 
ATOM     17  O   UNL     1      -3.634   1.615   3.266  0.00  0.00    -0.275 OA
ATOM     18  C   UNL     1      -6.044   1.228   3.112  0.00  0.00    +0.087 C 
ATOM     19  C   UNL     1      -6.529   1.703   4.468  0.00  0.00    +0.013 C 
ATOM     20  C   UNL     1      -8.029   1.517   4.651  0.00  0.00    +0.001 C 
ATOM     21  C   UNL     1      -8.355   0.027   4.496  0.00  0.00    +0.001 C 
ATOM     22  C   UNL     1      -8.065  -0.376   3.055  0.00  0.00    +0.013 C 
ATOM     23  C   UNL     1      -6.650  -0.078   2.618  0.00  0.00    +0.087 C 
ATOM     24  C   UNL     1      -5.666  -1.121   3.100  0.00  0.00    +0.226 C 
ATOM     25  O   UNL     1      -5.888  -2.303   3.247  0.00  0.00    -0.275 OA
ENDBRANCH  14  15
ENDBRANCH  12  14
TORSDOF 2
