REMARK  Name = ZINC67380046
REMARK  10 active torsions:
REMARK  status: ('A' for Active; 'I' for Inactive)
REMARK    1  A    between atoms: C_1  and  N_2
REMARK    2  A    between atoms: N_2  and  C_3
REMARK    3  A    between atoms: N_2  and  C_21
REMARK    4  A    between atoms: C_3  and  C_4
REMARK    5  A    between atoms: C_4  and  N_5
REMARK    6  A    between atoms: C_6  and  C_8
REMARK    7  A    between atoms: N_10  and  C_11
REMARK    8  A    between atoms: C_16  and  C_17
REMARK    9  A    between atoms: C_17  and  C_18
REMARK   10  A    between atoms: C_21  and  C_22
REMARK                            x       y       z     vdW  Elec       q    Type
REMARK                         _______ _______ _______ _____ _____    ______ ____
ROOT
ATOM      1  N   UNL     1       0.628  -0.604   3.634  0.00  0.00    -0.309 N 
ATOM      2  C   UNL     1       0.122  -0.374   4.862  0.00  0.00    +0.299 C 
ATOM      3  O   UNL     1      -0.926   0.226   4.984  0.00  0.00    -0.265 OA
ATOM      4  H   UNL     1       1.465  -1.084   3.536  0.00  0.00    +0.149 HD
ENDROOT
BRANCH   2   5
ATOM      5  C   UNL     1       0.850  -0.859   6.072  0.00  0.00    +0.303 C 
ATOM      6  O   UNL     1       1.898  -1.460   5.950  0.00  0.00    -0.265 OA
ATOM      7  N   UNL     1       0.344  -0.630   7.300  0.00  0.00    -0.277 N 
ATOM      8  H   UNL     1      -0.450  -0.082   7.403  0.00  0.00    +0.155 HD
BRANCH   7   9
ATOM      9  C   UNL     1       0.963  -1.181   8.425  0.00  0.00    +0.037 A 
ATOM     10  C   UNL     1       1.734  -2.331   8.302  0.00  0.00    +0.023 A 
ATOM     11  C   UNL     1       2.344  -2.873   9.416  0.00  0.00    +0.002 A 
ATOM     12  C   UNL     1       2.189  -2.273  10.652  0.00  0.00    +0.000 A 
ATOM     13  C   UNL     1       1.422  -1.130  10.778  0.00  0.00    +0.006 A 
ATOM     14  C   UNL     1       0.814  -0.578   9.667  0.00  0.00    -0.017 A 
BRANCH  14  15
ATOM     15  C   UNL     1      -0.015   0.672   9.804  0.00  0.00    +0.132 C 
BRANCH  15  16
ATOM     16  C   UNL     1      -1.465   0.298   9.973  0.00  0.00    +0.215 C 
ATOM     17  O   UNL     1      -1.793  -0.870   9.982  0.00  0.00    -0.276 OA
ATOM     18  N   UNL     1      -2.398   1.260  10.115  0.00  0.00    -0.329 N 
ATOM     19  H   UNL     1      -2.136   2.194  10.108  0.00  0.00    +0.145 HD
ATOM     20  H   UNL     1      -3.331   1.019  10.224  0.00  0.00    +0.145 HD
ENDBRANCH  15  16
ENDBRANCH  14  15
ENDBRANCH   7   9
ENDBRANCH   2   5
BRANCH   1  21
ATOM     21  C   UNL     1      -0.087  -0.129   2.447  0.00  0.00    +0.086 C 
BRANCH  21  22
ATOM     22  C   UNL     1       0.696  -0.517   1.191  0.00  0.00    -0.060 C 
BRANCH  22  24
ATOM     23  C   UNL     1      -0.050   1.429   0.002  0.00  0.00    -0.096 C 
ATOM     24  N   UNL     1      -0.021  -0.040   0.000  0.00  0.00    +0.382 N 
ATOM     25  H   UNL     1      -0.965  -0.395   0.011  0.00  0.00    -0.082 HD
BRANCH  24  26
ATOM     26  C   UNL     1       0.667  -0.515  -1.208  0.00  0.00    -0.043 C 
BRANCH  26  27
ATOM     27  C   UNL     1      -0.134  -0.131  -2.425  0.00  0.00    -0.064 A 
ATOM     28  C   UNL     1      -1.103  -0.987  -2.914  0.00  0.00    +0.002 A 
ATOM     29  C   UNL     1      -1.838  -0.635  -4.030  0.00  0.00    +0.000 A 
ATOM     30  C   UNL     1      -1.604   0.574  -4.659  0.00  0.00    +0.000 A 
ATOM     31  C   UNL     1      -0.635   1.431  -4.170  0.00  0.00    +0.000 A 
ATOM     32  C   UNL     1       0.096   1.080  -3.051  0.00  0.00    +0.002 A 
ENDBRANCH  26  27
ENDBRANCH  24  26
ENDBRANCH  22  24
ENDBRANCH  21  22
ENDBRANCH   1  21
TORSDOF 9
