REMARK  Name = ZINC36612720
REMARK  10 active torsions:
REMARK  status: ('A' for Active; 'I' for Inactive)
REMARK    1  A    between atoms: C_1  and  C_2
REMARK    2  A    between atoms: C_5  and  N_8
REMARK    3  A    between atoms: C_9  and  C_11
REMARK    4  A    between atoms: C_11  and  O_12
REMARK    5  A    between atoms: O_12  and  C_13
REMARK    6  A    between atoms: C_18  and  C_19
REMARK    7  A    between atoms: C_19  and  N_20
REMARK    8  A    between atoms: N_20  and  C_21
REMARK    9  A    between atoms: C_21  and  C_22
REMARK   10  A    between atoms: C_22  and  O_23
REMARK                            x       y       z     vdW  Elec       q    Type
REMARK                         _______ _______ _______ _____ _____    ______ ____
ROOT
ATOM      1  C   UNL     1       0.545  -8.176   2.625  0.00  0.00    +0.123 A 
ATOM      2  C   UNL     1       0.572  -9.011   1.517  0.00  0.00    +0.047 A 
ATOM      3  C   UNL     1       0.702 -10.376   1.685  0.00  0.00    +0.019 A 
ATOM      4  C   UNL     1       0.805 -10.910   2.957  0.00  0.00    +0.018 A 
ATOM      5  C   UNL     1       0.778 -10.080   4.063  0.00  0.00    +0.020 A 
ATOM      6  C   UNL     1       0.655  -8.713   3.899  0.00  0.00    -0.022 A 
ATOM      7 BR   UNL     1       0.983 -12.779   3.185  0.00  0.00    -0.050 Br
ENDROOT
BRANCH   1   8
ATOM      8  O   UNL     1       0.417  -6.833   2.462  0.00  0.00    -0.483 OA
BRANCH   8   9
ATOM      9  C   UNL     1       0.309  -6.349   1.121  0.00  0.00    +0.324 C 
BRANCH   9  11
ATOM     10  N   UNL     1       0.059  -4.170  -0.021  0.00  0.00    -0.283 N 
ATOM     11  C   UNL     1       0.175  -4.848   1.138  0.00  0.00    +0.255 C 
ATOM     12  O   UNL     1       0.173  -4.251   2.193  0.00  0.00    -0.272 OA
ATOM     13  H   UNL     1      -0.017  -4.651  -0.860  0.00  0.00    +0.155 HD
BRANCH  10  18
ATOM     14  C   UNL     1       0.008   1.503   0.007  0.00  0.00    +0.044 C 
ATOM     15  C   UNL     1       0.022  -0.004  -0.001  0.00  0.00    -0.050 A 
ATOM     16  C   UNL     1       0.777  -0.692   0.931  0.00  0.00    +0.005 A 
ATOM     17  C   UNL     1       0.791  -2.073   0.927  0.00  0.00    +0.023 A 
ATOM     18  C   UNL     1       0.046  -2.771  -0.014  0.00  0.00    +0.034 A 
ATOM     19  C   UNL     1      -0.712  -2.077  -0.948  0.00  0.00    +0.023 A 
ATOM     20  C   UNL     1      -0.726  -0.696  -0.936  0.00  0.00    +0.005 A 
ENDBRANCH  10  18
ENDBRANCH   9  11
ENDBRANCH   8   9
ENDBRANCH   1   8
BRANCH   6  21
ATOM     21  C   UNL     1       0.633  -7.808   5.104  0.00  0.00    -0.043 C 
BRANCH  21  22
ATOM     22  N   UNL     1      -0.755  -7.444   5.417  0.00  0.00    +0.383 N 
ATOM     23  H   UNL     1      -1.163  -6.964   4.629  0.00  0.00    -0.085 HD
ATOM     24  H   UNL     1      -1.286  -8.279   5.614  0.00  0.00    -0.085 HD
BRANCH  22  25
ATOM     25  C   UNL     1      -0.777  -6.561   6.591  0.00  0.00    -0.054 C 
BRANCH  25  26
ATOM     26  C   UNL     1      -2.223  -6.182   6.918  0.00  0.00    +0.137 C 
BRANCH  26  27
ATOM     27  O   UNL     1      -2.945  -7.351   7.310  0.00  0.00    -0.397 OA
ATOM     28  H   UNL     1      -3.871  -7.184   7.532  0.00  0.00    +0.209 HD
ENDBRANCH  26  27
ENDBRANCH  25  26
ENDBRANCH  22  25
ENDBRANCH  21  22
ENDBRANCH   6  21
TORSDOF 9
