REMARK  Name = ZINC21264104
REMARK  15 active torsions:
REMARK  status: ('A' for Active; 'I' for Inactive)
REMARK    1  A    between atoms: C_1  and  C_2
REMARK    2  A    between atoms: C_2  and  C_27
REMARK    3  A    between atoms: C_4  and  N_10
REMARK    4  A    between atoms: C_6  and  C_8
REMARK    5  A    between atoms: C_6  and  C_9
REMARK    6  A    between atoms: N_10  and  C_11
REMARK    7  A    between atoms: C_11  and  N_13
REMARK    8  A    between atoms: N_13  and  C_14
REMARK    9  A    between atoms: N_13  and  C_20
REMARK   10  A    between atoms: C_14  and  C_15
REMARK   11  A    between atoms: C_15  and  C_16
REMARK   12  A    between atoms: C_16  and  N_17
REMARK   13  A    between atoms: N_17  and  C_18
REMARK   14  A    between atoms: N_17  and  C_19
REMARK   15  A    between atoms: C_20  and  C_21
REMARK                            x       y       z     vdW  Elec       q    Type
REMARK                         _______ _______ _______ _____ _____    ______ ____
ROOT
ATOM      1  C   UNL     1       1.454   5.965   1.926  0.00  0.00    +0.133 C 
ATOM      2  S   UNL     1       1.626   6.524   3.535  0.00  0.00    -0.019 S 
ENDROOT
BRANCH   1   3
ATOM      3  N   UNL     1       2.547   5.712   1.179  0.00  0.00    -0.324 N 
ATOM      4  H   UNL     1       2.436   5.354   0.145  0.00  0.00    +0.148 HD
BRANCH   3   8
ATOM      5  C   UNL     1       6.411   4.532   2.931  0.00  0.00    -0.010 C 
ATOM      6  C   UNL     1       6.291   5.227   1.569  0.00  0.00    -0.072 C 
ATOM      7  C   UNL     1       4.884   5.020   1.013  0.00  0.00    +0.009 C 
ATOM      8  C   UNL     1       3.886   5.915   1.747  0.00  0.00    +0.069 C 
ATOM      9  C   UNL     1       4.302   7.372   1.547  0.00  0.00    +0.009 C 
ATOM     10  C   UNL     1       5.702   7.608   2.108  0.00  0.00    -0.072 C 
ATOM     11  N   UNL     1       6.664   6.623   1.659  0.00  0.00    +0.386 N 
ATOM     12  C   UNL     1       5.638   7.662   3.639  0.00  0.00    -0.010 C 
ATOM     13  C   UNL     1       6.171   8.997   1.620  0.00  0.00    -0.010 C 
ATOM     14  C   UNL     1       7.278   4.524   0.610  0.00  0.00    -0.010 C 
ATOM     15  H   UNL     1       7.502   6.734   2.363  0.00  0.00    -0.084 HD
ATOM     16  H   UNL     1       6.968   6.986   0.666  0.00  0.00    -0.084 HD
ENDBRANCH   3   8
ENDBRANCH   1   3
BRANCH   1  17
ATOM     17  N   UNL     1       0.224   5.779   1.405  0.00  0.00    -0.307 N 
BRANCH  17  18
ATOM     18  C   UNL     1      -0.964   6.054   2.216  0.00  0.00    +0.105 C 
BRANCH  18  19
ATOM     19  C   UNL     1      -1.371   4.787   2.970  0.00  0.00    +0.000 C 
BRANCH  19  20
ATOM     20  C   UNL     1      -2.613   5.075   3.818  0.00  0.00    -0.078 C 
BRANCH  20  21
ATOM     21  N   UNL     1      -3.004   3.858   4.542  0.00  0.00    +0.376 N 
ATOM     22  C   UNL     1      -1.984   3.484   5.531  0.00  0.00    -0.097 C 
ATOM     23  C   UNL     1      -4.318   4.023   5.177  0.00  0.00    -0.097 C 
ATOM     24  H   UNL     1      -3.081   3.040   3.811  0.00  0.00    -0.083 HD
ENDBRANCH  20  21
ENDBRANCH  19  20
ENDBRANCH  18  19
ENDBRANCH  17  18
BRANCH  17  25
ATOM     25  C   UNL     1       0.077   5.302   0.028  0.00  0.00    +0.162 C 
BRANCH  25  26
ATOM     26  C   UNL     1       0.033   3.795   0.021  0.00  0.00    +0.058 A 
ATOM     27  C   UNL     1      -1.188   3.147   0.029  0.00  0.00    +0.025 A 
ATOM     28  C   UNL     1      -1.218   1.762   0.017  0.00  0.00    +0.003 A 
ATOM     29  C   UNL     1      -0.013   1.076   0.008  0.00  0.00    +0.020 A 
ATOM     30  C   UNL     1       1.169   1.792   0.001  0.00  0.00    +0.111 A 
ATOM     31  N   UNL     1       1.159   3.110   0.007  0.00  0.00    -0.258 NA
ENDBRANCH  25  26
ENDBRANCH  17  25
ENDBRANCH   1  17
TORSDOF 9
