REMARK  Name = ZINC36530226
REMARK  14 active torsions:
REMARK  status: ('A' for Active; 'I' for Inactive)
REMARK    1  A    between atoms: C_1  and  C_2
REMARK    2  A    between atoms: C_2  and  C_3
REMARK    3  A    between atoms: C_2  and  C_4
REMARK    4  A    between atoms: C_2  and  C_5
REMARK    5  A    between atoms: C_5  and  C_6
REMARK    6  A    between atoms: C_6  and  C_7
REMARK    7  A    between atoms: C_6  and  C_8
REMARK    8  A    between atoms: C_6  and  N_9
REMARK    9  A    between atoms: C_10  and  C_12
REMARK   10  A    between atoms: C_12  and  C_14
REMARK   11  A    between atoms: C_12  and  N_22
REMARK   12  A    between atoms: N_22  and  C_23
REMARK   13  A    between atoms: C_24  and  C_26
REMARK   14  A    between atoms: C_28  and  N_33
REMARK                            x       y       z     vdW  Elec       q    Type
REMARK                         _______ _______ _______ _____ _____    ______ ____
ROOT
ATOM      1  C   UNL     1       6.214  -0.789  -2.134  0.00  0.00    +0.195 C 
ENDROOT
BRANCH   1   2
ATOM      2  C   UNL     1       6.167   0.066  -3.375  0.00  0.00    +0.018 A 
ATOM      3  C   UNL     1       7.155  -0.053  -4.335  0.00  0.00    +0.048 A 
ATOM      4  C   UNL     1       7.111   0.732  -5.473  0.00  0.00    +0.020 A 
ATOM      5  C   UNL     1       6.080   1.635  -5.651  0.00  0.00    +0.003 A 
ATOM      6  C   UNL     1       5.092   1.754  -4.692  0.00  0.00    +0.020 A 
ATOM      7  C   UNL     1       5.132   0.965  -3.556  0.00  0.00    +0.048 A 
ATOM      8 CL   UNL     1       3.886   1.110  -2.355  0.00  0.00    -0.083 Cl
ATOM      9 CL   UNL     1       8.451  -1.186  -4.111  0.00  0.00    -0.083 Cl
ENDBRANCH   1   2
BRANCH   1  11
ATOM     10  N   UNL     1       4.588  -2.638  -2.373  0.00  0.00    -0.308 N 
ATOM     11  C   UNL     1       4.860  -1.406  -1.898  0.00  0.00    +0.239 C 
ATOM     12  O   UNL     1       4.014  -0.794  -1.280  0.00  0.00    -0.273 OA
ATOM     13  H   UNL     1       5.226  -3.087  -2.949  0.00  0.00    +0.149 HD
BRANCH  10  14
ATOM     14  C   UNL     1       3.329  -3.298  -2.018  0.00  0.00    +0.030 C 
ATOM     15  C   UNL     1       2.161  -2.542  -2.654  0.00  0.00    +0.031 C 
ATOM     16  C   UNL     1       3.167  -3.304  -0.497  0.00  0.00    +0.031 C 
BRANCH  14  17
ATOM     17  C   UNL     1       3.346  -4.738  -2.534  0.00  0.00    +0.031 C 
BRANCH  17  19
ATOM     18  C   UNL     1       5.261  -4.335  -4.088  0.00  0.00    +0.010 C 
ATOM     19  C   UNL     1       3.791  -4.750  -3.998  0.00  0.00    -0.036 C 
ATOM     20  C   UNL     1       2.934  -3.768  -4.800  0.00  0.00    +0.010 C 
ATOM     21  C   UNL     1       3.623  -6.159  -4.571  0.00  0.00    +0.010 C 
ENDBRANCH  17  19
ENDBRANCH  14  17
ENDBRANCH  10  14
ENDBRANCH   1  11
BRANCH   1  22
ATOM     22  N   UNL     1       6.581   0.041  -0.984  0.00  0.00    -0.285 N 
ATOM     23  C   UNL     1       5.731   1.168  -0.593  0.00  0.00    +0.133 C 
ATOM     24  C   UNL     1       7.700  -0.234  -0.285  0.00  0.00    +0.251 C 
ATOM     25  O   UNL     1       8.453  -1.110  -0.663  0.00  0.00    -0.270 OA
BRANCH  24  26
ATOM     26  C   UNL     1       8.011   0.529   0.940  0.00  0.00    +0.086 A 
ATOM     27  C   UNL     1       7.070   0.620   1.968  0.00  0.00    +0.049 A 
ATOM     28  C   UNL     1       7.366   1.334   3.109  0.00  0.00    +0.127 A 
ATOM     29  C   UNL     1       8.594   1.962   3.241  0.00  0.00    +0.036 A 
ATOM     30  C   UNL     1       9.532   1.881   2.232  0.00  0.00    +0.054 A 
ATOM     31  C   UNL     1       9.253   1.161   1.079  0.00  0.00    +0.191 A 
ATOM     32  O   UNL     1      10.177   1.075   0.090  0.00  0.00    -0.287 OA
BRANCH  28  33
ATOM     33  N   UNL     1       6.368   1.430   4.198  0.00  0.00    +0.056 N 
ATOM     34  O   UNL     1       5.296   0.882   4.086  0.00  0.00    -0.126 OA
ATOM     35  O   UNL     1       6.625   2.055   5.200  0.00  0.00    -0.126 OA
ENDBRANCH  28  33
ENDBRANCH  24  26
ENDBRANCH   1  22
TORSDOF 8
