REMARK  Name = ZINC36637301
REMARK  12 active torsions:
REMARK  status: ('A' for Active; 'I' for Inactive)
REMARK    1  A    between atoms: C_1  and  C_2
REMARK    2  A    between atoms: C_2  and  C_3
REMARK    3  A    between atoms: N_9  and  S_10
REMARK    4  A    between atoms: S_10  and  C_13
REMARK    5  A    between atoms: C_16  and  C_19
REMARK    6  A    between atoms: N_21  and  C_22
REMARK    7  A    between atoms: C_22  and  C_23
REMARK    8  A    between atoms: C_23  and  N_24
REMARK    9  A    between atoms: N_24  and  C_25
REMARK   10  A    between atoms: N_24  and  C_26
REMARK   11  A    between atoms: C_32  and  O_36
REMARK   12  A    between atoms: O_36  and  C_37
REMARK                            x       y       z     vdW  Elec       q    Type
REMARK                         _______ _______ _______ _____ _____    ______ ____
ROOT
ATOM      1  C   UNL     1       0.248   7.253  -2.715  0.00  0.00    +0.252 C 
ATOM      2  O   UNL     1       0.614   8.037  -1.861  0.00  0.00    -0.270 OA
ATOM      3  N   UNL     1       0.635   7.422  -3.995  0.00  0.00    -0.248 N 
ATOM      4  C   UNL     1       1.596   8.368  -4.309  0.00  0.00    +0.168 A 
ATOM      5  N   UNL     1       2.092   8.679  -5.483  0.00  0.00    -0.224 NA
ATOM      6  C   UNL     1       3.035   9.634  -5.644  0.00  0.00    +0.081 A 
ATOM      7  C   UNL     1       3.648  10.061  -6.845  0.00  0.00    +0.032 A 
ATOM      8  C   UNL     1       4.596  11.050  -6.835  0.00  0.00    +0.048 A 
ATOM      9  C   UNL     1       4.988  11.668  -5.652  0.00  0.00    +0.121 A 
ATOM     10  C   UNL     1       4.407  11.273  -4.456  0.00  0.00    +0.063 A 
ATOM     11  C   UNL     1       3.457  10.282  -4.461  0.00  0.00    +0.044 A 
ATOM     12  S   UNL     1       2.470   9.482  -3.219  0.00  0.00    -0.052 S 
ENDROOT
BRANCH   1  16
ATOM     13  C   UNL     1      -2.252   3.985  -1.665  0.00  0.00    +0.106 A 
ATOM     14  C   UNL     1      -1.501   4.618  -0.690  0.00  0.00    +0.029 A 
ATOM     15  C   UNL     1      -0.687   5.680  -1.025  0.00  0.00    +0.015 A 
ATOM     16  C   UNL     1      -0.622   6.115  -2.349  0.00  0.00    +0.037 A 
ATOM     17  C   UNL     1      -1.382   5.472  -3.328  0.00  0.00    +0.015 A 
ATOM     18  C   UNL     1      -2.188   4.407  -2.981  0.00  0.00    +0.029 A 
BRANCH  13  19
ATOM     19  S   UNL     1      -3.290   2.629  -1.229  0.00  0.00    +0.061 S 
ATOM     20  O   UNL     1      -4.392   2.656  -2.126  0.00  0.00    -0.153 OA
ATOM     21  O   UNL     1      -3.455   2.681   0.182  0.00  0.00    -0.153 OA
BRANCH  19  27
ATOM     22  C   UNL     1      -1.439   0.739  -0.613  0.00  0.00    +0.080 C 
ATOM     23  C   UNL     1      -1.759  -0.722  -0.277  0.00  0.00    +0.021 C 
ATOM     24  C   UNL     1      -1.864  -1.528  -1.574  0.00  0.00    +0.003 C 
ATOM     25  C   UNL     1      -3.001  -0.969  -2.433  0.00  0.00    +0.017 C 
ATOM     26  C   UNL     1      -2.695   0.488  -2.793  0.00  0.00    +0.110 C 
ATOM     27  N   UNL     1      -2.447   1.242  -1.556  0.00  0.00    -0.174 NA
BRANCH  22  29
ATOM     28  C   UNL     1      -0.330   1.141   1.590  0.00  0.00    +0.005 C 
ATOM     29  C   UNL     1      -1.470   1.577   0.667  0.00  0.00    +0.017 C 
ENDBRANCH  22  29
ENDBRANCH  19  27
ENDBRANCH  13  19
ENDBRANCH   1  16
BRANCH   9  30
ATOM     30  O   UNL     1       5.931  12.648  -5.667  0.00  0.00    -0.495 OA
ATOM     31  C   UNL     1       6.483  12.998  -6.938  0.00  0.00    +0.277 C 
ENDBRANCH   9  30
BRANCH   3  32
ATOM     32  C   UNL     1       0.039   6.604  -5.054  0.00  0.00    +0.097 C 
BRANCH  32  33
ATOM     33  C   UNL     1      -1.381   7.095  -5.340  0.00  0.00    -0.060 C 
BRANCH  33  34
ATOM     34  N   UNL     1      -1.955   6.318  -6.446  0.00  0.00    +0.377 N 
ATOM     35  C   UNL     1      -2.121   4.920  -6.028  0.00  0.00    -0.097 C 
ATOM     36  C   UNL     1      -3.263   6.878  -6.812  0.00  0.00    -0.097 C 
ATOM     37  H   UNL     1      -1.337   6.360  -7.243  0.00  0.00    -0.083 HD
ENDBRANCH  33  34
ENDBRANCH  32  33
ENDBRANCH   3  32
TORSDOF 8
