REMARK  Name = ZINC63137217
REMARK  6 active torsions:
REMARK  status: ('A' for Active; 'I' for Inactive)
REMARK    1  A    between atoms: C_1  and  O_2
REMARK    2  A    between atoms: O_2  and  C_3
REMARK    3  A    between atoms: C_6  and  O_34
REMARK    4  A    between atoms: C_7  and  C_9
REMARK    5  A    between atoms: N_28  and  C_31
REMARK    6  A    between atoms: O_34  and  C_35
REMARK                            x       y       z     vdW  Elec       q    Type
REMARK                         _______ _______ _______ _____ _____    ______ ____
ROOT
ATOM      1  C   UNL     1       1.323  -4.108  -2.285  0.00  0.00    +0.137 C 
ATOM      2  C   UNL     1       0.168  -4.601  -3.156  0.00  0.00    +0.131 C 
ATOM      3  C   UNL     1       0.066  -6.104  -2.901  0.00  0.00    -0.034 C 
ATOM      4  C   UNL     1       0.277  -6.704  -4.065  0.00  0.00    -0.001 A 
ATOM      5  C   UNL     1       0.277  -8.125  -4.448  0.00  0.00    +0.010 A 
ATOM      6  C   UNL     1       0.542  -8.394  -5.754  0.00  0.00    +0.001 A 
ATOM      7  C   UNL     1       0.803  -7.403  -6.705  0.00  0.00    +0.002 A 
ATOM      8  C   UNL     1       0.822  -6.072  -6.442  0.00  0.00    +0.026 A 
ATOM      9  C   UNL     1       0.556  -5.664  -5.102  0.00  0.00    +0.043 A 
ATOM     10  N   UNL     1       0.498  -4.456  -4.580  0.00  0.00    -0.375 N 
ATOM     11  C   UNL     1      -0.200  -6.644  -1.523  0.00  0.00    +0.065 C 
ATOM     12  C   UNL     1       0.592  -5.864  -0.506  0.00  0.00    +0.167 C 
ATOM     13  N   UNL     1       1.261  -4.657  -0.938  0.00  0.00    -0.279 N 
ATOM     14  C   UNL     1       1.954  -3.987   0.040  0.00  0.00    +0.234 C 
ATOM     15  O   UNL     1       2.502  -2.928  -0.181  0.00  0.00    -0.274 OA
ATOM     16  C   UNL     1       2.003  -4.634   1.409  0.00  0.00    +0.204 C 
ATOM     17  N   UNL     1       2.274  -6.073   1.236  0.00  0.00    -0.288 N 
ATOM     18  C   UNL     1       1.551  -6.723   0.279  0.00  0.00    +0.237 C 
ATOM     19  O   UNL     1       1.669  -7.913   0.075  0.00  0.00    -0.274 OA
ATOM     20  H   UNL     1       0.647  -3.616  -5.042  0.00  0.00    +0.160 HD
ENDROOT
BRANCH   1  25
ATOM     21  C   UNL     1       2.124  -0.458  -2.845  0.00  0.00    +0.121 A 
ATOM     22  C   UNL     1       1.167   0.161  -2.055  0.00  0.00    +0.049 A 
ATOM     23  C   UNL     1       0.263  -0.602  -1.341  0.00  0.00    +0.049 A 
ATOM     24  C   UNL     1       0.312  -1.986  -1.415  0.00  0.00    +0.125 A 
ATOM     25  C   UNL     1       1.269  -2.604  -2.205  0.00  0.00    +0.020 A 
ATOM     26  C   UNL     1       2.170  -1.842  -2.923  0.00  0.00    +0.054 A 
BRANCH  21  28
ATOM     27  C   UNL     1       2.909   1.712  -3.420  0.00  0.00    +0.277 C 
ATOM     28  O   UNL     1       3.015   0.292  -3.547  0.00  0.00    -0.495 OA
ENDBRANCH  21  28
BRANCH  24  29
ATOM     29  O   UNL     1      -0.578  -2.736  -0.712  0.00  0.00    -0.495 OA
ATOM     30  C   UNL     1      -1.535  -2.033   0.082  0.00  0.00    +0.277 C 
ENDBRANCH  24  29
ENDBRANCH   1  25
BRANCH  17  31
ATOM     31  C   UNL     1       3.272  -6.771   2.050  0.00  0.00    +0.077 C 
ATOM     32  C   UNL     1       3.885  -6.006   3.225  0.00  0.00    +0.024 C 
ATOM     33  C   UNL     1       4.718  -6.278   1.971  0.00  0.00    +0.024 C 
ENDBRANCH  17  31
TORSDOF 4
