REMARK  Name = ZINC02249939
REMARK  7 active torsions:
REMARK  status: ('A' for Active; 'I' for Inactive)
REMARK    1  A    between atoms: C_1  and  C_2
REMARK    2  A    between atoms: C_5  and  C_8
REMARK    3  A    between atoms: C_19  and  C_21
REMARK    4  A    between atoms: C_24  and  O_27
REMARK    5  A    between atoms: O_27  and  C_28
REMARK    6  A    between atoms: C_33  and  S_35
REMARK    7  A    between atoms: S_35  and  C_36
REMARK                            x       y       z     vdW  Elec       q    Type
REMARK                         _______ _______ _______ _____ _____    ______ ____
ROOT
ATOM      1  C   UNL     1      -0.016  -4.166  -0.236  0.00  0.00    +0.159 C 
ATOM      2  C   UNL     1       1.404  -4.655  -0.055  0.00  0.00    +0.025 C 
ATOM      3  C   UNL     1       1.682  -5.413   1.025  0.00  0.00    +0.058 C 
ATOM      4  C   UNL     1       3.078  -5.894   1.183  0.00  0.00    +0.040 A 
ATOM      5  C   UNL     1       3.539  -6.396   2.392  0.00  0.00    +0.013 A 
ATOM      6  C   UNL     1       4.847  -6.831   2.495  0.00  0.00    +0.001 A 
ATOM      7  C   UNL     1       5.692  -6.765   1.401  0.00  0.00    +0.004 A 
ATOM      8  C   UNL     1       5.239  -6.267   0.193  0.00  0.00    +0.046 A 
ATOM      9  C   UNL     1       3.932  -5.829   0.075  0.00  0.00    +0.131 A 
ATOM     10  O   UNL     1       3.460  -5.341  -1.101  0.00  0.00    -0.479 OA
ATOM     11  C   UNL     1       2.480  -4.303  -1.040  0.00  0.00    +0.234 C 
ATOM     12  N   UNL     1       0.728  -5.729   1.934  0.00  0.00    -0.326 N 
ATOM     13  C   UNL     1      -0.529  -5.346   1.855  0.00  0.00    +0.216 C 
ATOM     14  N   UNL     1      -0.969  -4.568   0.806  0.00  0.00    -0.209 N 
ATOM     15  N   UNL     1      -2.331  -4.340   1.018  0.00  0.00    -0.239 N 
ATOM     16  C   UNL     1      -2.653  -4.984   2.183  0.00  0.00    +0.174 C 
ATOM     17  N   UNL     1      -1.584  -5.571   2.659  0.00  0.00    -0.192 NA
ATOM     18  H   UNL     1       0.988  -6.274   2.693  0.00  0.00    +0.169 HD
ATOM     19  H   UNL     1      -2.930  -3.828   0.452  0.00  0.00    +0.172 HD
ENDROOT
BRANCH   1  24
ATOM     20  C   UNL     1       0.077   1.608  -0.458  0.00  0.00    +0.044 C 
ATOM     21  C   UNL     1       0.053   0.102  -0.400  0.00  0.00    -0.050 A 
ATOM     22  C   UNL     1      -0.071  -0.632  -1.564  0.00  0.00    +0.004 A 
ATOM     23  C   UNL     1      -0.093  -2.013  -1.511  0.00  0.00    +0.006 A 
ATOM     24  C   UNL     1       0.009  -2.660  -0.294  0.00  0.00    -0.021 A 
ATOM     25  C   UNL     1       0.134  -1.925   0.871  0.00  0.00    +0.006 A 
ATOM     26  C   UNL     1       0.160  -0.544   0.817  0.00  0.00    +0.004 A 
ENDBRANCH   1  24
BRANCH  11  27
ATOM     27  C   UNL     1       3.142  -3.017  -0.616  0.00  0.00    -0.003 A 
ATOM     28  C   UNL     1       2.931  -1.860  -1.343  0.00  0.00    +0.011 A 
ATOM     29  C   UNL     1       3.537  -0.680  -0.957  0.00  0.00    +0.046 A 
ATOM     30  C   UNL     1       4.358  -0.657   0.161  0.00  0.00    +0.120 A 
ATOM     31  C   UNL     1       4.569  -1.820   0.888  0.00  0.00    +0.046 A 
ATOM     32  C   UNL     1       3.956  -2.996   0.501  0.00  0.00    +0.011 A 
BRANCH  30  33
ATOM     33  O   UNL     1       4.956   0.502   0.543  0.00  0.00    -0.495 OA
ATOM     34  C   UNL     1       5.789   0.451   1.703  0.00  0.00    +0.277 C 
ENDBRANCH  30  33
ENDBRANCH  11  27
BRANCH  16  35
ATOM     35  S   UNL     1      -4.252  -5.022   2.923  0.00  0.00    -0.092 S 
ATOM     36  C   UNL     1      -4.020  -6.020   4.420  0.00  0.00    +0.093 C 
ENDBRANCH  16  35
TORSDOF 4
