REMARK  Name = ZINC66514094
REMARK  7 active torsions:
REMARK  status: ('A' for Active; 'I' for Inactive)
REMARK    1  A    between atoms: C_1  and  C_2
REMARK    2  A    between atoms: C_2  and  C_3
REMARK    3  A    between atoms: C_3  and  N_4
REMARK    4  A    between atoms: C_10  and  N_13
REMARK    5  A    between atoms: C_14  and  C_16
REMARK    6  A    between atoms: C_16  and  C_18
REMARK    7  A    between atoms: C_16  and  N_19
REMARK                            x       y       z     vdW  Elec       q    Type
REMARK                         _______ _______ _______ _____ _____    ______ ____
ROOT
ATOM      1  N   UNL     1      -4.776  -4.915   0.175  0.00  0.00    -0.284 N 
ATOM      2  C   UNL     1      -5.676  -5.914   0.095  0.00  0.00    +0.238 C 
ATOM      3  O   UNL     1      -5.488  -6.842  -0.663  0.00  0.00    -0.273 OA
ATOM      4  H   UNL     1      -4.885  -4.215   0.838  0.00  0.00    +0.155 HD
ENDROOT
BRANCH   1  11
ATOM      5  N   UNL     1      -0.669  -3.353   0.891  0.00  0.00    +0.385 N 
ATOM      6  C   UNL     1      -0.329  -3.408  -0.549  0.00  0.00    -0.042 C 
ATOM      7  C   UNL     1      -1.442  -4.195  -1.202  0.00  0.00    -0.061 A 
ATOM      8  C   UNL     1      -1.523  -4.831  -2.427  0.00  0.00    +0.002 A 
ATOM      9  C   UNL     1      -2.680  -5.495  -2.791  0.00  0.00    +0.002 A 
ATOM     10  C   UNL     1      -3.760  -5.524  -1.930  0.00  0.00    +0.023 A 
ATOM     11  C   UNL     1      -3.683  -4.887  -0.699  0.00  0.00    +0.035 A 
ATOM     12  C   UNL     1      -2.520  -4.222  -0.337  0.00  0.00    -0.041 A 
ATOM     13  C   UNL     1      -2.146  -3.453   0.910  0.00  0.00    -0.040 C 
ATOM     14  H   UNL     1      -0.255  -4.130   1.384  0.00  0.00    -0.081 HD
BRANCH   5  15
ATOM     15  C   UNL     1      -0.230  -2.079   1.476  0.00  0.00    -0.078 C 
BRANCH  15  17
ATOM     16  C   UNL     1       1.754  -0.728   2.168  0.00  0.00    +0.002 C 
ATOM     17  C   UNL     1       1.297  -2.055   1.558  0.00  0.00    -0.022 C 
ENDBRANCH  15  17
ENDBRANCH   5  15
ENDBRANCH   1  11
BRANCH   2  18
ATOM     18  C   UNL     1      -6.917  -5.880   0.950  0.00  0.00    +0.168 C 
ATOM     19  C   UNL     1      -7.728  -4.625   0.621  0.00  0.00    +0.038 C 
BRANCH  18  20
ATOM     20  N   UNL     1      -7.729  -7.069   0.680  0.00  0.00    -0.212 N 
ATOM     21  C   UNL     1      -8.064  -7.987   1.613  0.00  0.00    +0.247 C 
ATOM     22  O   UNL     1      -7.764  -7.985   2.788  0.00  0.00    -0.273 OA
ATOM     23  C   UNL     1      -8.892  -9.013   0.882  0.00  0.00    +0.113 C 
ATOM     24  C   UNL     1      -8.243 -10.401   0.960  0.00  0.00    +0.035 C 
ATOM     25  C   UNL     1      -9.011 -11.111   2.105  0.00  0.00    +0.003 C 
ATOM     26  C   UNL     1     -10.463 -10.602   1.913  0.00  0.00    +0.003 C 
ATOM     27  C   UNL     1     -10.294  -9.127   1.485  0.00  0.00    +0.035 C 
ATOM     28  N   UNL     1      -8.941  -8.528  -0.498  0.00  0.00    -0.285 N 
ATOM     29  C   UNL     1      -8.235  -7.380  -0.520  0.00  0.00    +0.310 C 
ATOM     30  O   UNL     1      -8.074  -6.704  -1.517  0.00  0.00    -0.252 OA
ATOM     31  H   UNL     1      -9.394  -8.947  -1.247  0.00  0.00    +0.151 HD
ENDBRANCH  18  20
ENDBRANCH   2  18
TORSDOF 5
