REMARK  Name = ZINC23029553
REMARK  7 active torsions:
REMARK  status: ('A' for Active; 'I' for Inactive)
REMARK    1  A    between atoms: C_1  and  C_2
REMARK    2  A    between atoms: C_2  and  C_4
REMARK    3  A    between atoms: C_2  and  N_15
REMARK    4  A    between atoms: N_6  and  C_7
REMARK    5  A    between atoms: C_8  and  C_12
REMARK    6  A    between atoms: N_18  and  S_21
REMARK    7  A    between atoms: S_21  and  C_24
REMARK                            x       y       z     vdW  Elec       q    Type
REMARK                         _______ _______ _______ _____ _____    ______ ____
ROOT
ATOM      1  C   UNL     1      -1.429   2.829  -1.225  0.00  0.00    -0.004 C 
ATOM      2  C   UNL     1      -1.330   1.944   0.019  0.00  0.00    +0.017 C 
ENDROOT
BRANCH   2   3
ATOM      3  N   UNL     1      -2.433   0.975   0.019  0.00  0.00    +0.389 N 
ATOM      4  C   UNL     1      -2.391   0.129  -1.182  0.00  0.00    -0.060 C 
ATOM      5  C   UNL     1      -3.441  -0.980  -1.058  0.00  0.00    +0.091 C 
ATOM      6  N   UNL     1      -4.745  -0.360  -0.779  0.00  0.00    -0.180 NA
ATOM      7  C   UNL     1      -4.834   0.606   0.326  0.00  0.00    +0.091 C 
ATOM      8  C   UNL     1      -3.730   1.653   0.148  0.00  0.00    -0.060 C 
ATOM      9  H   UNL     1      -2.310   0.319   0.894  0.00  0.00    -0.081 HD
BRANCH   6  10
ATOM     10  S   UNL     1      -6.078  -0.740  -1.686  0.00  0.00    +0.067 S 
ATOM     11  O   UNL     1      -5.838  -2.025  -2.243  0.00  0.00    -0.152 OA
ATOM     12  O   UNL     1      -7.213  -0.461  -0.877  0.00  0.00    -0.152 OA
BRANCH  10  13
ATOM     13  C   UNL     1      -6.131   0.393  -3.035  0.00  0.00    +0.143 A 
ATOM     14  C   UNL     1      -5.570   0.282  -4.264  0.00  0.00    +0.036 A 
ATOM     15  C   UNL     1      -5.748   1.306  -5.176  0.00  0.00    +0.010 A 
ATOM     16  C   UNL     1      -6.468   2.394  -4.810  0.00  0.00    +0.047 A 
ATOM     17  S   UNL     1      -6.929   1.986  -3.135  0.00  0.00    -0.077 S 
ENDBRANCH  10  13
ENDBRANCH   6  10
ENDBRANCH   2   3
BRANCH   2  18
ATOM     18  C   UNL     1      -0.014   1.209   0.009  0.00  0.00    +0.204 C 
ATOM     19  O   UNL     1       0.002  -0.004   0.002  0.00  0.00    -0.277 OA
ATOM     20  N   UNL     1       1.143   1.898   0.001  0.00  0.00    -0.281 N 
ATOM     21  H   UNL     1       1.129   2.998   0.007  0.00  0.00    +0.155 HD
BRANCH  20  22
ATOM     22  C   UNL     1       2.354   1.221  -0.014  0.00  0.00    +0.084 A 
ATOM     23  C   UNL     1       3.639   1.750  -0.029  0.00  0.00    +0.065 A 
ATOM     24  C   UNL     1       4.730   0.805  -0.039  0.00  0.00    +0.022 A 
ATOM     25  C   UNL     1       4.410  -0.501  -0.044  0.00  0.00    +0.048 A 
ATOM     26  S   UNL     1       2.630  -0.488  -0.026  0.00  0.00    -0.081 S 
BRANCH  23  27
ATOM     27  C   UNL     1       3.875   3.198  -0.031  0.00  0.00    +0.244 C 
ATOM     28  O   UNL     1       2.932   3.968  -0.019  0.00  0.00    -0.270 OA
ATOM     29  N   UNL     1       5.135   3.675  -0.045  0.00  0.00    -0.325 N 
ATOM     30  H   UNL     1       5.312   4.761  -0.047  0.00  0.00    +0.145 HD
ATOM     31  H   UNL     1       5.987   2.979  -0.057  0.00  0.00    +0.145 HD
ENDBRANCH  23  27
ENDBRANCH  20  22
ENDBRANCH   2  18
TORSDOF 6
