REMARK  Name = ZINC49150580
REMARK  7 active torsions:
REMARK  status: ('A' for Active; 'I' for Inactive)
REMARK    1  A    between atoms: C_1  and  C_2
REMARK    2  A    between atoms: C_2  and  C_4
REMARK    3  A    between atoms: C_2  and  N_10
REMARK    4  A    between atoms: C_4  and  N_5
REMARK    5  A    between atoms: N_10  and  S_11
REMARK    6  A    between atoms: S_11  and  C_14
REMARK    7  A    between atoms: C_15  and  N_22
REMARK                            x       y       z     vdW  Elec       q    Type
REMARK                         _______ _______ _______ _____ _____    ______ ____
ROOT
ATOM      1  S   UNL     1      -2.534  -1.314   2.303  0.00  0.00    +0.061 S 
ATOM      2  O   UNL     1      -3.894  -1.701   2.435  0.00  0.00    -0.153 OA
ATOM      3  O   UNL     1      -1.482  -1.979   2.990  0.00  0.00    -0.153 OA
ENDROOT
BRANCH   1   4
ATOM      4  C   UNL     1      -2.446   0.383   2.770  0.00  0.00    +0.140 A 
ATOM      5  C   UNL     1      -1.278   0.892   3.324  0.00  0.00    +0.053 A 
ATOM      6  C   UNL     1      -1.212   2.230   3.691  0.00  0.00    +0.040 A 
ATOM      7  C   UNL     1      -2.308   3.051   3.502  0.00  0.00    +0.021 A 
ATOM      8  C   UNL     1      -3.469   2.542   2.950  0.00  0.00    +0.032 A 
ATOM      9  C   UNL     1      -3.536   1.210   2.579  0.00  0.00    +0.047 A 
ATOM     10 BR   UNL     1      -5.123   0.520   1.817  0.00  0.00    -0.048 Br
ATOM     11 BR   UNL     1      -2.219   4.873   4.001  0.00  0.00    -0.050 Br
BRANCH   5  12
ATOM     12  N   UNL     1      -0.173   0.059   3.514  0.00  0.00    -0.356 N 
ATOM     13  H   UNL     1      -0.046  -0.716   2.945  0.00  0.00    +0.142 HD
ATOM     14  H   UNL     1       0.469   0.257   4.214  0.00  0.00    +0.142 HD
ENDBRANCH   5  12
ENDBRANCH   1   4
BRANCH   1  15
ATOM     15  N   UNL     1      -2.172  -1.397   0.689  0.00  0.00    -0.189 NA
ATOM     16  H   UNL     1      -2.846  -1.689   0.056  0.00  0.00    +0.148 HD
BRANCH  15  18
ATOM     17  C   UNL     1      -0.835   0.433  -0.231  0.00  0.00    +0.024 C 
ATOM     18  C   UNL     1      -0.834  -1.030   0.218  0.00  0.00    +0.057 C 
BRANCH  18  19
ATOM     19  C   UNL     1      -0.444  -1.925  -0.960  0.00  0.00    -0.059 C 
BRANCH  19  20
ATOM     20  N   UNL     1      -0.559  -3.335  -0.563  0.00  0.00    +0.381 N 
ATOM     21  C   UNL     1      -1.986  -3.695  -0.360  0.00  0.00    -0.079 C 
ATOM     22  C   UNL     1      -1.988  -5.237  -0.515  0.00  0.00    -0.020 C 
ATOM     23  C   UNL     1      -0.958  -5.471  -1.644  0.00  0.00    -0.020 C 
ATOM     24  C   UNL     1      -0.072  -4.212  -1.649  0.00  0.00    -0.079 C 
ATOM     25  H   UNL     1      -0.034  -3.503   0.282  0.00  0.00    -0.082 HD
ENDBRANCH  19  20
ENDBRANCH  18  19
ENDBRANCH  15  18
ENDBRANCH   1  15
TORSDOF 6
