REMARK  Name = ZINC11041069
REMARK  7 active torsions:
REMARK  status: ('A' for Active; 'I' for Inactive)
REMARK    1  A    between atoms: C_1  and  C_2
REMARK    2  A    between atoms: C_2  and  C_4
REMARK    3  A    between atoms: C_2  and  N_43
REMARK    4  A    between atoms: N_6  and  C_7
REMARK    5  A    between atoms: C_13  and  C_15
REMARK    6  A    between atoms: C_13  and  C_22
REMARK    7  A    between atoms: C_13  and  N_43
REMARK                            x       y       z     vdW  Elec       q    Type
REMARK                         _______ _______ _______ _____ _____    ______ ____
ROOT
ATOM      1  N   UNL     1       7.183   0.277  -0.374  0.00  0.00    +0.394 N 
ATOM      2  H   UNL     1       7.470   0.561   0.570  0.00  0.00    -0.083 HD
ATOM      3  H   UNL     1       6.859   1.100  -0.895  0.00  0.00    -0.083 HD
ENDROOT
BRANCH   1   5
ATOM      4  C   UNL     1       6.295  -1.585   0.956  0.00  0.00    -0.004 C 
ATOM      5  C   UNL     1       6.083  -0.701  -0.275  0.00  0.00    +0.014 C 
BRANCH   5   6
ATOM      6  C   UNL     1       4.776   0.037  -0.145  0.00  0.00    +0.203 C 
ATOM      7  O   UNL     1       4.761   1.250  -0.139  0.00  0.00    -0.277 OA
ATOM      8  N   UNL     1       3.622  -0.651  -0.036  0.00  0.00    -0.287 N 
ATOM      9  H   UNL     1       3.638  -1.618   0.035  0.00  0.00    +0.155 HD
BRANCH   8  10
ATOM     10  C   UNL     1       2.399   0.030  -0.027  0.00  0.00    +0.033 A 
ATOM     11  C   UNL     1       2.245   1.194  -0.769  0.00  0.00    +0.023 A 
ATOM     12  C   UNL     1       1.038   1.864  -0.758  0.00  0.00    +0.002 A 
ATOM     13  C   UNL     1      -0.018   1.377  -0.008  0.00  0.00    +0.000 A 
ATOM     14  C   UNL     1       0.133   0.219   0.732  0.00  0.00    +0.002 A 
ATOM     15  C   UNL     1       1.338  -0.456   0.725  0.00  0.00    +0.023 A 
ENDBRANCH   8  10
ENDBRANCH   5   6
ENDBRANCH   1   5
BRANCH   1  16
ATOM     16  C   UNL     1       8.336  -0.318  -1.075  0.00  0.00    -0.002 C 
BRANCH  16  17
ATOM     17  C   UNL     1       9.157   0.780  -1.700  0.00  0.00    -0.056 A 
ATOM     18  C   UNL     1       9.358   1.966  -1.017  0.00  0.00    +0.005 A 
ATOM     19  C   UNL     1      10.115   2.972  -1.587  0.00  0.00    +0.038 A 
ATOM     20  C   UNL     1      10.662   2.797  -2.847  0.00  0.00    +0.123 A 
ATOM     21  C   UNL     1      10.455   1.612  -3.532  0.00  0.00    +0.038 A 
ATOM     22  C   UNL     1       9.703   0.605  -2.958  0.00  0.00    +0.005 A 
ATOM     23  F   UNL     1      11.397   3.782  -3.407  0.00  0.00    -0.205 F 
ENDBRANCH  16  17
BRANCH  16  24
ATOM     24  C   UNL     1       9.185  -1.080  -0.089  0.00  0.00    -0.020 A 
ATOM     25  C   UNL     1       9.812  -2.272  -0.245  0.00  0.00    +0.010 A 
ATOM     26  C   UNL     1      10.548  -2.784   0.806  0.00  0.00    +0.008 A 
ATOM     27  C   UNL     1      10.611  -2.086   1.967  0.00  0.00    +0.045 A 
ATOM     28  S   UNL     1       9.617  -0.652   1.589  0.00  0.00    -0.103 S 
ENDBRANCH  16  24
ENDBRANCH   1  16
TORSDOF 6
