REMARK  Name = ZINC29033378
REMARK  9 active torsions:
REMARK  status: ('A' for Active; 'I' for Inactive)
REMARK    1  A    between atoms: C_1  and  C_2
REMARK    2  A    between atoms: C_4  and  C_29
REMARK    3  A    between atoms: C_8  and  N_28
REMARK    4  A    between atoms: C_9  and  C_11
REMARK    5  A    between atoms: C_11  and  O_13
REMARK    6  A    between atoms: O_13  and  C_14
REMARK    7  A    between atoms: C_14  and  C_15
REMARK    8  A    between atoms: N_17  and  C_18
REMARK    9  A    between atoms: C_22  and  N_24
REMARK                            x       y       z     vdW  Elec       q    Type
REMARK                         _______ _______ _______ _____ _____    ______ ____
ROOT
ATOM      1  C   UNL     1       1.015  -0.978   4.152  0.00  0.00    +0.348 C 
ATOM      2  O   UNL     1       1.140   0.125   4.652  0.00  0.00    -0.244 OA
ENDROOT
BRANCH   1  11
ATOM      3  C   UNL     1      -2.042   1.703   0.398  0.00  0.00    +0.044 C 
ATOM      4  C   UNL     1      -1.909   0.220   0.171  0.00  0.00    -0.037 A 
ATOM      5  C   UNL     1      -2.516  -0.379  -0.908  0.00  0.00    +0.025 A 
ATOM      6  C   UNL     1      -2.392  -1.744  -1.115  0.00  0.00    +0.014 A 
ATOM      7  N   UNL     1      -1.691  -2.486  -0.281  0.00  0.00    -0.353 N 
ATOM      8  C   UNL     1      -1.091  -1.960   0.766  0.00  0.00    +0.088 A 
ATOM      9  C   UNL     1      -1.151  -0.580   1.062  0.00  0.00    +0.030 A 
ATOM     10  C   UNL     1      -0.424  -0.171   2.255  0.00  0.00    +0.055 A 
ATOM     11  C   UNL     1       0.249  -1.136   2.973  0.00  0.00    +0.119 A 
ATOM     12  S   UNL     1      -0.089  -2.634   2.068  0.00  0.00    -0.062 S 
ATOM     13  C   UNL     1      -3.064  -2.385  -2.302  0.00  0.00    +0.063 C 
ATOM     14  H   UNL     1      -1.616  -3.439  -0.441  0.00  0.00    +0.166 HD
BRANCH  10  15
ATOM     15  N   UNL     1      -0.408   1.156   2.658  0.00  0.00    -0.356 N 
ATOM     16  H   UNL     1      -0.614   1.859   2.022  0.00  0.00    +0.142 HD
ATOM     17  H   UNL     1      -0.191   1.381   3.576  0.00  0.00    +0.142 HD
ENDBRANCH  10  15
ENDBRANCH   1  11
BRANCH   1  18
ATOM     18  O   UNL     1       1.607  -2.049   4.721  0.00  0.00    -0.451 OA
BRANCH  18  19
ATOM     19  C   UNL     1       2.366  -1.815   5.909  0.00  0.00    +0.328 C 
BRANCH  19  20
ATOM     20  C   UNL     1       2.948  -3.117   6.398  0.00  0.00    +0.255 C 
ATOM     21  O   UNL     1       2.734  -4.143   5.788  0.00  0.00    -0.272 OA
ATOM     22  N   UNL     1       3.706  -3.140   7.512  0.00  0.00    -0.283 N 
ATOM     23  H   UNL     1       3.874  -2.319   8.001  0.00  0.00    +0.155 HD
BRANCH  22  24
ATOM     24  C   UNL     1       4.250  -4.349   7.963  0.00  0.00    +0.036 A 
ATOM     25  C   UNL     1       4.474  -4.546   9.319  0.00  0.00    +0.026 A 
ATOM     26  C   UNL     1       5.011  -5.739   9.763  0.00  0.00    +0.042 A 
ATOM     27  C   UNL     1       5.325  -6.737   8.856  0.00  0.00    +0.154 A 
ATOM     28  C   UNL     1       5.102  -6.542   7.504  0.00  0.00    +0.163 A 
ATOM     29  C   UNL     1       4.560  -5.353   7.057  0.00  0.00    +0.059 A 
ATOM     30  F   UNL     1       5.851  -7.903   9.292  0.00  0.00    -0.203 F 
BRANCH  28  31
ATOM     31  N   UNL     1       5.439  -7.611   6.537  0.00  0.00    +0.059 N 
ATOM     32  O   UNL     1       5.245  -7.441   5.356  0.00  0.00    -0.126 OA
ATOM     33  O   UNL     1       5.910  -8.654   6.928  0.00  0.00    -0.126 OA
ENDBRANCH  28  31
ENDBRANCH  22  24
ENDBRANCH  19  20
ENDBRANCH  18  19
ENDBRANCH   1  18
TORSDOF 7
