REMARK  Name = ZINC09490007
REMARK  7 active torsions:
REMARK  status: ('A' for Active; 'I' for Inactive)
REMARK    1  A    between atoms: C_3  and  C_6
REMARK    2  A    between atoms: C_6  and  O_8
REMARK    3  A    between atoms: O_8  and  C_9
REMARK    4  A    between atoms: C_12  and  C_15
REMARK    5  A    between atoms: C_19  and  C_29
REMARK    6  A    between atoms: C_24  and  N_28
REMARK    7  A    between atoms: C_25  and  C_26
REMARK                            x       y       z     vdW  Elec       q    Type
REMARK                         _______ _______ _______ _____ _____    ______ ____
ROOT
ATOM      1  C   UNL     1       9.823  -0.915  -0.240  0.00  0.00    +0.082 C 
ATOM      2  C   UNL     1      10.328  -1.741   0.949  0.00  0.00    +0.140 C 
ATOM      3  C   UNL     1       9.448  -1.534   2.160  0.00  0.00    +0.084 C 
ATOM      4  N   UNL     1       8.906  -2.694   2.416  0.00  0.00    -0.150 NA
ATOM      5  N   UNL     1       9.285  -3.670   1.494  0.00  0.00    -0.115 NA
ATOM      6  C   UNL     1      10.078  -3.200   0.579  0.00  0.00    +0.227 C 
ATOM      7  O   UNL     1      10.585  -3.733  -0.554  0.00  0.00    -0.425 OA
ATOM      8  C   UNL     1      10.575  -2.891  -1.620  0.00  0.00    +0.200 C 
ATOM      9  C   UNL     1      10.240  -1.587  -1.521  0.00  0.00    +0.095 C 
ENDROOT
BRANCH   3  10
ATOM     10  C   UNL     1       9.244  -0.280   2.901  0.00  0.00    -0.001 A 
ATOM     11  C   UNL     1       9.897   0.889   2.498  0.00  0.00    +0.011 A 
ATOM     12  C   UNL     1       9.701   2.061   3.197  0.00  0.00    +0.016 A 
ATOM     13  C   UNL     1       8.860   2.082   4.297  0.00  0.00    +0.018 A 
ATOM     14  C   UNL     1       8.210   0.929   4.703  0.00  0.00    +0.016 A 
ATOM     15  C   UNL     1       8.392  -0.249   4.010  0.00  0.00    +0.011 A 
ATOM     16 BR   UNL     1       8.599   3.695   5.251  0.00  0.00    -0.050 Br
ENDBRANCH   3  10
BRANCH   1  20
ATOM     17  C   UNL     1       5.561  -0.650  -0.089  0.00  0.00    +0.132 A 
ATOM     18  C   UNL     1       6.330   0.504  -0.048  0.00  0.00    +0.046 A 
ATOM     19  C   UNL     1       7.708   0.415  -0.096  0.00  0.00    +0.008 A 
ATOM     20  C   UNL     1       8.320  -0.822  -0.186  0.00  0.00    -0.038 A 
ATOM     21  C   UNL     1       7.555  -1.973  -0.228  0.00  0.00    +0.008 A 
ATOM     22  C   UNL     1       6.177  -1.890  -0.173  0.00  0.00    +0.046 A 
BRANCH  17  23
ATOM     23  O   UNL     1       4.205  -0.566  -0.042  0.00  0.00    -0.420 OA
BRANCH  23  24
ATOM     24  C   UNL     1       3.554  -0.197  -1.164  0.00  0.00    +0.380 C 
ATOM     25  O   UNL     1       4.182   0.135  -2.151  0.00  0.00    -0.241 OA
BRANCH  24  28
ATOM     26  C   UNL     1      -0.025   0.007  -1.847  0.00  0.00    +0.042 A 
ATOM     27  C   UNL     1       1.308   0.153  -2.260  0.00  0.00    +0.056 A 
ATOM     28  C   UNL     1       2.089  -0.196  -1.194  0.00  0.00    +0.212 A 
ATOM     29  O   UNL     1       1.275  -0.540  -0.175  0.00  0.00    -0.456 OA
ATOM     30  C   UNL     1      -0.001  -0.419  -0.564  0.00  0.00    +0.196 A 
ENDBRANCH  24  28
ENDBRANCH  23  24
ENDBRANCH  17  23
ENDBRANCH   1  20
BRANCH   8  31
ATOM     31  N   UNL     1      10.919  -3.388  -2.853  0.00  0.00    -0.328 N 
ATOM     32  H   UNL     1      11.164  -4.322  -2.948  0.00  0.00    +0.145 HD
ATOM     33  H   UNL     1      10.919  -2.805  -3.628  0.00  0.00    +0.145 HD
ENDBRANCH   8  31
BRANCH   9  34
ATOM     34  C   UNL     1      10.284  -0.790  -2.710  0.00  0.00    +0.100 C 
ATOM     35  N   UNL     1      10.319  -0.158  -3.653  0.00  0.00    -0.191 NA
ENDBRANCH   9  34
TORSDOF 7
