REMARK  Name = ZINC61877978
REMARK  8 active torsions:
REMARK  status: ('A' for Active; 'I' for Inactive)
REMARK    1  A    between atoms: C_1  and  C_2
REMARK    2  A    between atoms: C_2  and  C_3
REMARK    3  A    between atoms: C_3  and  N_4
REMARK    4  A    between atoms: C_8  and  C_9
REMARK    5  A    between atoms: C_9  and  N_10
REMARK    6  A    between atoms: N_10  and  C_11
REMARK    7  A    between atoms: C_14  and  S_18
REMARK    8  A    between atoms: S_18  and  N_21
REMARK                            x       y       z     vdW  Elec       q    Type
REMARK                         _______ _______ _______ _____ _____    ______ ____
ROOT
ATOM      1  C   UNL     1       0.613  -1.620   4.078  0.00  0.00    +0.042 A 
ATOM      2  C   UNL     1      -0.349  -1.453   5.066  0.00  0.00    +0.026 A 
ATOM      3  C   UNL     1       0.022  -1.016   6.323  0.00  0.00    +0.030 A 
ATOM      4  C   UNL     1       1.350  -0.744   6.598  0.00  0.00    +0.106 A 
ATOM      5  C   UNL     1       2.310  -0.908   5.617  0.00  0.00    +0.045 A 
ATOM      6  C   UNL     1       1.947  -1.351   4.359  0.00  0.00    +0.041 A 
ATOM      7 BR   UNL     1       3.262  -1.582   3.021  0.00  0.00    -0.048 Br
ENDROOT
BRANCH   4   8
ATOM      8  S   UNL     1       1.818  -0.185   8.202  0.00  0.00    +0.056 S 
ATOM      9  O   UNL     1       3.041   0.521   8.045  0.00  0.00    -0.153 OA
ATOM     10  O   UNL     1       0.663   0.410   8.778  0.00  0.00    -0.153 OA
BRANCH   8  11
ATOM     11  N   UNL     1       2.160  -1.529   9.108  0.00  0.00    -0.204 NA
ATOM     12  H   UNL     1       2.817  -1.480   9.820  0.00  0.00    +0.144 HD
ATOM     13  H   UNL     1       1.703  -2.365   8.926  0.00  0.00    +0.144 HD
ENDBRANCH   8  11
ENDBRANCH   4   8
BRANCH   1  14
ATOM     14  N   UNL     1       0.241  -2.062   2.806  0.00  0.00    -0.336 N 
ATOM     15  H   UNL     1       0.914  -2.182   2.118  0.00  0.00    +0.147 HD
BRANCH  14  16
ATOM     16  C   UNL     1      -1.166  -2.346   2.512  0.00  0.00    +0.174 C 
BRANCH  16  21
ATOM     17  N   UNL     1      -1.413  -1.998   0.005  0.00  0.00    -0.335 N 
ATOM     18  C   UNL     1      -1.503  -2.806  -1.097  0.00  0.00    +0.104 A 
ATOM     19  C   UNL     1      -1.444  -4.077  -0.654  0.00  0.00    +0.102 A 
ATOM     20  N   UNL     1      -1.321  -4.046   0.681  0.00  0.00    -0.348 N 
ATOM     21  C   UNL     1      -1.298  -2.804   1.082  0.00  0.00    +0.104 A 
ATOM     22  H   UNL     1      -1.257  -4.824   1.257  0.00  0.00    +0.166 HD
BRANCH  17  23
ATOM     23  C   UNL     1      -1.433  -0.534   0.013  0.00  0.00    +0.123 C 
BRANCH  23  25
ATOM     24  C   UNL     1      -0.019   1.526   0.010  0.00  0.00    +0.005 C 
ATOM     25  C   UNL     1       0.002  -0.004   0.002  0.00  0.00    +0.018 C 
ENDBRANCH  23  25
ENDBRANCH  17  23
ENDBRANCH  16  21
ENDBRANCH  14  16
ENDBRANCH   1  14
TORSDOF 7
