REMARK  Name = ZINC13940566
REMARK  10 active torsions:
REMARK  status: ('A' for Active; 'I' for Inactive)
REMARK    1  A    between atoms: C_1  and  C_2
REMARK    2  A    between atoms: C_2  and  C_3
REMARK    3  A    between atoms: C_2  and  C_4
REMARK    4  A    between atoms: C_14  and  C_39
REMARK    5  A    between atoms: C_18  and  C_19
REMARK    6  A    between atoms: C_18  and  C_20
REMARK    7  A    between atoms: C_20  and  N_80
REMARK    8  A    between atoms: C_21  and  N_80
REMARK    9  A    between atoms: N_31  and  C_32
REMARK   10  A    between atoms: C_32  and  C_33
REMARK                            x       y       z     vdW  Elec       q    Type
REMARK                         _______ _______ _______ _____ _____    ______ ____
ROOT
ATOM      1  C   UNL     1       0.223  -0.790   9.395  0.00  0.00    -0.073 C 
ENDROOT
BRANCH   1  15
ATOM      2  C   UNL     1      -0.489   1.171   2.458  0.00  0.00    -0.045 A 
ATOM      3  C   UNL     1       0.859   1.426   2.629  0.00  0.00    +0.004 A 
ATOM      4  C   UNL     1       1.522   0.889   3.716  0.00  0.00    +0.005 A 
ATOM      5  C   UNL     1       0.844   0.100   4.628  0.00  0.00    -0.038 A 
ATOM      6  C   UNL     1      -0.498  -0.159   4.465  0.00  0.00    -0.043 A 
ATOM      7  C   UNL     1      -1.162   0.385   3.369  0.00  0.00    +0.007 A 
ATOM      8  C   UNL     1      -1.305  -1.004   5.408  0.00  0.00    +0.036 C 
ATOM      9  C   UNL     1      -0.483  -1.618   6.536  0.00  0.00    +0.009 C 
ATOM     10  C   UNL     1       0.630  -0.662   6.952  0.00  0.00    +0.004 C 
ATOM     11  C   UNL     1       1.604  -0.480   5.802  0.00  0.00    -0.004 C 
ATOM     12  C   UNL     1       2.747   0.452   6.191  0.00  0.00    +0.011 C 
ATOM     13  C   UNL     1       3.453  -0.089   7.435  0.00  0.00    +0.001 C 
ATOM     14  C   UNL     1       2.471  -0.156   8.598  0.00  0.00    +0.005 C 
ATOM     15  C   UNL     1       1.264  -1.039   8.275  0.00  0.00    -0.044 C 
ATOM     16  C   UNL     1       1.658  -2.513   8.345  0.00  0.00    +0.009 C 
ATOM     17  C   UNL     1       2.192  -1.809   5.324  0.00  0.00    +0.016 C 
BRANCH   2  19
ATOM     18  C   UNL     1      -0.582   1.246  -0.020  0.00  0.00    +0.012 C 
ATOM     19  C   UNL     1      -1.222   1.751   1.275  0.00  0.00    +0.013 C 
ATOM     20  C   UNL     1      -1.138   3.278   1.323  0.00  0.00    +0.012 C 
ENDBRANCH   2  19
ENDBRANCH   1  15
BRANCH   1  21
ATOM     21  N   UNL     1       0.817  -1.151  10.696  0.00  0.00    +0.394 N 
ATOM     22  H   UNL     1       1.650  -0.573  10.860  0.00  0.00    -0.083 HD
ATOM     23  H   UNL     1       1.085  -2.142  10.683  0.00  0.00    -0.083 HD
BRANCH  21  24
ATOM     24  C   UNL     1      -0.154  -0.924  11.783  0.00  0.00    +0.051 C 
ATOM     25  C   UNL     1      -0.126  -2.085  12.745  0.00  0.00    -0.032 A 
ATOM     26  C   UNL     1      -0.386  -3.429  12.608  0.00  0.00    +0.004 A 
ATOM     27  C   UNL     1      -0.273  -4.270  13.702  0.00  0.00    +0.000 A 
ATOM     28  C   UNL     1       0.101  -3.763  14.934  0.00  0.00    +0.001 A 
ATOM     29  C   UNL     1       0.363  -2.417  15.082  0.00  0.00    +0.013 A 
ATOM     30  C   UNL     1       0.252  -1.562  13.984  0.00  0.00    +0.040 A 
ATOM     31  C   UNL     1       0.463  -0.110  13.829  0.00  0.00    +0.246 C 
ATOM     32  O   UNL     1       0.800   0.642  14.722  0.00  0.00    -0.270 OA
ATOM     33  N   UNL     1       0.229   0.262  12.558  0.00  0.00    -0.305 N 
BRANCH  33  34
ATOM     34  C   UNL     1       0.338   1.625  12.035  0.00  0.00    +0.138 C 
BRANCH  34  35
ATOM     35  C   UNL     1      -1.009   2.336  12.176  0.00  0.00    +0.136 C 
ATOM     36  C   UNL     1      -0.938   3.730  11.518  0.00  0.00    +0.035 C 
ATOM     37  C   UNL     1      -1.758   4.603  12.509  0.00  0.00    +0.031 C 
ATOM     38  C   UNL     1      -1.407   3.927  13.858  0.00  0.00    +0.160 C 
ATOM     39  O   UNL     1      -1.316   2.525  13.563  0.00  0.00    -0.375 OA
ENDBRANCH  34  35
ENDBRANCH  33  34
ENDBRANCH  21  24
ENDBRANCH   1  21
TORSDOF 6
