REMARK  Name = ZINC59447169
REMARK  12 active torsions:
REMARK  status: ('A' for Active; 'I' for Inactive)
REMARK    1  A    between atoms: C_1  and  C_2
REMARK    2  A    between atoms: C_6  and  C_30
REMARK    3  A    between atoms: C_7  and  N_8
REMARK    4  A    between atoms: C_9  and  C_11
REMARK    5  A    between atoms: C_11  and  N_12
REMARK    6  A    between atoms: N_12  and  C_13
REMARK    7  A    between atoms: C_13  and  C_14
REMARK    8  A    between atoms: C_14  and  C_15
REMARK    9  A    between atoms: C_15  and  N_16
REMARK   10  A    between atoms: N_16  and  C_17
REMARK   11  A    between atoms: C_20  and  C_26
REMARK   12  A    between atoms: C_22  and  N_23
REMARK                            x       y       z     vdW  Elec       q    Type
REMARK                         _______ _______ _______ _____ _____    ______ ____
ROOT
ATOM      1  C   UNL     1       0.652   0.138   7.628  0.00  0.00    -0.080 C 
ENDROOT
BRANCH   1   2
ATOM      2  N   UNL     1       1.054  -0.629   6.441  0.00  0.00    +0.385 N 
ATOM      3  H   UNL     1       0.283  -1.204   6.136  0.00  0.00    -0.085 HD
ATOM      4  H   UNL     1       1.842  -1.216   6.671  0.00  0.00    -0.085 HD
BRANCH   2   5
ATOM      5  C   UNL     1       1.430   0.296   5.364  0.00  0.00    +0.015 C 
BRANCH   5   7
ATOM      6  N   UNL     1       2.231   0.153   3.028  0.00  0.00    -0.287 N 
ATOM      7  C   UNL     1       1.842  -0.491   4.147  0.00  0.00    +0.200 C 
ATOM      8  O   UNL     1       1.824  -1.703   4.173  0.00  0.00    -0.278 OA
ATOM      9  H   UNL     1       2.292   1.121   3.022  0.00  0.00    +0.155 HD
BRANCH   6  16
ATOM     10  C   UNL     1       4.600   0.839   1.610  0.00  0.00    +0.045 C 
ATOM     11  C   UNL     1       3.692  -0.274   1.153  0.00  0.00    -0.029 A 
ATOM     12  C   UNL     1       4.003  -0.999   0.019  0.00  0.00    +0.005 A 
ATOM     13  C   UNL     1       3.170  -2.020  -0.400  0.00  0.00    +0.001 A 
ATOM     14  C   UNL     1       2.024  -2.319   0.313  0.00  0.00    +0.005 A 
ATOM     15  C   UNL     1       1.708  -1.598   1.448  0.00  0.00    -0.029 A 
ATOM     16  C   UNL     1       2.545  -0.576   1.875  0.00  0.00    +0.039 A 
ATOM     17  C   UNL     1       0.458  -1.924   2.225  0.00  0.00    +0.045 C 
ENDBRANCH   6  16
ENDBRANCH   5   7
ENDBRANCH   2   5
ENDBRANCH   1   2
BRANCH   1  18
ATOM     18  C   UNL     1       0.260  -0.826   8.749  0.00  0.00    -0.000 C 
BRANCH  18  19
ATOM     19  C   UNL     1      -0.158  -0.027   9.986  0.00  0.00    +0.100 C 
BRANCH  19  20
ATOM     20  N   UNL     1      -0.533  -0.950  11.060  0.00  0.00    -0.342 N 
ATOM     21  H   UNL     1      -0.490  -1.907  10.913  0.00  0.00    +0.146 HD
BRANCH  20  22
ATOM     22  C   UNL     1      -0.953  -0.450  12.295  0.00  0.00    +0.058 A 
ATOM     23  C   UNL     1      -0.887   0.913  12.553  0.00  0.00    +0.026 A 
ATOM     24  C   UNL     1      -1.303   1.404  13.775  0.00  0.00    +0.014 A 
ATOM     25  C   UNL     1      -1.786   0.540  14.741  0.00  0.00    +0.057 A 
ATOM     26  C   UNL     1      -1.853  -0.818  14.487  0.00  0.00    +0.047 A 
ATOM     27  C   UNL     1      -1.443  -1.315  13.265  0.00  0.00    +0.147 A 
BRANCH  25  28
ATOM     28  C   UNL     1      -2.239   1.079  16.073  0.00  0.00    +0.417 C 
ATOM     29  F   UNL     1      -2.077   2.468  16.094  0.00  0.00    -0.166 F 
ATOM     30  F   UNL     1      -3.588   0.764  16.268  0.00  0.00    -0.166 F 
ATOM     31  F   UNL     1      -1.474   0.504  17.093  0.00  0.00    -0.166 F 
ENDBRANCH  25  28
BRANCH  27  32
ATOM     32  N   UNL     1      -1.521  -2.767  12.992  0.00  0.00    +0.058 N 
ATOM     33  O   UNL     1      -1.845  -3.159  11.895  0.00  0.00    -0.126 OA
ATOM     34  O   UNL     1      -1.261  -3.561  13.865  0.00  0.00    -0.126 OA
ENDBRANCH  27  32
ENDBRANCH  20  22
ENDBRANCH  19  20
ENDBRANCH  18  19
ENDBRANCH   1  18
TORSDOF 10
