REMARK  Name = ZINC53373652
REMARK  13 active torsions:
REMARK  status: ('A' for Active; 'I' for Inactive)
REMARK    1  A    between atoms: C_1  and  C_2
REMARK    2  A    between atoms: C_2  and  C_3
REMARK    3  A    between atoms: C_6  and  C_9
REMARK    4  A    between atoms: C_9  and  C_11
REMARK    5  A    between atoms: C_9  and  N_28
REMARK    6  A    between atoms: C_11  and  N_12
REMARK    7  A    between atoms: C_13  and  C_15
REMARK    8  A    between atoms: C_16  and  C_17
REMARK    9  A    between atoms: C_20  and  O_23
REMARK   10  A    between atoms: O_23  and  C_24
REMARK   11  A    between atoms: C_24  and  C_25
REMARK   12  A    between atoms: N_28  and  C_29
REMARK   13  A    between atoms: N_28  and  C_30
REMARK                            x       y       z     vdW  Elec       q    Type
REMARK                         _______ _______ _______ _____ _____    ______ ____
ROOT
ATOM      1  N   UNL     1       3.835  -3.673  -5.913  0.00  0.00    -0.313 N 
ATOM      2  C   UNL     1       4.211  -4.951  -6.118  0.00  0.00    +0.237 C 
ATOM      3  O   UNL     1       3.968  -5.799  -5.279  0.00  0.00    -0.271 OA
ATOM      4  H   UNL     1       4.029  -2.997  -6.581  0.00  0.00    +0.149 HD
ENDROOT
BRANCH   2   5
ATOM      5  C   UNL     1       4.911  -5.319  -7.348  0.00  0.00    +0.068 C 
ATOM      6  C   UNL     1       5.287  -6.598  -7.554  0.00  0.00    +0.013 C 
BRANCH   6   7
ATOM      7  C   UNL     1       5.991  -6.968  -8.790  0.00  0.00    -0.025 A 
ATOM      8  C   UNL     1       6.277  -5.994  -9.754  0.00  0.00    +0.011 A 
ATOM      9  C   UNL     1       6.936  -6.345 -10.910  0.00  0.00    +0.046 A 
ATOM     10  C   UNL     1       7.317  -7.665 -11.122  0.00  0.00    +0.121 A 
ATOM     11  C   UNL     1       7.035  -8.637 -10.169  0.00  0.00    +0.046 A 
ATOM     12  C   UNL     1       6.382  -8.295  -9.006  0.00  0.00    +0.011 A 
BRANCH  10  13
ATOM     13  O   UNL     1       7.967  -8.007 -12.264  0.00  0.00    -0.483 OA
BRANCH  13  14
ATOM     14  C   UNL     1       8.330  -9.380 -12.418  0.00  0.00    +0.324 C 
BRANCH  14  15
ATOM     15  C   UNL     1       9.037  -9.568 -13.736  0.00  0.00    +0.248 C 
ATOM     16  O   UNL     1       9.212  -8.619 -14.470  0.00  0.00    -0.272 OA
ATOM     17  N   UNL     1       9.474 -10.791 -14.098  0.00  0.00    -0.327 N 
ATOM     18  H   UNL     1       9.334 -11.549 -13.510  0.00  0.00    +0.145 HD
ATOM     19  H   UNL     1       9.929 -10.912 -14.946  0.00  0.00    +0.145 HD
ENDBRANCH  14  15
ENDBRANCH  13  14
ENDBRANCH  10  13
ENDBRANCH   6   7
ENDBRANCH   2   5
BRANCH   1  20
ATOM     20  C   UNL     1       3.134  -3.304  -4.680  0.00  0.00    +0.094 C 
BRANCH  20  21
ATOM     21  C   UNL     1       2.708  -1.837  -4.755  0.00  0.00    -0.021 C 
BRANCH  21  25
ATOM     22  C   UNL     1      -0.166  -1.349  -7.877  0.00  0.00    -0.048 A 
ATOM     23  C   UNL     1       1.156  -1.010  -8.096  0.00  0.00    +0.004 A 
ATOM     24  C   UNL     1       2.086  -1.168  -7.086  0.00  0.00    +0.002 A 
ATOM     25  C   UNL     1       1.694  -1.664  -5.856  0.00  0.00    -0.059 A 
ATOM     26  C   UNL     1       0.371  -2.001  -5.637  0.00  0.00    +0.002 A 
ATOM     27  C   UNL     1      -0.559  -1.840  -6.646  0.00  0.00    +0.004 A 
BRANCH  22  29
ATOM     28  C   UNL     1      -1.786   0.226  -8.900  0.00  0.00    +0.009 C 
ATOM     29  C   UNL     1      -1.180  -1.177  -8.979  0.00  0.00    +0.032 C 
ENDBRANCH  22  29
ENDBRANCH  21  25
BRANCH  21  30
ATOM     30  N   UNL     1       2.113  -1.434  -3.474  0.00  0.00    +0.382 N 
ATOM     31  C   UNL     1       3.107  -1.585  -2.403  0.00  0.00    -0.096 C 
ATOM     32  C   UNL     1       1.688  -0.030  -3.552  0.00  0.00    -0.096 C 
ATOM     33  H   UNL     1       1.314  -2.017  -3.276  0.00  0.00    -0.082 HD
ENDBRANCH  21  30
ENDBRANCH  20  21
ENDBRANCH   1  20
TORSDOF 10
