REMARK  Name = ZINC57274398
REMARK  9 active torsions:
REMARK  status: ('A' for Active; 'I' for Inactive)
REMARK    1  A    between atoms: C_1  and  N_2
REMARK    2  A    between atoms: N_2  and  C_3
REMARK    3  A    between atoms: N_2  and  C_4
REMARK    4  A    between atoms: C_7  and  N_10
REMARK    5  A    between atoms: C_19  and  N_21
REMARK    6  A    between atoms: N_21  and  C_22
REMARK    7  A    between atoms: C_22  and  C_23
REMARK    8  A    between atoms: C_23  and  C_24
REMARK    9  A    between atoms: C_24  and  O_25
REMARK                            x       y       z     vdW  Elec       q    Type
REMARK                         _______ _______ _______ _____ _____    ______ ____
ROOT
ATOM      1  N   UNL     1      -0.006  -2.763  -4.837  0.00  0.00    -0.285 N 
ATOM      2  C   UNL     1       0.083  -2.063  -6.027  0.00  0.00    +0.199 A 
ATOM      3  N   UNL     1       0.175  -0.748  -5.982  0.00  0.00    -0.327 N 
ATOM      4  C   UNL     1       0.263  -0.034  -7.115  0.00  0.00    +0.052 A 
ATOM      5  C   UNL     1       0.361   1.364  -7.104  0.00  0.00    +0.026 A 
ATOM      6  C   UNL     1       0.449   2.042  -8.283  0.00  0.00    +0.002 A 
ATOM      7  C   UNL     1       0.443   1.367  -9.501  0.00  0.00    +0.001 A 
ATOM      8  C   UNL     1       0.348   0.007  -9.547  0.00  0.00    +0.013 A 
ATOM      9  C   UNL     1       0.257  -0.719  -8.354  0.00  0.00    +0.038 A 
ATOM     10  C   UNL     1       0.157  -2.133  -8.341  0.00  0.00    +0.131 A 
ATOM     11  N   UNL     1       0.079  -2.746  -7.169  0.00  0.00    -0.200 NA
ATOM     12  H   UNL     1      -0.087  -2.283  -3.997  0.00  0.00    +0.155 HD
ATOM     13  H   UNL     1       0.177  -0.294  -5.125  0.00  0.00    +0.169 HD
ENDROOT
BRANCH   1  17
ATOM     14  C   UNL     1       0.074  -6.932  -4.856  0.00  0.00    +0.029 A 
ATOM     15  C   UNL     1      -0.696  -6.257  -3.918  0.00  0.00    +0.025 A 
ATOM     16  C   UNL     1      -0.723  -4.876  -3.912  0.00  0.00    +0.025 A 
ATOM     17  C   UNL     1       0.021  -4.163  -4.843  0.00  0.00    +0.034 A 
ATOM     18  C   UNL     1       0.790  -4.839  -5.781  0.00  0.00    +0.025 A 
ATOM     19  C   UNL     1       0.822  -6.219  -5.784  0.00  0.00    +0.025 A 
BRANCH  14  21
ATOM     20  C   UNL     1       0.917  -9.044  -5.848  0.00  0.00    +0.129 C 
ATOM     21  N   UNL     1       0.100  -8.332  -4.862  0.00  0.00    -0.336 N 
ATOM     22  C   UNL     1      -0.689  -9.084  -3.884  0.00  0.00    +0.129 C 
ENDBRANCH  14  21
ENDBRANCH   1  17
BRANCH  10  23
ATOM     23  N   UNL     1       0.146  -2.852  -9.517  0.00  0.00    -0.328 N 
ATOM     24  H   UNL     1       0.207  -2.390 -10.368  0.00  0.00    +0.147 HD
BRANCH  23  25
ATOM     25  C   UNL     1       0.042  -4.313  -9.481  0.00  0.00    +0.105 C 
BRANCH  25  26
ATOM     26  C   UNL     1       0.052  -4.859 -10.910  0.00  0.00    +0.046 C 
BRANCH  26  27
ATOM     27  C   UNL     1      -0.056  -6.385 -10.873  0.00  0.00    +0.157 C 
BRANCH  27  28
ATOM     28  O   UNL     1      -0.048  -6.896 -12.208  0.00  0.00    -0.395 OA
ATOM     29  H   UNL     1      -0.113  -7.859 -12.261  0.00  0.00    +0.209 HD
ENDBRANCH  27  28
ENDBRANCH  26  27
ENDBRANCH  25  26
ENDBRANCH  23  25
ENDBRANCH  10  23
TORSDOF 7
