REMARK  Name = ZINC43261722
REMARK  7 active torsions:
REMARK  status: ('A' for Active; 'I' for Inactive)
REMARK    1  A    between atoms: C_1  and  C_2
REMARK    2  A    between atoms: C_5  and  C_8
REMARK    3  A    between atoms: C_13  and  C_16
REMARK    4  A    between atoms: N_18  and  C_19
REMARK    5  A    between atoms: C_19  and  C_20
REMARK    6  A    between atoms: C_29  and  C_30
REMARK    7  A    between atoms: C_29  and  C_31
REMARK                            x       y       z     vdW  Elec       q    Type
REMARK                         _______ _______ _______ _____ _____    ______ ____
ROOT
ATOM      1  C   UNL     1       0.087  -4.434  -0.262  0.00  0.00    -0.030 C 
ATOM      2  C   UNL     1       1.516  -4.952  -0.061  0.00  0.00    +0.058 C 
ATOM      3  S   UNL     1       1.478  -6.771  -0.127  0.00  0.00    -0.163 S 
ATOM      4  C   UNL     1       0.132  -7.183   1.026  0.00  0.00    +0.062 C 
ATOM      5  C   UNL     1      -1.090  -6.332   0.662  0.00  0.00    +0.027 C 
ATOM      6  N   UNL     1      -0.771  -4.911   0.824  0.00  0.00    +0.392 N 
ATOM      7  H   UNL     1      -0.296  -4.776   1.704  0.00  0.00    -0.084 HD
ATOM      8  H   UNL     1      -1.628  -4.379   0.827  0.00  0.00    -0.084 HD
ENDROOT
BRANCH   1  13
ATOM      9  C   UNL     1       0.122   1.344  -0.283  0.00  0.00    +0.044 C 
ATOM     10  C   UNL     1       0.113  -0.163  -0.278  0.00  0.00    -0.050 A 
ATOM     11  C   UNL     1       0.070  -0.858  -1.472  0.00  0.00    +0.003 A 
ATOM     12  C   UNL     1       0.062  -2.240  -1.467  0.00  0.00    +0.002 A 
ATOM     13  C   UNL     1       0.097  -2.927  -0.268  0.00  0.00    -0.061 A 
ATOM     14  C   UNL     1       0.141  -2.232   0.926  0.00  0.00    +0.002 A 
ATOM     15  C   UNL     1       0.154  -0.850   0.921  0.00  0.00    +0.003 A 
ENDBRANCH   1  13
BRANCH   5  16
ATOM     16  C   UNL     1      -2.240  -6.691   1.568  0.00  0.00    +0.200 C 
ATOM     17  O   UNL     1      -2.737  -5.846   2.281  0.00  0.00    -0.278 OA
ATOM     18  N   UNL     1      -2.714  -7.953   1.585  0.00  0.00    -0.316 N 
ATOM     19  H   UNL     1      -2.316  -8.629   1.015  0.00  0.00    +0.149 HD
BRANCH  18  20
ATOM     20  C   UNL     1      -3.832  -8.303   2.466  0.00  0.00    +0.108 C 
BRANCH  20  21
ATOM     21  C   UNL     1      -4.173  -9.786   2.293  0.00  0.00    +0.010 C 
ATOM     22  C   UNL     1      -4.628 -10.072   0.870  0.00  0.00    +0.005 C 
ATOM     23  C   UNL     1      -5.657 -11.192   0.785  0.00  0.00    +0.004 C 
ATOM     24  C   UNL     1      -6.382 -11.427   2.111  0.00  0.00    -0.005 C 
ATOM     25  C   UNL     1      -5.390 -11.765   3.243  0.00  0.00    +0.008 C 
ATOM     26  C   UNL     1      -5.205 -10.229   3.330  0.00  0.00    -0.000 C 
ATOM     27  C   UNL     1      -6.669 -10.139   2.897  0.00  0.00    -0.029 C 
ATOM     28  C   UNL     1      -7.660 -10.352   4.058  0.00  0.00    +0.011 C 
ATOM     29  C   UNL     1      -7.071  -8.934   2.053  0.00  0.00    +0.011 C 
ENDBRANCH  20  21
ENDBRANCH  18  20
ENDBRANCH   5  16
TORSDOF 4
