REMARK  Name = ZINC38994826
REMARK  9 active torsions:
REMARK  status: ('A' for Active; 'I' for Inactive)
REMARK    1  A    between atoms: C_1  and  O_2
REMARK    2  A    between atoms: O_2  and  C_3
REMARK    3  A    between atoms: C_5  and  C_13
REMARK    4  A    between atoms: C_7  and  O_11
REMARK    5  A    between atoms: C_8  and  O_9
REMARK    6  A    between atoms: O_9  and  C_10
REMARK    7  A    between atoms: O_11  and  C_12
REMARK    8  A    between atoms: N_19  and  N_20
REMARK    9  A    between atoms: C_21  and  C_22
REMARK                            x       y       z     vdW  Elec       q    Type
REMARK                         _______ _______ _______ _____ _____    ______ ____
ROOT
ATOM      1  C   UNL     1       2.441   0.399  -4.239  0.00  0.00    +0.264 C 
ATOM      2  N   UNL     1       1.912   1.744  -4.509  0.00  0.00    -0.189 NA
ATOM      3  N   UNL     1       1.563   1.789  -5.692  0.00  0.00    -0.219 N 
ATOM      4  C   UNL     1       1.767   0.623  -6.359  0.00  0.00    +0.174 C 
ATOM      5  S   UNL     1       1.390   0.358  -8.008  0.00  0.00    -0.015 S 
ATOM      6  N   UNL     1       2.312  -0.300  -5.532  0.00  0.00    -0.172 N 
ATOM      7  H   UNL     1       1.181   2.580  -6.105  0.00  0.00    +0.176 HD
ENDROOT
BRANCH   1  10
ATOM      8  C   UNL     1       0.289  -0.181  -1.187  0.00  0.00    +0.166 A 
ATOM      9  C   UNL     1       1.047   0.449  -2.162  0.00  0.00    +0.057 A 
ATOM     10  C   UNL     1       1.618  -0.290  -3.181  0.00  0.00    +0.005 A 
ATOM     11  C   UNL     1       1.437  -1.660  -3.233  0.00  0.00    +0.057 A 
ATOM     12  C   UNL     1       0.680  -2.298  -2.261  0.00  0.00    +0.166 A 
ATOM     13  C   UNL     1       0.109  -1.559  -1.232  0.00  0.00    +0.204 A 
BRANCH   8  15
ATOM     14  C   UNL     1      -0.046   1.957  -0.202  0.00  0.00    +0.277 C 
ATOM     15  O   UNL     1      -0.273   0.546  -0.185  0.00  0.00    -0.491 OA
ENDBRANCH   8  15
BRANCH  13  16
ATOM     16  O   UNL     1      -0.630  -2.182  -0.274  0.00  0.00    -0.488 OA
ATOM     17  C   UNL     1      -2.031  -2.318  -0.521  0.00  0.00    +0.277 C 
ENDBRANCH  13  16
BRANCH  12  18
ATOM     18  O   UNL     1       0.501  -3.645  -2.313  0.00  0.00    -0.491 OA
ATOM     19  C   UNL     1       1.122  -4.340  -3.396  0.00  0.00    +0.277 C 
ENDBRANCH  12  18
ENDBRANCH   1  10
BRANCH   6  20
ATOM     20  N   UNL     1       2.673  -1.620  -5.832  0.00  0.00    -0.183 NA
ATOM     21  C   UNL     1       2.596  -2.053  -7.059  0.00  0.00    +0.139 C 
BRANCH  21  22
ATOM     22  C   UNL     1       3.089  -3.391  -7.396  0.00  0.00    +0.010 A 
ATOM     23  C   UNL     1       2.904  -3.914  -8.692  0.00  0.00    -0.009 A 
ATOM     24  C   UNL     1       2.245  -3.171  -9.688  0.00  0.00    +0.009 A 
ATOM     25  C   UNL     1       2.084  -3.705 -10.928  0.00  0.00    +0.001 A 
ATOM     26  C   UNL     1       2.555  -4.978 -11.244  0.00  0.00    +0.001 A 
ATOM     27  C   UNL     1       3.198  -5.747 -10.328  0.00  0.00    +0.008 A 
ATOM     28  C   UNL     1       3.400  -5.252  -9.021  0.00  0.00    -0.017 A 
ATOM     29  C   UNL     1       4.057  -6.017  -8.057  0.00  0.00    +0.017 A 
ATOM     30  C   UNL     1       4.244  -5.507  -6.771  0.00  0.00    -0.017 A 
ATOM     31  C   UNL     1       3.761  -4.168  -6.429  0.00  0.00    -0.009 A 
ATOM     32  C   UNL     1       3.974  -3.682  -5.127  0.00  0.00    +0.009 A 
ATOM     33  C   UNL     1       4.626  -4.457  -4.219  0.00  0.00    +0.001 A 
ATOM     34  C   UNL     1       5.094  -5.729  -4.545  0.00  0.00    +0.001 A 
ATOM     35  C   UNL     1       4.906  -6.263  -5.780  0.00  0.00    +0.008 A 
ENDBRANCH  21  22
ENDBRANCH   6  20
TORSDOF 6
