REMARK  Name = ZINC03454768
REMARK  10 active torsions:
REMARK  status: ('A' for Active; 'I' for Inactive)
REMARK    1  A    between atoms: C_1  and  C_2
REMARK    2  A    between atoms: C_7  and  S_8
REMARK    3  A    between atoms: S_8  and  C_9
REMARK    4  A    between atoms: C_9  and  C_10
REMARK    5  A    between atoms: N_12  and  N_13
REMARK    6  A    between atoms: C_14  and  C_16
REMARK    7  A    between atoms: C_16  and  C_17
REMARK    8  A    between atoms: C_17  and  N_54
REMARK    9  A    between atoms: C_18  and  C_26
REMARK   10  A    between atoms: C_23  and  C_25
REMARK                            x       y       z     vdW  Elec       q    Type
REMARK                         _______ _______ _______ _____ _____    ______ ____
ROOT
ATOM      1  N   UNL     1      -2.083  -7.108  -0.938  0.00  0.00    -0.234 N 
ATOM      2  C   UNL     1      -2.356  -8.415  -0.750  0.00  0.00    +0.227 C 
ATOM      3  O   UNL     1      -1.466  -9.236  -0.820  0.00  0.00    -0.274 OA
ATOM      4  H   UNL     1      -2.795  -6.452  -0.882  0.00  0.00    +0.173 HD
ENDROOT
BRANCH   1   7
ATOM      5  C   UNL     1      -0.500  -5.392  -1.401  0.00  0.00    +0.239 C 
ATOM      6  O   UNL     1      -1.389  -4.571  -1.331  0.00  0.00    -0.273 OA
ATOM      7  N   UNL     1      -0.772  -6.699  -1.213  0.00  0.00    -0.234 N 
ATOM      8  H   UNL     1      -0.060  -7.355  -1.269  0.00  0.00    +0.173 HD
BRANCH   5   9
ATOM      9  C   UNL     1       0.911  -4.952  -1.697  0.00  0.00    +0.171 C 
BRANCH   9  10
ATOM     10  S   UNL     1       0.952  -3.149  -1.897  0.00  0.00    -0.116 S 
BRANCH  10  17
ATOM     11  C   UNL     1       2.049  -0.363  -2.393  0.00  0.00    +0.045 C 
ATOM     12  C   UNL     1       3.054  -1.485  -2.446  0.00  0.00    -0.037 A 
ATOM     13  C   UNL     1       4.382  -1.212  -2.710  0.00  0.00    +0.004 A 
ATOM     14  C   UNL     1       5.303  -2.241  -2.764  0.00  0.00    +0.000 A 
ATOM     15  C   UNL     1       4.900  -3.547  -2.553  0.00  0.00    +0.001 A 
ATOM     16  C   UNL     1       3.574  -3.828  -2.288  0.00  0.00    +0.015 A 
ATOM     17  C   UNL     1       2.645  -2.796  -2.233  0.00  0.00    +0.011 A 
ENDBRANCH  10  17
ENDBRANCH   9  10
ENDBRANCH   5   9
ENDBRANCH   1   7
BRANCH   2  18
ATOM     18  C   UNL     1      -3.766  -8.855  -0.454  0.00  0.00    +0.079 C 
BRANCH  18  19
ATOM     19  C   UNL     1      -3.801 -10.376  -0.286  0.00  0.00    -0.069 C 
BRANCH  19  27
ATOM     20  C   UNL     1      -5.745 -10.171   1.142  0.00  0.00    -0.071 C 
ATOM     21  C   UNL     1      -7.129 -10.755   1.434  0.00  0.00    -0.016 C 
ATOM     22  C   UNL     1      -8.043 -10.517   0.229  0.00  0.00    -0.003 C 
ATOM     23  C   UNL     1      -7.413 -11.152  -1.014  0.00  0.00    -0.016 C 
ATOM     24  C   UNL     1      -6.021 -10.556  -1.235  0.00  0.00    -0.071 C 
ATOM     25  C   UNL     1      -5.378 -11.203  -2.464  0.00  0.00    -0.013 C 
ATOM     26  C   UNL     1      -4.822 -10.424   2.336  0.00  0.00    -0.013 C 
ATOM     27  N   UNL     1      -5.183 -10.841  -0.050  0.00  0.00    +0.383 N 
ATOM     28  H   UNL     1      -5.170 -11.855   0.113  0.00  0.00    -0.081 HD
ENDBRANCH  19  27
ENDBRANCH  18  19
ENDBRANCH   2  18
TORSDOF 7
