REMARK  Name = ZINC09690901
REMARK  9 active torsions:
REMARK  status: ('A' for Active; 'I' for Inactive)
REMARK    1  A    between atoms: C_1  and  O_2
REMARK    2  A    between atoms: O_2  and  C_3
REMARK    3  A    between atoms: C_6  and  C_9
REMARK    4  A    between atoms: C_9  and  C_11
REMARK    5  A    between atoms: C_9  and  N_66
REMARK    6  A    between atoms: C_11  and  N_12
REMARK    7  A    between atoms: C_13  and  C_15
REMARK    8  A    between atoms: N_20  and  S_22
REMARK    9  A    between atoms: S_22  and  C_25
REMARK                            x       y       z     vdW  Elec       q    Type
REMARK                         _______ _______ _______ _____ _____    ______ ____
ROOT
ATOM      1  N   UNL     1      -0.258   1.205   2.507  0.00  0.00    -0.316 N 
ATOM      2  C   UNL     1      -0.808   1.521   3.696  0.00  0.00    +0.217 C 
ATOM      3  O   UNL     1      -1.906   2.033   3.740  0.00  0.00    -0.275 OA
ATOM      4  H   UNL     1       0.621   0.795   2.473  0.00  0.00    +0.149 HD
ENDROOT
BRANCH   2   5
ATOM      5  C   UNL     1      -0.057   1.238   4.972  0.00  0.00    +0.091 C 
ATOM      6  C   UNL     1       0.219  -0.263   5.080  0.00  0.00    +0.015 C 
ATOM      7  C   UNL     1       1.010  -0.547   6.360  0.00  0.00    +0.018 C 
ATOM      8  C   UNL     1       0.179  -0.120   7.574  0.00  0.00    +0.109 C 
ATOM      9  N   UNL     1      -0.213   1.286   7.407  0.00  0.00    -0.175 NA
ATOM     10  C   UNL     1      -0.899   1.686   6.171  0.00  0.00    +0.122 C 
BRANCH   9  11
ATOM     11  S   UNL     1       0.112   2.399   8.589  0.00  0.00    +0.067 S 
ATOM     12  O   UNL     1      -0.827   3.453   8.424  0.00  0.00    -0.152 OA
ATOM     13  O   UNL     1       0.236   1.675   9.806  0.00  0.00    -0.152 OA
BRANCH  11  14
ATOM     14  C   UNL     1       1.700   3.079   8.243  0.00  0.00    +0.143 A 
ATOM     15  C   UNL     1       2.020   4.160   7.491  0.00  0.00    +0.036 A 
ATOM     16  C   UNL     1       3.349   4.514   7.357  0.00  0.00    +0.010 A 
ATOM     17  C   UNL     1       4.294   3.769   7.983  0.00  0.00    +0.047 A 
ATOM     18  S   UNL     1       3.304   2.527   8.798  0.00  0.00    -0.077 S 
ENDBRANCH  11  14
ENDBRANCH   9  11
ENDBRANCH   2   5
BRANCH   1  19
ATOM     19  C   UNL     1      -0.987   1.480   1.267  0.00  0.00    +0.093 C 
BRANCH  19  20
ATOM     20  C   UNL     1      -0.082   1.192   0.068  0.00  0.00    -0.020 C 
BRANCH  20  26
ATOM     21  C   UNL     1       2.203   1.529   0.795  0.00  0.00    -0.078 C 
ATOM     22  C   UNL     1       3.415   2.454   0.667  0.00  0.00    -0.019 C 
ATOM     23  C   UNL     1       3.071   3.824   1.258  0.00  0.00    -0.004 C 
ATOM     24  C   UNL     1       1.848   4.392   0.533  0.00  0.00    -0.019 C 
ATOM     25  C   UNL     1       0.681   3.411   0.665  0.00  0.00    -0.078 C 
ATOM     26  N   UNL     1       1.068   2.121   0.055  0.00  0.00    +0.385 N 
ATOM     27  H   UNL     1       1.353   2.284  -0.918  0.00  0.00    -0.081 HD
ENDBRANCH  20  26
BRANCH  20  31
ATOM     28  C   UNL     1      -2.295   1.723  -3.549  0.00  0.00    +0.120 A 
ATOM     29  C   UNL     1      -2.343   0.510  -2.877  0.00  0.00    +0.046 A 
ATOM     30  C   UNL     1      -1.626   0.341  -1.708  0.00  0.00    +0.005 A 
ATOM     31  C   UNL     1      -0.862   1.379  -1.208  0.00  0.00    -0.059 A 
ATOM     32  C   UNL     1      -0.817   2.591  -1.873  0.00  0.00    +0.005 A 
ATOM     33  C   UNL     1      -1.527   2.763  -3.046  0.00  0.00    +0.046 A 
BRANCH  28  35
ATOM     34  C   UNL     1      -2.902   3.167  -5.337  0.00  0.00    +0.277 C 
ATOM     35  O   UNL     1      -2.999   1.892  -4.699  0.00  0.00    -0.495 OA
ENDBRANCH  28  35
ENDBRANCH  20  31
ENDBRANCH  19  20
ENDBRANCH   1  19
TORSDOF 8
