REMARK  Name = ZINC29254394
REMARK  11 active torsions:
REMARK  status: ('A' for Active; 'I' for Inactive)
REMARK    1  A    between atoms: C_1  and  C_2
REMARK    2  A    between atoms: C_5  and  N_9
REMARK    3  A    between atoms: C_6  and  C_8
REMARK    4  A    between atoms: C_13  and  C_15
REMARK    5  A    between atoms: C_15  and  C_17
REMARK    6  A    between atoms: C_15  and  N_18
REMARK    7  A    between atoms: N_18  and  C_19
REMARK    8  A    between atoms: N_18  and  C_20
REMARK    9  A    between atoms: C_20  and  C_21
REMARK   10  A    between atoms: C_24  and  S_27
REMARK   11  A    between atoms: S_27  and  C_28
REMARK                            x       y       z     vdW  Elec       q    Type
REMARK                         _______ _______ _______ _____ _____    ______ ____
ROOT
ATOM      1  N   UNL     1      -1.237   2.069   0.019  0.00  0.00    -0.269 N 
ATOM      2  C   UNL     1      -2.394   1.385  -0.081  0.00  0.00    +0.310 C 
ATOM      3  O   UNL     1      -2.383   0.170  -0.088  0.00  0.00    -0.252 OA
ATOM      4  N   UNL     1      -3.563   2.049  -0.173  0.00  0.00    -0.241 N 
ATOM      5  C   UNL     1      -4.721   1.365  -0.273  0.00  0.00    +0.207 C 
ATOM      6  O   UNL     1      -4.710   0.153  -0.280  0.00  0.00    -0.277 OA
ATOM      7  H   UNL     1      -1.252   3.166   0.100  0.00  0.00    +0.156 HD
ATOM      8  H   UNL     1      -3.574   3.149  -0.167  0.00  0.00    +0.159 HD
ENDROOT
BRANCH   1  13
ATOM      9  C   UNL     1       3.704  -0.718   0.008  0.00  0.00    +0.044 C 
ATOM     10  C   UNL     1       2.392   0.023   0.013  0.00  0.00    -0.050 A 
ATOM     11  C   UNL     1       1.282  -0.542   0.613  0.00  0.00    +0.005 A 
ATOM     12  C   UNL     1       0.078   0.134   0.619  0.00  0.00    +0.024 A 
ATOM     13  C   UNL     1      -0.017   1.384   0.020  0.00  0.00    +0.038 A 
ATOM     14  C   UNL     1       1.099   1.949  -0.581  0.00  0.00    -0.029 A 
ATOM     15  C   UNL     1       2.300   1.267  -0.584  0.00  0.00    +0.008 A 
ATOM     16  C   UNL     1       1.000   3.305  -1.232  0.00  0.00    +0.045 C 
ENDBRANCH   1  13
BRANCH   5  17
ATOM     17  C   UNL     1      -6.028   2.108  -0.377  0.00  0.00    +0.017 C 
ATOM     18  C   UNL     1      -6.014   2.995  -1.623  0.00  0.00    -0.004 C 
BRANCH  17  19
ATOM     19  N   UNL     1      -7.132   1.144  -0.474  0.00  0.00    +0.388 N 
ATOM     20  C   UNL     1      -6.994   0.305  -1.672  0.00  0.00    -0.095 C 
ATOM     21  H   UNL     1      -7.085   0.486   0.406  0.00  0.00    -0.081 HD
BRANCH  19  22
ATOM     22  C   UNL     1      -8.432   1.828  -0.457  0.00  0.00    -0.042 C 
BRANCH  22  23
ATOM     23  C   UNL     1      -9.534   0.811  -0.311  0.00  0.00    -0.064 A 
ATOM     24  C   UNL     1     -10.109   0.251  -1.437  0.00  0.00    +0.003 A 
ATOM     25  C   UNL     1     -11.115  -0.686  -1.306  0.00  0.00    +0.015 A 
ATOM     26  C   UNL     1     -11.557  -1.058  -0.042  0.00  0.00    +0.008 A 
ATOM     27  C   UNL     1     -10.980  -0.489   1.087  0.00  0.00    +0.015 A 
ATOM     28  C   UNL     1      -9.971   0.443   0.949  0.00  0.00    +0.003 A 
BRANCH  26  29
ATOM     29  S   UNL     1     -12.845  -2.248   0.129  0.00  0.00    -0.129 S 
ATOM     30  C   UNL     1     -13.265  -2.689  -1.580  0.00  0.00    +0.090 C 
ENDBRANCH  26  29
ENDBRANCH  22  23
ENDBRANCH  19  22
ENDBRANCH  17  19
ENDBRANCH   5  17
TORSDOF 6
