REMARK  Name = ZINC23336108
REMARK  10 active torsions:
REMARK  status: ('A' for Active; 'I' for Inactive)
REMARK    1  A    between atoms: C_1  and  C_2
REMARK    2  A    between atoms: C_7  and  N_8
REMARK    3  A    between atoms: N_14  and  C_17
REMARK    4  A    between atoms: C_17  and  C_18
REMARK    5  A    between atoms: C_18  and  C_20
REMARK    6  A    between atoms: C_18  and  O_27
REMARK    7  A    between atoms: O_27  and  C_28
REMARK    8  A    between atoms: C_28  and  C_29
REMARK    9  A    between atoms: C_33  and  O_35
REMARK   10  A    between atoms: O_35  and  C_36
REMARK                            x       y       z     vdW  Elec       q    Type
REMARK                         _______ _______ _______ _____ _____    ______ ____
ROOT
ATOM      1  C   UNL     1      -4.165   0.049   7.809  0.00  0.00    -0.042 C 
ENDROOT
BRANCH   1   8
ATOM      2  N   UNL     1      -8.924   2.123   4.412  0.00  0.00    -0.269 N 
ATOM      3  C   UNL     1      -7.967   2.796   5.082  0.00  0.00    +0.306 C 
ATOM      4  O   UNL     1      -8.173   3.934   5.455  0.00  0.00    -0.252 OA
ATOM      5  N   UNL     1      -6.783   2.206   5.338  0.00  0.00    -0.289 N 
ATOM      6  C   UNL     1      -6.553   0.794   4.996  0.00  0.00    +0.091 C 
ATOM      7  C   UNL     1      -6.004   0.077   6.234  0.00  0.00    -0.059 C 
ATOM      8  N   UNL     1      -4.823   0.796   6.729  0.00  0.00    +0.384 N 
ATOM      9  C   UNL     1      -5.171   2.155   7.166  0.00  0.00    -0.059 C 
ATOM     10  C   UNL     1      -5.686   2.958   5.967  0.00  0.00    +0.091 C 
ATOM     11  H   UNL     1      -8.772   1.066   4.149  0.00  0.00    +0.156 HD
ATOM     12  H   UNL     1      -4.111   0.885   5.895  0.00  0.00    -0.082 HD
BRANCH   2  19
ATOM     13  C   UNL     1     -11.191   0.521   3.787  0.00  0.00    +0.045 C 
ATOM     14  C   UNL     1     -11.241   2.026   3.737  0.00  0.00    -0.029 A 
ATOM     15  C   UNL     1     -12.411   2.668   3.381  0.00  0.00    +0.005 A 
ATOM     16  C   UNL     1     -12.458   4.049   3.336  0.00  0.00    +0.000 A 
ATOM     17  C   UNL     1     -11.335   4.792   3.647  0.00  0.00    +0.002 A 
ATOM     18  C   UNL     1     -10.163   4.157   4.009  0.00  0.00    +0.023 A 
ATOM     19  C   UNL     1     -10.111   2.770   4.050  0.00  0.00    +0.038 A 
ENDBRANCH   2  19
ENDBRANCH   1   8
BRANCH   1  20
ATOM     20  C   UNL     1      -2.815   0.694   8.128  0.00  0.00    +0.132 C 
BRANCH  20  21
ATOM     21  C   UNL     1      -2.140  -0.073   9.236  0.00  0.00    -0.021 A 
ATOM     22  C   UNL     1      -1.390  -1.197   8.941  0.00  0.00    +0.007 A 
ATOM     23  C   UNL     1      -0.767  -1.898   9.956  0.00  0.00    +0.020 A 
ATOM     24  C   UNL     1      -0.902  -1.481  11.268  0.00  0.00    +0.041 A 
ATOM     25  C   UNL     1      -1.657  -0.360  11.563  0.00  0.00    +0.020 A 
ATOM     26  C   UNL     1      -2.276   0.343  10.547  0.00  0.00    +0.007 A 
ATOM     27 CL   UNL     1      -0.126  -2.366  12.544  0.00  0.00    -0.084 Cl
ENDBRANCH  20  21
BRANCH  20  28
ATOM     28  O   UNL     1      -1.989   0.671   6.962  0.00  0.00    -0.369 OA
BRANCH  28  29
ATOM     29  C   UNL     1      -1.062   1.756   6.885  0.00  0.00    +0.196 C 
BRANCH  29  30
ATOM     30  C   UNL     1      -0.248   1.633   5.622  0.00  0.00    -0.018 A 
ATOM     31  C   UNL     1       0.938   0.923   5.632  0.00  0.00    +0.006 A 
ATOM     32  C   UNL     1       1.687   0.807   4.476  0.00  0.00    +0.004 A 
ATOM     33  C   UNL     1       1.249   1.398   3.306  0.00  0.00    +0.045 A 
ATOM     34  C   UNL     1       0.062   2.116   3.295  0.00  0.00    +0.120 A 
ATOM     35  C   UNL     1      -0.688   2.229   4.457  0.00  0.00    +0.051 A 
BRANCH  34  36
ATOM     36  O   UNL     1      -0.369   2.702   2.147  0.00  0.00    -0.495 OA
ATOM     37  C   UNL     1       0.454   2.543   0.989  0.00  0.00    +0.277 C 
ENDBRANCH  34  36
ENDBRANCH  29  30
ENDBRANCH  28  29
ENDBRANCH  20  28
ENDBRANCH   1  20
TORSDOF 8
