REMARK  Name = ZINC04498619
REMARK  10 active torsions:
REMARK  status: ('A' for Active; 'I' for Inactive)
REMARK    1  A    between atoms: C_1  and  C_2
REMARK    2  A    between atoms: C_4  and  O_23
REMARK    3  A    between atoms: C_5  and  S_9
REMARK    4  A    between atoms: S_9  and  N_12
REMARK    5  A    between atoms: N_12  and  C_13
REMARK    6  A    between atoms: C_15  and  C_21
REMARK    7  A    between atoms: C_15  and  C_22
REMARK    8  A    between atoms: C_17  and  C_19
REMARK    9  A    between atoms: C_17  and  C_20
REMARK   10  A    between atoms: O_23  and  C_24
REMARK                            x       y       z     vdW  Elec       q    Type
REMARK                         _______ _______ _______ _____ _____    ______ ____
ROOT
ATOM      1  N   UNL     1      -2.047  -5.085  -1.386  0.00  0.00    -0.187 NA
ATOM      2  H   UNL     1      -2.681  -5.557  -0.824  0.00  0.00    +0.148 HD
ENDROOT
BRANCH   1   3
ATOM      3  C   UNL     1      -2.417  -4.715  -2.758  0.00  0.00    +0.074 C 
ATOM      4  C   UNL     1      -3.195  -3.398  -2.731  0.00  0.00    +0.007 C 
ATOM      5  C   UNL     1      -3.598  -3.005  -4.152  0.00  0.00    -0.072 C 
ATOM      6  N   UNL     1      -4.324  -4.069  -4.830  0.00  0.00    +0.386 N 
ATOM      7  C   UNL     1      -3.781  -5.416  -4.749  0.00  0.00    -0.072 C 
ATOM      8  C   UNL     1      -3.324  -5.796  -3.345  0.00  0.00    +0.007 C 
ATOM      9  C   UNL     1      -4.911  -6.396  -5.144  0.00  0.00    -0.010 C 
ATOM     10  C   UNL     1      -2.639  -5.626  -5.746  0.00  0.00    -0.010 C 
ATOM     11  C   UNL     1      -2.372  -2.551  -4.943  0.00  0.00    -0.010 C 
ATOM     12  C   UNL     1      -4.547  -1.790  -4.040  0.00  0.00    -0.010 C 
ATOM     13  H   UNL     1      -5.281  -4.086  -4.468  0.00  0.00    -0.084 HD
ATOM     14  H   UNL     1      -4.416  -3.817  -5.817  0.00  0.00    -0.084 HD
ENDBRANCH   1   3
BRANCH   1  15
ATOM     15  S   UNL     1      -0.549  -4.695  -0.799  0.00  0.00    +0.062 S 
ATOM     16  O   UNL     1      -0.493  -5.189   0.532  0.00  0.00    -0.153 OA
ATOM     17  O   UNL     1      -0.333  -3.326  -1.112  0.00  0.00    -0.153 OA
BRANCH  15  22
ATOM     18  C   UNL     1       3.494  -7.851  -3.985  0.00  0.00    +0.045 C 
ATOM     19  C   UNL     1       2.484  -7.065  -3.189  0.00  0.00    -0.029 A 
ATOM     20  C   UNL     1       1.577  -7.725  -2.382  0.00  0.00    +0.052 A 
ATOM     21  C   UNL     1       0.647  -7.002  -1.649  0.00  0.00    +0.147 A 
ATOM     22  C   UNL     1       0.631  -5.617  -1.728  0.00  0.00    +0.148 A 
ATOM     23  C   UNL     1       1.540  -4.960  -2.535  0.00  0.00    +0.052 A 
ATOM     24  C   UNL     1       2.470  -5.684  -3.261  0.00  0.00    +0.046 A 
ATOM     25 CL   UNL     1       3.615  -4.856  -4.270  0.00  0.00    -0.083 Cl
BRANCH  21  26
ATOM     26  O   UNL     1      -0.246  -7.649  -0.856  0.00  0.00    -0.493 OA
ATOM     27  C   UNL     1      -0.193  -9.077  -0.850  0.00  0.00    +0.277 C 
ENDBRANCH  21  26
ENDBRANCH  15  22
ENDBRANCH   1  15
TORSDOF 4
