REMARK  Name = ZINC39909829
REMARK  6 active torsions:
REMARK  status: ('A' for Active; 'I' for Inactive)
REMARK    1  A    between atoms: C_6  and  C_10
REMARK    2  A    between atoms: N_14  and  C_18
REMARK    3  A    between atoms: C_18  and  C_20
REMARK    4  A    between atoms: C_18  and  C_25
REMARK    5  A    between atoms: C_20  and  C_21
REMARK    6  A    between atoms: C_21  and  C_22
REMARK                            x       y       z     vdW  Elec       q    Type
REMARK                         _______ _______ _______ _____ _____    ______ ____
ROOT
ATOM      1  C   UNL     1       3.534  -2.776  -1.283  0.00  0.00    +0.039 C 
ATOM      2  C   UNL     1       4.295  -3.872  -1.181  0.00  0.00    +0.076 C 
ATOM      3  C   UNL     1       4.798  -4.566   0.031  0.00  0.00    +0.259 C 
ATOM      4  O   UNL     1       4.542  -4.167   1.151  0.00  0.00    -0.269 OA
ATOM      5  N   UNL     1       5.538  -5.643  -0.172  0.00  0.00    -0.241 N 
ATOM      6  C   UNL     1       5.819  -6.082  -1.416  0.00  0.00    +0.121 C 
ATOM      7  S   UNL     1       6.750  -7.443  -1.876  0.00  0.00    -0.027 S 
ATOM      8  S   UNL     1       4.979  -4.908  -2.467  0.00  0.00    -0.061 S 
ENDROOT
BRANCH   1  14
ATOM      9  C   UNL     1      -0.016   1.344   0.009  0.00  0.00    +0.002 A 
ATOM     10  C   UNL     1       1.158   2.118   0.002  0.00  0.00    +0.002 A 
ATOM     11  C   UNL     1       2.389   1.570  -0.013  0.00  0.00    +0.027 A 
ATOM     12  C   UNL     1       2.533   0.108  -0.022  0.00  0.00    +0.060 A 
ATOM     13  N   UNL     1       3.569  -0.680  -0.036  0.00  0.00    -0.360 N 
ATOM     14  C   UNL     1       3.071  -2.062  -0.039  0.00  0.00    +0.200 C 
ATOM     15  N   UNL     1       1.606  -1.974  -0.024  0.00  0.00    -0.360 N 
ATOM     16  C   UNL     1       1.290  -0.712  -0.014  0.00  0.00    +0.060 A 
ATOM     17  C   UNL     1       0.002  -0.004   0.002  0.00  0.00    +0.027 A 
ATOM     18  H   UNL     1       4.499  -0.405  -0.045  0.00  0.00    +0.162 HD
ATOM     19  H   UNL     1       0.987  -2.721  -0.022  0.00  0.00    +0.162 HD
ENDBRANCH   1  14
BRANCH   5  20
ATOM     20  C   UNL     1       6.067  -6.375   0.981  0.00  0.00    +0.196 C 
BRANCH  20  21
ATOM     21  C   UNL     1       5.548  -7.790   0.958  0.00  0.00    +0.376 C 
ATOM     22  O   UNL     1       4.960  -8.208  -0.025  0.00  0.00    -0.244 OA
ATOM     23  O   UNL     1       5.718  -8.517   1.922  0.00  0.00    -0.244 OA
ENDBRANCH  20  21
BRANCH  20  24
ATOM     24  C   UNL     1       7.595  -6.391   0.918  0.00  0.00    +0.044 C 
BRANCH  24  25
ATOM     25  C   UNL     1       8.127  -4.964   1.067  0.00  0.00    +0.098 C 
BRANCH  25  26
ATOM     26  C   UNL     1       9.632  -4.980   1.005  0.00  0.00    +0.211 C 
ATOM     27  O   UNL     1      10.222  -6.029   0.857  0.00  0.00    -0.276 OA
ATOM     28  N   UNL     1      10.323  -3.828   1.115  0.00  0.00    -0.329 N 
ATOM     29  H   UNL     1       9.851  -2.989   1.233  0.00  0.00    +0.145 HD
ATOM     30  H   UNL     1      11.292  -3.838   1.075  0.00  0.00    +0.145 HD
ENDBRANCH  25  26
ENDBRANCH  24  25
ENDBRANCH  20  24
ENDBRANCH   5  20
TORSDOF 6
