REMARK  Name = ZINC51998248
REMARK  8 active torsions:
REMARK  status: ('A' for Active; 'I' for Inactive)
REMARK    1  A    between atoms: C_1  and  C_2
REMARK    2  A    between atoms: C_2  and  C_3
REMARK    3  A    between atoms: C_3  and  O_4
REMARK    4  A    between atoms: O_4  and  C_5
REMARK    5  A    between atoms: C_10  and  C_11
REMARK    6  A    between atoms: C_11  and  N_12
REMARK    7  A    between atoms: N_12  and  C_13
REMARK    8  A    between atoms: C_19  and  O_21
REMARK                            x       y       z     vdW  Elec       q    Type
REMARK                         _______ _______ _______ _____ _____    ______ ____
ROOT
ATOM      1  C   UNL     1       0.810  -4.764   1.237  0.00  0.00    -0.043 C 
ENDROOT
BRANCH   1   7
ATOM      2  C   UNL     1       1.385  -2.554   2.273  0.00  0.00    +0.122 A 
ATOM      3  C   UNL     1       1.962  -1.797   3.283  0.00  0.00    +0.047 A 
ATOM      4  C   UNL     1       2.595  -2.423   4.338  0.00  0.00    +0.019 A 
ATOM      5  C   UNL     1       2.655  -3.805   4.389  0.00  0.00    +0.018 A 
ATOM      6  C   UNL     1       2.082  -4.561   3.384  0.00  0.00    +0.020 A 
ATOM      7  C   UNL     1       1.442  -3.939   2.329  0.00  0.00    -0.022 A 
ATOM      8 BR   UNL     1       3.523  -4.660   5.836  0.00  0.00    -0.050 Br
BRANCH   2   9
ATOM      9  O   UNL     1       0.761  -1.940   1.234  0.00  0.00    -0.492 OA
BRANCH   9  10
ATOM     10  C   UNL     1       0.742  -0.511   1.242  0.00  0.00    +0.229 C 
BRANCH  10  12
ATOM     11  C   UNL     1      -0.019   1.526   0.010  0.00  0.00    +0.007 C 
ATOM     12  C   UNL     1       0.002  -0.004   0.002  0.00  0.00    +0.038 C 
ENDBRANCH  10  12
ENDBRANCH   9  10
ENDBRANCH   2   9
ENDBRANCH   1   7
BRANCH   1  13
ATOM     13  N   UNL     1       1.710  -4.811   0.077  0.00  0.00    +0.385 N 
ATOM     14  H   UNL     1       1.873  -3.874  -0.261  0.00  0.00    -0.085 HD
ATOM     15  H   UNL     1       2.588  -5.228   0.349  0.00  0.00    -0.085 HD
BRANCH  13  16
ATOM     16  C   UNL     1       1.095  -5.615  -0.987  0.00  0.00    -0.042 C 
ATOM     17  C   UNL     1       0.962  -7.066  -0.519  0.00  0.00    -0.013 C 
ATOM     18  C   UNL     1       0.321  -7.903  -1.627  0.00  0.00    -0.001 C 
ATOM     19  C   UNL     1       1.200  -7.850  -2.879  0.00  0.00    +0.002 C 
ATOM     20  C   UNL     1       1.332  -6.399  -3.348  0.00  0.00    +0.030 C 
ATOM     21  C   UNL     1       1.973  -5.562  -2.239  0.00  0.00    +0.101 C 
BRANCH  21  22
ATOM     22  O   UNL     1       3.268  -6.084  -1.935  0.00  0.00    -0.393 OA
ATOM     23  H   UNL     1       3.879  -6.081  -2.685  0.00  0.00    +0.210 HD
ENDBRANCH  21  22
ENDBRANCH  13  16
ENDBRANCH   1  13
TORSDOF 7
