REMARK  Name = ZINC09442179
REMARK  11 active torsions:
REMARK  status: ('A' for Active; 'I' for Inactive)
REMARK    1  A    between atoms: C_1  and  C_2
REMARK    2  A    between atoms: C_5  and  N_8
REMARK    3  A    between atoms: C_11  and  C_16
REMARK    4  A    between atoms: C_16  and  N_53
REMARK    5  A    between atoms: C_17  and  C_19
REMARK    6  A    between atoms: C_17  and  C_21
REMARK    7  A    between atoms: C_17  and  N_53
REMARK    8  A    between atoms: C_19  and  O_20
REMARK    9  A    between atoms: C_21  and  C_23
REMARK   10  A    between atoms: C_21  and  O_32
REMARK   11  A    between atoms: C_26  and  N_29
REMARK                            x       y       z     vdW  Elec       q    Type
REMARK                         _______ _______ _______ _____ _____    ______ ____
ROOT
ATOM      1  C   UNK A   0       3.239   7.463   0.724  0.00  0.00    -0.004 C 
ENDROOT
BRANCH   1   5
ATOM      2  N   UNK A   0       0.360   3.626   0.831  0.00  0.00    -0.284 N 
ATOM      3  C   UNK A   0       1.635   4.154   0.887  0.00  0.00    +0.224 A 
ATOM      4  N   UNK A   0       1.817   5.468   0.786  0.00  0.00    -0.201 NA
ATOM      5  C   UNK A   0       3.037   5.974   0.840  0.00  0.00    +0.119 A 
ATOM      6  N   UNK A   0       4.080   5.178   0.994  0.00  0.00    -0.202 NA
ATOM      7  C   UNK A   0       3.906   3.862   1.096  0.00  0.00    +0.217 A 
ATOM      8  N   UNK A   0       2.681   3.350   1.047  0.00  0.00    -0.181 NA
ATOM      9  N   UNK A   0       4.996   3.031   1.258  0.00  0.00    -0.327 N 
ATOM     10  H   UNK A   0      -0.409   4.217   0.804  0.00  0.00    +0.155 HD
ATOM     11  H   UNK A   0       5.890   3.406   1.297  0.00  0.00    +0.145 HD
ATOM     12  H   UNK A   0       4.868   2.073   1.332  0.00  0.00    +0.145 HD
BRANCH   2  17
ATOM     13  C   UNK A   0      -0.383  -1.997   0.760  0.00  0.00    +0.044 C 
ATOM     14  C   UNK A   0      -0.186  -0.503   0.779  0.00  0.00    -0.050 A 
ATOM     15  C   UNK A   0      -1.082   0.303   1.457  0.00  0.00    +0.005 A 
ATOM     16  C   UNK A   0      -0.903   1.672   1.477  0.00  0.00    +0.023 A 
ATOM     17  C   UNK A   0       0.177   2.240   0.814  0.00  0.00    +0.034 A 
ATOM     18  C   UNK A   0       1.075   1.428   0.134  0.00  0.00    +0.023 A 
ATOM     19  C   UNK A   0       0.891   0.059   0.118  0.00  0.00    +0.005 A 
ENDBRANCH   2  17
ENDBRANCH   1   5
BRANCH   1  20
ATOM     20  N   UNK A   1       3.192   8.063   2.071  0.00  0.00    +0.389 N 
ATOM     21  H   UNK A   1       3.935   7.654   2.650  0.00  0.00    -0.085 HD
ATOM     22  H   UNK A   1       2.279   7.867   2.498  0.00  0.00    -0.085 HD
BRANCH  20  23
ATOM     23  C   UNK A   1       3.387   9.523   1.989  0.00  0.00    -0.012 C 
BRANCH  23  24
ATOM     24  C   UNK A   1       2.045  10.202   1.708  0.00  0.00    +0.143 C 
BRANCH  24  25
ATOM     25  O   UNK A   1       1.158   9.977   2.806  0.00  0.00    -0.397 OA
ATOM     26  H   UNK A   1       0.286  10.381   2.696  0.00  0.00    +0.209 HD
ENDBRANCH  24  25
ENDBRANCH  23  24
BRANCH  23  27
ATOM     27  C   UNK A   1       3.947  10.030   3.319  0.00  0.00    +0.133 C 
BRANCH  27  28
ATOM     28  C   UNK A   1       5.319   9.448   3.542  0.00  0.00    -0.020 A 
ATOM     29  C   UNK A   1       6.428  10.059   2.987  0.00  0.00    +0.008 A 
ATOM     30  C   UNK A   1       7.687   9.528   3.195  0.00  0.00    +0.033 A 
ATOM     31  C   UNK A   1       7.836   8.379   3.949  0.00  0.00    +0.126 A 
ATOM     32  C   UNK A   1       6.727   7.764   4.499  0.00  0.00    +0.033 A 
ATOM     33  C   UNK A   1       5.468   8.299   4.295  0.00  0.00    +0.008 A 
BRANCH  31  34
ATOM     34  N   UNK A   1       9.183   7.806   4.167  0.00  0.00    +0.056 N 
ATOM     35  O   UNK A   1       9.315   6.793   4.831  0.00  0.00    -0.126 OA
ATOM     36  O   UNK A   1      10.161   8.348   3.682  0.00  0.00    -0.126 OA
ENDBRANCH  31  34
ENDBRANCH  27  28
BRANCH  27  37
ATOM     37  O   UNK A   1       4.035  11.456   3.286  0.00  0.00    -0.389 OA
ATOM     38  H   UNK A   1       4.525  11.803   2.528  0.00  0.00    +0.210 HD
ENDBRANCH  27  37
ENDBRANCH  23  27
ENDBRANCH  20  23
ENDBRANCH   1  20
TORSDOF 10
