REMARK  Name = ZINC06606203
REMARK  11 active torsions:
REMARK  status: ('A' for Active; 'I' for Inactive)
REMARK    1  A    between atoms: C_1  and  C_2
REMARK    2  A    between atoms: C_5  and  N_9
REMARK    3  A    between atoms: C_6  and  C_8
REMARK    4  A    between atoms: C_13  and  C_15
REMARK    5  A    between atoms: C_15  and  N_57
REMARK    6  A    between atoms: C_16  and  N_57
REMARK    7  A    between atoms: C_17  and  C_18
REMARK    8  A    between atoms: C_17  and  N_57
REMARK    9  A    between atoms: N_20  and  C_21
REMARK   10  A    between atoms: C_25  and  C_28
REMARK   11  A    between atoms: C_26  and  C_27
REMARK                            x       y       z     vdW  Elec       q    Type
REMARK                         _______ _______ _______ _____ _____    ______ ____
ROOT
ATOM      1  C   UNL     1       1.527   3.781   0.304  0.00  0.00    +0.019 C 
ENDROOT
BRANCH   1   6
ATOM      2  N   UNL     1       4.967   7.036   1.129  0.00  0.00    -0.269 N 
ATOM      3  C   UNL     1       4.619   5.754   0.904  0.00  0.00    +0.310 C 
ATOM      4  O   UNL     1       5.474   4.891   0.862  0.00  0.00    -0.252 OA
ATOM      5  N   UNL     1       3.323   5.428   0.727  0.00  0.00    -0.241 N 
ATOM      6  C   UNL     1       2.976   4.145   0.503  0.00  0.00    +0.204 C 
ATOM      7  O   UNL     1       3.828   3.284   0.460  0.00  0.00    -0.277 OA
ATOM      8  H   UNL     1       4.280   7.714   1.232  0.00  0.00    +0.156 HD
ATOM      9  H   UNL     1       2.641   6.116   0.761  0.00  0.00    +0.159 HD
BRANCH   2  14
ATOM     10  C   UNL     1      10.444   8.471   1.472  0.00  0.00    +0.044 C 
ATOM     11  C   UNL     1       8.989   8.090   1.381  0.00  0.00    -0.050 A 
ATOM     12  C   UNL     1       8.566   6.864   1.860  0.00  0.00    +0.005 A 
ATOM     13  C   UNL     1       7.233   6.512   1.778  0.00  0.00    +0.024 A 
ATOM     14  C   UNL     1       6.318   7.390   1.214  0.00  0.00    +0.038 A 
ATOM     15  C   UNL     1       6.747   8.619   0.729  0.00  0.00    -0.029 A 
ATOM     16  C   UNL     1       8.080   8.967   0.819  0.00  0.00    +0.008 A 
ATOM     17  C   UNL     1       5.758   9.573   0.110  0.00  0.00    +0.045 C 
ENDBRANCH   2  14
ENDBRANCH   1   6
BRANCH   1  19
ATOM     18  C   UNL     1       2.046   1.947  -1.188  0.00  0.00    -0.095 C 
ATOM     19  N   UNL     1       1.426   2.320   0.100  0.00  0.00    +0.389 N 
ATOM     20  H   UNL     1       1.923   1.842   0.861  0.00  0.00    -0.081 HD
BRANCH  19  21
ATOM     21  C   UNL     1       0.008   1.904   0.117  0.00  0.00    +0.019 C 
BRANCH  21  22
ATOM     22  C   UNL     1      -0.057   0.399   0.129  0.00  0.00    +0.201 C 
ATOM     23  O   UNL     1       0.966  -0.253   0.107  0.00  0.00    -0.278 OA
ATOM     24  N   UNL     1      -1.252  -0.224   0.163  0.00  0.00    -0.287 N 
ATOM     25  H   UNL     1      -2.066   0.294   0.262  0.00  0.00    +0.155 HD
BRANCH  24  26
ATOM     26  C   UNL     1      -1.318  -1.618   0.057  0.00  0.00    +0.036 A 
ATOM     27  C   UNL     1      -0.299  -2.316  -0.578  0.00  0.00    +0.023 A 
ATOM     28  C   UNL     1      -0.367  -3.691  -0.682  0.00  0.00    +0.002 A 
ATOM     29  C   UNL     1      -1.448  -4.373  -0.154  0.00  0.00    +0.004 A 
ATOM     30  C   UNL     1      -2.464  -3.681   0.479  0.00  0.00    -0.046 A 
ATOM     31  C   UNL     1      -2.399  -2.306   0.591  0.00  0.00    -0.026 A 
ATOM     32  C   UNL     1      -3.503  -1.553   1.286  0.00  0.00    +0.046 C 
ATOM     33  C   UNL     1      -3.640  -4.428   1.053  0.00  0.00    +0.044 C 
ENDBRANCH  24  26
ENDBRANCH  21  22
ENDBRANCH  19  21
ENDBRANCH   1  19
TORSDOF 6
