REMARK  Name = ZINC61271270
REMARK  7 active torsions:
REMARK  status: ('A' for Active; 'I' for Inactive)
REMARK    1  A    between atoms: C_1  and  C_2
REMARK    2  A    between atoms: C_2  and  N_3
REMARK    3  A    between atoms: N_3  and  C_4
REMARK    4  A    between atoms: C_4  and  C_6
REMARK    5  A    between atoms: C_4  and  C_7
REMARK    6  A    between atoms: C_7  and  C_8
REMARK    7  A    between atoms: N_10  and  C_11
REMARK                            x       y       z     vdW  Elec       q    Type
REMARK                         _______ _______ _______ _____ _____    ______ ____
ROOT
ATOM      1  C   UNL     1       2.971  -2.027  -2.228  0.00  0.00    +0.216 C 
ATOM      2  O   UNL     1       3.305  -1.395  -1.248  0.00  0.00    -0.276 OA
ATOM      3  N   UNL     1       3.885  -2.348  -3.166  0.00  0.00    -0.284 N 
ATOM      4  H   UNL     1       3.633  -2.908  -3.917  0.00  0.00    +0.155 HD
ENDROOT
BRANCH   3   5
ATOM      5  C   UNL     1       5.197  -1.872  -3.057  0.00  0.00    +0.052 A 
ATOM      6  C   UNL     1       5.782  -1.727  -1.806  0.00  0.00    +0.026 A 
ATOM      7  C   UNL     1       7.077  -1.258  -1.701  0.00  0.00    +0.016 A 
ATOM      8  C   UNL     1       7.791  -0.932  -2.841  0.00  0.00    +0.015 A 
ATOM      9  C   UNL     1       7.212  -1.075  -4.088  0.00  0.00    +0.036 A 
ATOM     10  C   UNL     1       5.918  -1.550  -4.200  0.00  0.00    +0.063 A 
ATOM     11 CL   UNL     1       5.193  -1.736  -5.766  0.00  0.00    -0.082 Cl
ATOM     12  I   UNL     1       9.755  -0.219  -2.676  0.00  0.00    -0.044 I 
ENDBRANCH   3   5
BRANCH   1  13
ATOM     13  C   UNL     1       1.536  -2.454  -2.397  0.00  0.00    +0.080 C 
BRANCH  13  14
ATOM     14  C   UNL     1       0.715  -1.966  -1.202  0.00  0.00    -0.066 C 
ATOM     15  C   UNL     1      -0.713  -2.505  -1.311  0.00  0.00    -0.013 C 
BRANCH  14  16
ATOM     16  N   UNL     1       0.685  -0.497  -1.196  0.00  0.00    +0.381 N 
ATOM     17  H   UNL     1       0.192  -0.167  -2.011  0.00  0.00    -0.086 HD
ATOM     18  H   UNL     1       1.629  -0.142  -1.207  0.00  0.00    -0.086 HD
BRANCH  16  20
ATOM     19  C   UNL     1      -0.032   1.503   0.022  0.00  0.00    -0.017 C 
ATOM     20  C   UNL     1      -0.001  -0.027   0.015  0.00  0.00    -0.086 C 
ENDBRANCH  16  20
ENDBRANCH  14  16
ENDBRANCH  13  14
ENDBRANCH   1  13
TORSDOF 5
