REMARK  Name = ZINC09477435
REMARK  8 active torsions:
REMARK  status: ('A' for Active; 'I' for Inactive)
REMARK    1  A    between atoms: C_1  and  N_52
REMARK    2  A    between atoms: C_2  and  C_3
REMARK    3  A    between atoms: C_2  and  N_52
REMARK    4  A    between atoms: C_9  and  N_10
REMARK    5  A    between atoms: C_9  and  N_52
REMARK    6  A    between atoms: C_13  and  C_17
REMARK    7  A    between atoms: C_13  and  C_24
REMARK    8  A    between atoms: C_17  and  C_18
REMARK                            x       y       z     vdW  Elec       q    Type
REMARK                         _______ _______ _______ _____ _____    ______ ____
ROOT
ATOM      1  N   UNL     1       1.474   0.922  -3.227  0.00  0.00    -0.241 N 
ATOM      2  C   UNL     1       1.831   0.086  -2.232  0.00  0.00    +0.250 C 
ATOM      3  O   UNL     1       1.376  -1.014  -2.001  0.00  0.00    -0.272 OA
ATOM      4  C   UNL     1       2.922   0.806  -1.464  0.00  0.00    +0.142 C 
ATOM      5  N   UNL     1       3.065   2.084  -2.182  0.00  0.00    -0.281 N 
ATOM      6  C   UNL     1       2.179   2.058  -3.194  0.00  0.00    +0.308 C 
ATOM      7  O   UNL     1       2.035   2.966  -3.989  0.00  0.00    -0.252 OA
ATOM      8  H   UNL     1       3.679   2.804  -1.967  0.00  0.00    +0.152 HD
ENDROOT
BRANCH   4   9
ATOM      9  C   UNL     1       4.210   0.025  -1.508  0.00  0.00    -0.015 A 
ATOM     10  C   UNL     1       4.513  -0.867  -0.496  0.00  0.00    +0.006 A 
ATOM     11  C   UNL     1       5.692  -1.586  -0.539  0.00  0.00    +0.000 A 
ATOM     12  C   UNL     1       6.574  -1.406  -1.589  0.00  0.00    +0.000 A 
ATOM     13  C   UNL     1       6.273  -0.511  -2.598  0.00  0.00    +0.000 A 
ATOM     14  C   UNL     1       5.091   0.205  -2.557  0.00  0.00    +0.006 A 
ENDBRANCH   4   9
BRANCH   1  15
ATOM     15  C   UNL     1       0.441   0.623  -4.221  0.00  0.00    +0.043 C 
BRANCH  15  17
ATOM     16  C   UNL     1       1.677   0.929  -6.280  0.00  0.00    -0.093 C 
ATOM     17  N   UNL     1       1.073  -0.064  -5.367  0.00  0.00    +0.392 N 
ATOM     18  H   UNL     1       1.810  -0.687  -5.017  0.00  0.00    -0.079 HD
BRANCH  17  19
ATOM     19  C   UNL     1       0.067  -0.870  -6.090  0.00  0.00    -0.034 C 
BRANCH  19  20
ATOM     20  C   UNL     1       0.773  -1.726  -7.110  0.00  0.00    -0.026 A 
ATOM     21  C   UNL     1       1.287  -2.972  -6.968  0.00  0.00    +0.010 A 
ATOM     22  C   UNL     1       1.899  -3.573  -8.053  0.00  0.00    +0.023 A 
ATOM     23  C   UNL     1       1.965  -2.897  -9.227  0.00  0.00    +0.055 A 
ATOM     24  S   UNL     1       1.141  -1.367  -8.819  0.00  0.00    -0.088 S 
ATOM     25 BR   UNL     1       2.726  -3.438 -10.872  0.00  0.00    -0.043 Br
ENDBRANCH  19  20
ENDBRANCH  17  19
ENDBRANCH  15  17
ENDBRANCH   1  15
BRANCH   4  26
ATOM     26  C   UNL     1       2.490   1.048  -0.016  0.00  0.00    +0.075 C 
BRANCH  26  27
ATOM     27  C   UNL     1       1.175   1.783   0.000  0.00  0.00    -0.045 A 
ATOM     28  C   UNL     1      -0.013   1.076   0.008  0.00  0.00    +0.004 A 
ATOM     29  C   UNL     1      -1.219   1.751   0.017  0.00  0.00    +0.000 A 
ATOM     30  C   UNL     1      -1.238   3.133   0.029  0.00  0.00    +0.000 A 
ATOM     31  C   UNL     1      -0.050   3.840   0.022  0.00  0.00    +0.000 A 
ATOM     32  C   UNL     1       1.156   3.165   0.008  0.00  0.00    +0.004 A 
ENDBRANCH  26  27
ENDBRANCH   4  26
TORSDOF 7
