REMARK  Name = ZINC38904143
REMARK  5 active torsions:
REMARK  status: ('A' for Active; 'I' for Inactive)
REMARK    1  A    between atoms: C_1  and  C_2
REMARK    2  A    between atoms: C_4  and  C_16
REMARK    3  A    between atoms: C_6  and  C_14
REMARK    4  A    between atoms: C_7  and  N_13
REMARK    5  A    between atoms: C_21  and  O_22
REMARK                            x       y       z     vdW  Elec       q    Type
REMARK                         _______ _______ _______ _____ _____    ______ ____
ROOT
ATOM      1  C   UNL     1      -0.018   1.503   0.010  0.00  0.00    +0.067 C 
ATOM      2  C   UNL     1       0.002  -0.004   0.002  0.00  0.00    +0.066 C 
ATOM      3  C   UNL     1      -1.064  -0.768   0.003  0.00  0.00    +0.030 C 
ATOM      4  C   UNL     1      -2.537  -0.492  -0.122  0.00  0.00    +0.101 C 
ATOM      5  C   UNL     1      -3.075  -1.565  -1.050  0.00  0.00    +0.098 C 
ATOM      6  C   UNL     1      -2.317  -2.612  -1.438  0.00  0.00    +0.195 C 
ATOM      7  O   UNL     1      -1.033  -2.841  -1.107  0.00  0.00    -0.448 OA
ATOM      8  C   UNL     1      -0.528  -2.199   0.066  0.00  0.00    +0.343 C 
ATOM      9  N   UNL     1       0.921  -1.985   0.002  0.00  0.00    -0.138 NA
ATOM     10  N   UNL     1       1.127  -0.765  -0.013  0.00  0.00    -0.155 NA
ENDROOT
BRANCH   4  11
ATOM     11  C   UNL     1      -2.762   0.875  -0.717  0.00  0.00    +0.009 A 
ATOM     12  C   UNL     1      -2.275   1.170  -1.976  0.00  0.00    +0.028 A 
ATOM     13  C   UNL     1      -2.481   2.424  -2.522  0.00  0.00    +0.043 A 
ATOM     14  C   UNL     1      -3.175   3.386  -1.810  0.00  0.00    +0.043 A 
ATOM     15  C   UNL     1      -3.663   3.095  -0.550  0.00  0.00    +0.084 A 
ATOM     16  C   UNL     1      -3.463   1.835  -0.003  0.00  0.00    +0.139 A 
ATOM     17 CL   UNL     1      -4.533   4.302   0.345  0.00  0.00    -0.080 Cl
ATOM     18 CL   UNL     1      -1.868   2.791  -4.104  0.00  0.00    -0.083 Cl
BRANCH  16  19
ATOM     19  O   UNL     1      -3.947   1.544   1.234  0.00  0.00    -0.505 OA
ATOM     20  H   UNL     1      -3.333   1.742   1.954  0.00  0.00    +0.292 HD
ENDBRANCH  16  19
ENDBRANCH   4  11
BRANCH   6  21
ATOM     21  N   UNL     1      -2.917  -3.538  -2.254  0.00  0.00    -0.329 N 
ATOM     22  H   UNL     1      -3.842  -3.421  -2.523  0.00  0.00    +0.145 HD
ATOM     23  H   UNL     1      -2.417  -4.310  -2.562  0.00  0.00    +0.145 HD
ENDBRANCH   6  21
BRANCH   5  24
ATOM     24  C   UNL     1      -4.422  -1.466  -1.525  0.00  0.00    +0.101 C 
ATOM     25  N   UNL     1      -5.491  -1.387  -1.903  0.00  0.00    -0.191 NA
ENDBRANCH   5  24
TORSDOF 4
