REMARK  Name = ZINC63835494
REMARK  6 active torsions:
REMARK  status: ('A' for Active; 'I' for Inactive)
REMARK    1  A    between atoms: C_1  and  S_2
REMARK    2  A    between atoms: S_2  and  N_5
REMARK    3  A    between atoms: C_8  and  N_11
REMARK    4  A    between atoms: N_11  and  C_12
REMARK    5  A    between atoms: C_12  and  C_13
REMARK    6  A    between atoms: C_13  and  O_24
REMARK                            x       y       z     vdW  Elec       q    Type
REMARK                         _______ _______ _______ _____ _____    ______ ____
ROOT
ATOM      1  C   UNL     1       3.706  -3.463  -4.203  0.00  0.00    -0.049 C 
ENDROOT
BRANCH   1   2
ATOM      2  C   UNL     1       4.058  -4.822  -4.811  0.00  0.00    +0.039 C 
ATOM      3  C   UNL     1       3.538  -5.936  -3.901  0.00  0.00    +0.029 C 
ATOM      4  C   UNL     1       4.249  -5.835  -2.547  0.00  0.00    -0.016 C 
ATOM      5  C   UNL     1       5.757  -5.939  -2.773  0.00  0.00    -0.078 C 
ATOM      6  N   UNL     1       6.217  -4.844  -3.639  0.00  0.00    +0.383 N 
ATOM      7  C   UNL     1       5.579  -4.937  -4.956  0.00  0.00    -0.038 C 
ATOM      8  C   UNL     1       6.060  -3.794  -5.855  0.00  0.00    -0.013 C 
ATOM      9  C   UNL     1       7.581  -3.861  -6.008  0.00  0.00    -0.003 C 
ATOM     10  C   UNL     1       8.217  -3.798  -4.615  0.00  0.00    -0.019 C 
ATOM     11  C   UNL     1       7.677  -4.954  -3.773  0.00  0.00    -0.078 C 
ATOM     12  H   UNL     1       5.984  -3.959  -3.214  0.00  0.00    -0.081 HD
BRANCH   2  13
ATOM     13  O   UNL     1       3.448  -4.938  -6.098  0.00  0.00    -0.392 OA
ATOM     14  H   UNL     1       2.483  -4.873  -6.084  0.00  0.00    +0.210 HD
ENDBRANCH   2  13
ENDBRANCH   1   2
BRANCH   1  15
ATOM     15  N   UNL     1       2.260  -3.397  -3.953  0.00  0.00    +0.383 N 
ATOM     16  H   UNL     1       1.996  -4.131  -3.313  0.00  0.00    -0.085 HD
ATOM     17  H   UNL     1       1.763  -3.515  -4.823  0.00  0.00    -0.085 HD
BRANCH  15  21
ATOM     18  N   UNL     1       0.795  -0.411  -1.394  0.00  0.00    -0.182 NA
ATOM     19  C   UNL     1       0.053  -0.601  -2.648  0.00  0.00    +0.107 C 
ATOM     20  C   UNL     1       0.403  -1.976  -3.225  0.00  0.00    +0.001 C 
ATOM     21  C   UNL     1       1.922  -2.092  -3.369  0.00  0.00    -0.069 C 
ATOM     22  C   UNL     1       2.579  -1.965  -1.993  0.00  0.00    +0.001 C 
ATOM     23  C   UNL     1       2.254  -0.584  -1.403  0.00  0.00    +0.107 C 
BRANCH  18  25
ATOM     24  C   UNL     1      -0.022   1.810   0.012  0.00  0.00    +0.215 C 
ATOM     25  S   UNL     1       0.002  -0.004   0.002  0.00  0.00    +0.029 S 
ATOM     26  O   UNL     1       0.835  -0.488   1.046  0.00  0.00    -0.158 OA
ATOM     27  O   UNL     1      -1.315  -0.510  -0.168  0.00  0.00    -0.158 OA
ENDBRANCH  18  25
ENDBRANCH  15  21
ENDBRANCH   1  15
TORSDOF 5
