REMARK  Name = ZINC07917918
REMARK  13 active torsions:
REMARK  status: ('A' for Active; 'I' for Inactive)
REMARK    1  A    between atoms: C_1  and  C_2
REMARK    2  A    between atoms: C_2  and  C_3
REMARK    3  A    between atoms: C_2  and  C_4
REMARK    4  A    between atoms: C_2  and  C_5
REMARK    5  A    between atoms: C_8  and  C_11
REMARK    6  A    between atoms: C_11  and  N_12
REMARK    7  A    between atoms: N_12  and  C_13
REMARK    8  A    between atoms: N_12  and  C_14
REMARK    9  A    between atoms: C_14  and  C_15
REMARK   10  A    between atoms: N_17  and  C_18
REMARK   11  A    between atoms: C_23  and  S_24
REMARK   12  A    between atoms: S_24  and  C_25
REMARK   13  A    between atoms: C_25  and  C_26
REMARK                            x       y       z     vdW  Elec       q    Type
REMARK                         _______ _______ _______ _____ _____    ______ ____
ROOT
ATOM      1  C   UNL     1       2.802  -0.485  -8.215  0.00  0.00    +0.201 C 
ATOM      2  O   UNL     1       2.170   0.530  -8.012  0.00  0.00    -0.278 OA
ATOM      3  N   UNL     1       3.246  -0.766  -9.456  0.00  0.00    -0.286 N 
ATOM      4  H   UNL     1       3.819  -1.535  -9.604  0.00  0.00    +0.155 HD
ENDROOT
BRANCH   3   5
ATOM      5  C   UNL     1       2.880   0.053 -10.533  0.00  0.00    +0.047 A 
ATOM      6  C   UNL     1       1.715   0.801 -10.473  0.00  0.00    +0.024 A 
ATOM      7  C   UNL     1       1.356   1.609 -11.536  0.00  0.00    +0.002 A 
ATOM      8  C   UNL     1       2.156   1.673 -12.662  0.00  0.00    +0.001 A 
ATOM      9  C   UNL     1       3.320   0.930 -12.732  0.00  0.00    +0.016 A 
ATOM     10  C   UNL     1       3.691   0.122 -11.666  0.00  0.00    +0.030 A 
BRANCH  10  11
ATOM     11  S   UNL     1       5.177  -0.821 -11.748  0.00  0.00    -0.114 S 
BRANCH  11  12
ATOM     12  C   UNL     1       5.869  -0.409 -13.374  0.00  0.00    +0.169 C 
BRANCH  12  13
ATOM     13  C   UNL     1       7.160  -1.159 -13.575  0.00  0.00    +0.221 C 
ATOM     14  O   UNL     1       7.574  -1.898 -12.707  0.00  0.00    -0.275 OA
ATOM     15  N   UNL     1       7.856  -1.008 -14.720  0.00  0.00    -0.329 N 
ATOM     16  H   UNL     1       7.525  -0.417 -15.414  0.00  0.00    +0.145 HD
ATOM     17  H   UNL     1       8.688  -1.491 -14.849  0.00  0.00    +0.145 HD
ENDBRANCH  12  13
ENDBRANCH  11  12
ENDBRANCH  10  11
ENDBRANCH   3   5
BRANCH   1  18
ATOM     18  C   UNL     1       3.091  -1.432  -7.079  0.00  0.00    +0.019 C 
BRANCH  18  19
ATOM     19  N   UNL     1       2.505  -0.904  -5.840  0.00  0.00    +0.386 N 
ATOM     20  C   UNL     1       3.175   0.352  -5.478  0.00  0.00    -0.095 C 
ATOM     21  H   UNL     1       1.521  -0.733  -5.980  0.00  0.00    -0.081 HD
BRANCH  19  22
ATOM     22  C   UNL     1       2.683  -1.883  -4.758  0.00  0.00    -0.043 C 
BRANCH  22  26
ATOM     23  C   UNL     1       0.678  -0.506  -1.246  0.00  0.00    -0.042 A 
ATOM     24  C   UNL     1       0.005  -1.293  -2.163  0.00  0.00    +0.004 A 
ATOM     25  C   UNL     1       0.654  -1.738  -3.299  0.00  0.00    +0.002 A 
ATOM     26  C   UNL     1       1.975  -1.397  -3.520  0.00  0.00    -0.064 A 
ATOM     27  C   UNL     1       2.647  -0.609  -2.604  0.00  0.00    +0.002 A 
ATOM     28  C   UNL     1       1.998  -0.160  -1.470  0.00  0.00    +0.004 A 
BRANCH  23  30
ATOM     29  C   UNL     1      -0.041   1.509   0.007  0.00  0.00    +0.015 C 
ATOM     30  C   UNL     1      -0.029  -0.021  -0.007  0.00  0.00    -0.013 C 
ATOM     31  C   UNL     1       0.703  -0.537   1.233  0.00  0.00    +0.015 C 
ATOM     32  C   UNL     1      -1.468  -0.542  -0.004  0.00  0.00    +0.015 C 
ENDBRANCH  23  30
ENDBRANCH  22  26
ENDBRANCH  19  22
ENDBRANCH  18  19
ENDBRANCH   1  18
TORSDOF 9
