REMARK  Name = ZINC62243124
REMARK  5 active torsions:
REMARK  status: ('A' for Active; 'I' for Inactive)
REMARK    1  A    between atoms: C_4  and  C_7
REMARK    2  A    between atoms: C_8  and  C_23
REMARK    3  A    between atoms: N_11  and  C_12
REMARK    4  A    between atoms: C_21  and  O_22
REMARK    5  A    between atoms: C_23  and  N_24
REMARK                            x       y       z     vdW  Elec       q    Type
REMARK                         _______ _______ _______ _____ _____    ______ ____
ROOT
ATOM      1  C   UNL     1       3.688  -0.689  -0.051  0.00  0.00    +0.096 A 
ATOM      2  C   UNL     1       4.744  -0.467  -0.885  0.00  0.00    +0.074 A 
ATOM      3  N   UNL     1       5.731  -1.297  -0.559  0.00  0.00    -0.135 NA
ATOM      4  N   UNL     1       5.380  -2.039   0.432  0.00  0.00    -0.060 NA
ATOM      5  N   UNL     1       4.074  -1.688   0.805  0.00  0.00    -0.212 N 
ENDROOT
BRANCH   5   6
ATOM      6  C   UNL     1       3.317  -2.246   1.841  0.00  0.00    +0.075 A 
ATOM      7  C   UNL     1       2.022  -2.657   1.611  0.00  0.00    +0.028 A 
ATOM      8  C   UNL     1       1.260  -3.213   2.634  0.00  0.00    +0.003 A 
ATOM      9  C   UNL     1       1.772  -3.367   3.887  0.00  0.00    +0.012 A 
ATOM     10  C   UNL     1       3.088  -2.961   4.162  0.00  0.00    +0.026 A 
ATOM     11  C   UNL     1       3.874  -2.398   3.127  0.00  0.00    +0.011 A 
ATOM     12  C   UNL     1       5.192  -1.997   3.402  0.00  0.00    +0.011 A 
ATOM     13  C   UNL     1       5.700  -2.158   4.656  0.00  0.00    +0.004 A 
ATOM     14  C   UNL     1       4.933  -2.716   5.675  0.00  0.00    +0.046 A 
ATOM     15  C   UNL     1       3.644  -3.108   5.449  0.00  0.00    +0.125 A 
BRANCH  15  16
ATOM     16  O   UNL     1       2.908  -3.649   6.454  0.00  0.00    -0.506 OA
ATOM     17  H   UNL     1       2.988  -4.610   6.527  0.00  0.00    +0.292 HD
ENDBRANCH  15  16
ENDBRANCH   5   6
BRANCH   1  21
ATOM     18  C   UNL     1      -0.050   1.329  -0.085  0.00  0.00    +0.000 A 
ATOM     19  C   UNL     1       0.416   0.723  -1.238  0.00  0.00    +0.001 A 
ATOM     20  C   UNL     1       1.630   0.067  -1.234  0.00  0.00    +0.010 A 
ATOM     21  C   UNL     1       2.386   0.014  -0.063  0.00  0.00    +0.002 A 
ATOM     22  C   UNL     1       1.911   0.627   1.097  0.00  0.00    +0.010 A 
ATOM     23  C   UNL     1       0.696   1.280   1.079  0.00  0.00    +0.001 A 
ENDBRANCH   1  21
BRANCH   2  24
ATOM     24  C   UNL     1       4.785   0.551  -1.995  0.00  0.00    -0.026 C 
BRANCH  24  25
ATOM     25  N   UNL     1       5.408   1.787  -1.503  0.00  0.00    +0.382 N 
ATOM     26  H   UNL     1       6.317   1.576  -1.119  0.00  0.00    -0.090 HD
ATOM     27  H   UNL     1       5.508   2.440  -2.266  0.00  0.00    -0.090 HD
ATOM     28  H   UNL     1       4.826   2.194  -0.786  0.00  0.00    -0.090 HD
ENDBRANCH  24  25
ENDBRANCH   2  24
TORSDOF 5
