REMARK  Name = ZINC10751896
REMARK  6 active torsions:
REMARK  status: ('A' for Active; 'I' for Inactive)
REMARK    1  A    between atoms: C_1  and  N_54
REMARK    2  A    between atoms: C_7  and  N_12
REMARK    3  A    between atoms: C_8  and  C_9
REMARK    4  A    between atoms: C_13  and  C_15
REMARK    5  A    between atoms: N_20  and  S_22
REMARK    6  A    between atoms: S_22  and  C_25
REMARK                            x       y       z     vdW  Elec       q    Type
REMARK                         _______ _______ _______ _____ _____    ______ ____
ROOT
ATOM      1  N   UNL     1       1.017  -5.968   1.904  0.00  0.00    -0.279 N 
ATOM      2  C   UNL     1       2.040  -6.248   2.736  0.00  0.00    +0.222 C 
ATOM      3  O   UNL     1       2.726  -5.351   3.177  0.00  0.00    -0.275 OA
ATOM      4  H   UNL     1       0.468  -6.686   1.552  0.00  0.00    +0.155 HD
ENDROOT
BRANCH   1  11
ATOM      5  C   UNL     1      -0.018   1.465   0.010  0.00  0.00    -0.096 C 
ATOM      6  C   UNL     1      -1.363  -0.549   0.020  0.00  0.00    -0.074 C 
ATOM      7  C   UNL     1      -1.342  -2.032  -0.364  0.00  0.00    +0.018 C 
ATOM      8  C   UNL     1      -0.313  -2.736   0.513  0.00  0.00    -0.027 A 
ATOM      9  C   UNL     1       0.625  -2.016   1.169  0.00  0.00    -0.021 A 
ATOM     10  S   UNL     1       1.581  -3.216   2.049  0.00  0.00    -0.079 S 
ATOM     11  C   UNL     1       0.750  -4.654   1.552  0.00  0.00    +0.084 A 
ATOM     12  C   UNL     1      -0.249  -4.170   0.717  0.00  0.00    +0.068 A 
ATOM     13  C   UNL     1       0.789  -0.528   1.134  0.00  0.00    -0.036 C 
ATOM     14  N   UNL     1       0.014  -0.013  -0.021  0.00  0.00    +0.381 N 
ATOM     15  H   UNL     1       0.466  -0.320  -0.890  0.00  0.00    -0.082 HD
BRANCH  12  16
ATOM     16  C   UNL     1      -1.201  -5.075   0.066  0.00  0.00    +0.244 C 
ATOM     17  O   UNL     1      -2.245  -5.362   0.622  0.00  0.00    -0.270 OA
ATOM     18  N   UNL     1      -0.921  -5.589  -1.147  0.00  0.00    -0.325 N 
ATOM     19  H   UNL     1      -0.089  -5.361  -1.591  0.00  0.00    +0.145 HD
ATOM     20  H   UNL     1      -1.551  -6.188  -1.578  0.00  0.00    +0.145 HD
ENDBRANCH  12  16
ENDBRANCH   1  11
BRANCH   2  21
ATOM     21  C   UNL     1       2.330  -7.677   3.119  0.00  0.00    +0.091 C 
ATOM     22  C   UNL     1       1.110  -8.275   3.823  0.00  0.00    +0.015 C 
ATOM     23  C   UNL     1       1.392  -9.736   4.183  0.00  0.00    +0.018 C 
ATOM     24  C   UNL     1       2.584  -9.800   5.142  0.00  0.00    +0.109 C 
ATOM     25  N   UNL     1       3.722  -9.099   4.531  0.00  0.00    -0.175 NA
ATOM     26  C   UNL     1       3.533  -7.718   4.066  0.00  0.00    +0.122 C 
BRANCH  25  27
ATOM     27  S   UNL     1       5.188  -9.851   4.369  0.00  0.00    +0.067 S 
ATOM     28  O   UNL     1       4.930 -11.248   4.364  0.00  0.00    -0.152 OA
ATOM     29  O   UNL     1       5.864  -9.197   3.304  0.00  0.00    -0.152 OA
BRANCH  27  30
ATOM     30  C   UNL     1       6.111  -9.514   5.832  0.00  0.00    +0.144 A 
ATOM     31  C   UNL     1       6.158 -10.215   6.991  0.00  0.00    +0.038 A 
ATOM     32  C   UNL     1       6.965  -9.761   8.018  0.00  0.00    +0.030 A 
ATOM     33  C   UNL     1       7.677  -8.620   7.838  0.00  0.00    +0.080 A 
ATOM     34  S   UNL     1       7.219  -8.157   6.176  0.00  0.00    -0.057 S 
ATOM     35 CL   UNL     1       8.754  -7.819   8.938  0.00  0.00    -0.076 Cl
ENDBRANCH  27  30
ENDBRANCH  25  27
ENDBRANCH   2  21
TORSDOF 5
