REMARK  Name = ZINC12746649
REMARK  8 active torsions:
REMARK  status: ('A' for Active; 'I' for Inactive)
REMARK    1  A    between atoms: C_1  and  C_2
REMARK    2  A    between atoms: C_2  and  N_3
REMARK    3  A    between atoms: N_3  and  C_4
REMARK    4  A    between atoms: N_3  and  C_17
REMARK    5  A    between atoms: C_4  and  C_5
REMARK    6  A    between atoms: C_17  and  C_18
REMARK    7  A    between atoms: N_20  and  C_21
REMARK    8  A    between atoms: C_22  and  C_30
REMARK                            x       y       z     vdW  Elec       q    Type
REMARK                         _______ _______ _______ _____ _____    ______ ____
ROOT
ATOM      1  C   UNL     1       2.005   1.504  -1.144  0.00  0.00    +0.232 C 
ATOM      2  O   UNL     1       0.970   2.136  -1.132  0.00  0.00    -0.274 OA
ATOM      3  N   UNL     1       3.187   2.148  -1.079  0.00  0.00    -0.278 N 
ATOM      4  H   UNL     1       4.016   1.643  -1.089  0.00  0.00    +0.155 HD
ENDROOT
BRANCH   3   5
ATOM      5  C   UNL     1       3.220   3.531  -0.998  0.00  0.00    +0.084 A 
ATOM      6  C   UNL     1       4.333   4.355  -0.929  0.00  0.00    +0.068 A 
ATOM      7  C   UNL     1       4.097   5.786  -0.850  0.00  0.00    -0.023 A 
ATOM      8  C   UNL     1       2.791   6.131  -0.854  0.00  0.00    -0.004 A 
ATOM      9  S   UNL     1       1.921   4.595  -0.967  0.00  0.00    -0.077 S 
ATOM     10  C   UNL     1       2.227   7.516  -0.782  0.00  0.00    +0.043 C 
ATOM     11  C   UNL     1       3.342   8.468  -0.323  0.00  0.00    +0.005 C 
ATOM     12  C   UNL     1       4.599   8.195  -1.154  0.00  0.00    +0.005 C 
ATOM     13  C   UNL     1       5.193   6.838  -0.770  0.00  0.00    +0.037 C 
BRANCH   6  14
ATOM     14  C   UNL     1       5.692   3.804  -0.936  0.00  0.00    +0.244 C 
ATOM     15  O   UNL     1       6.276   3.637  -1.991  0.00  0.00    -0.270 OA
ATOM     16  N   UNL     1       6.295   3.483   0.226  0.00  0.00    -0.325 N 
ATOM     17  H   UNL     1       5.830   3.617   1.067  0.00  0.00    +0.145 HD
ATOM     18  H   UNL     1       7.194   3.119   0.221  0.00  0.00    +0.145 HD
ENDBRANCH   6  14
ENDBRANCH   3   5
BRANCH   1  19
ATOM     19  C   UNL     1       1.969   0.000  -1.232  0.00  0.00    +0.181 C 
BRANCH  19  20
ATOM     20  N   UNL     1       0.574  -0.459  -1.202  0.00  0.00    -0.287 NA
BRANCH  20  22
ATOM     21  C   UNL     1       0.836  -2.116   0.582  0.00  0.00    +0.020 C 
ATOM     22  C   UNL     1       0.498  -1.893  -0.893  0.00  0.00    +0.082 C 
ENDBRANCH  20  22
BRANCH  20  23
ATOM     23  C   UNL     1      -0.107  -0.156  -2.468  0.00  0.00    +0.159 C 
BRANCH  23  24
ATOM     24  C   UNL     1      -1.584  -0.413  -2.317  0.00  0.00    +0.125 A 
ATOM     25  N   UNL     1      -2.389  -0.194  -3.390  0.00  0.00    -0.309 N 
ATOM     26  H   UNL     1      -2.004   0.119  -4.224  0.00  0.00    +0.170 HD
ATOM     27  C   UNL     1      -3.722  -0.410  -3.307  0.00  0.00    +0.259 A 
ATOM     28  O   UNL     1      -4.455  -0.219  -4.260  0.00  0.00    -0.267 OA
ATOM     29  C   UNL     1      -4.252  -0.886  -2.020  0.00  0.00    +0.065 A 
ATOM     30  C   UNL     1      -5.609  -1.138  -1.829  0.00  0.00    +0.015 A 
ATOM     31  C   UNL     1      -6.051  -1.582  -0.602  0.00  0.00    +0.001 A 
ATOM     32  C   UNL     1      -5.156  -1.778   0.442  0.00  0.00    +0.002 A 
ATOM     33  C   UNL     1      -3.811  -1.535   0.274  0.00  0.00    +0.028 A 
ATOM     34  C   UNL     1      -3.339  -1.085  -0.960  0.00  0.00    +0.078 A 
ATOM     35  N   UNL     1      -2.022  -0.837  -1.171  0.00  0.00    -0.232 NA
ENDBRANCH  23  24
ENDBRANCH  20  23
ENDBRANCH  19  20
ENDBRANCH   1  19
TORSDOF 7
