REMARK  Name = ZINC37244838
REMARK  5 active torsions:
REMARK  status: ('A' for Active; 'I' for Inactive)
REMARK    1  A    between atoms: C_1  and  C_2
REMARK    2  A    between atoms: C_2  and  C_4
REMARK    3  A    between atoms: C_2  and  C_17
REMARK    4  A    between atoms: C_4  and  N_5
REMARK    5  A    between atoms: C_13  and  C_14
REMARK                            x       y       z     vdW  Elec       q    Type
REMARK                         _______ _______ _______ _____ _____    ______ ____
ROOT
ATOM      1  N   UNL     1       2.125  -0.091  -1.209  0.00  0.00    -0.346 N 
ATOM      2  C   UNL     1       2.646   1.035  -1.780  0.00  0.00    +0.087 A 
ATOM      3  C   UNL     1       3.969   1.093  -1.540  0.00  0.00    +0.028 A 
ATOM      4  C   UNL     1       4.321  -0.047  -0.778  0.00  0.00    +0.014 A 
ATOM      5  C   UNL     1       3.138  -0.780  -0.576  0.00  0.00    +0.050 A 
ATOM      6  C   UNL     1       3.177  -1.962   0.153  0.00  0.00    +0.026 A 
ATOM      7  C   UNL     1       4.370  -2.416   0.681  0.00  0.00    +0.003 A 
ATOM      8  C   UNL     1       5.542  -1.707   0.496  0.00  0.00    +0.016 A 
ATOM      9  C   UNL     1       5.537  -0.521  -0.238  0.00  0.00    +0.072 A 
ENDROOT
BRANCH   9  10
ATOM     10  C   UNL     1       6.782   0.234  -0.435  0.00  0.00    +0.387 C 
ATOM     11  O   UNL     1       7.832  -0.183   0.035  0.00  0.00    -0.241 OA
ATOM     12  O   UNL     1       6.769   1.281  -1.070  0.00  0.00    -0.241 OA
ENDBRANCH   9  10
BRANCH   1  13
ATOM     13  C   UNL     1       0.718  -0.497  -1.257  0.00  0.00    +0.134 C 
BRANCH  13  15
ATOM     14  C   UNL     1      -0.019   1.526   0.010  0.00  0.00    +0.019 C 
ATOM     15  C   UNL     1       0.002  -0.004   0.002  0.00  0.00    +0.091 C 
BRANCH  15  16
ATOM     16  C   UNL     1      -1.412  -0.526   0.013  0.00  0.00    +0.215 C 
ATOM     17  O   UNL     1      -1.808  -1.223  -0.897  0.00  0.00    -0.276 OA
ATOM     18  N   UNL     1      -2.236  -0.217   1.033  0.00  0.00    -0.329 N 
ATOM     19  H   UNL     1      -1.920   0.341   1.761  0.00  0.00    +0.145 HD
ATOM     20  H   UNL     1      -3.146  -0.553   1.040  0.00  0.00    +0.145 HD
ENDBRANCH  15  16
ENDBRANCH  13  15
ENDBRANCH   1  13
TORSDOF 4
