REMARK  Name = ZINC39685819
REMARK  15 active torsions:
REMARK  status: ('A' for Active; 'I' for Inactive)
REMARK    1  A    between atoms: C_1  and  C_2
REMARK    2  A    between atoms: C_3  and  C_12
REMARK    3  A    between atoms: C_7  and  O_8
REMARK    4  A    between atoms: O_8  and  C_9
REMARK    5  A    between atoms: C_9  and  C_11
REMARK    6  A    between atoms: C_16  and  C_25
REMARK    7  A    between atoms: N_27  and  C_28
REMARK    8  A    between atoms: C_28  and  C_30
REMARK    9  A    between atoms: C_28  and  C_33
REMARK   10  A    between atoms: C_30  and  C_31
REMARK   11  A    between atoms: C_30  and  C_32
REMARK   12  A    between atoms: N_35  and  C_36
REMARK   13  A    between atoms: C_36  and  C_37
REMARK   14  A    between atoms: C_36  and  C_38
REMARK   15  A    between atoms: C_36  and  C_39
REMARK                            x       y       z     vdW  Elec       q    Type
REMARK                         _______ _______ _______ _____ _____    ______ ____
ROOT
ATOM      1  C   UNL     1       0.289   0.034  -4.006  0.00  0.00    +0.247 C 
ATOM      2  O   UNL     1       0.293   1.159  -4.467  0.00  0.00    -0.270 OA
ATOM      3  N   UNL     1       0.058  -1.023  -4.810  0.00  0.00    -0.296 N 
ATOM      4  C   UNL     1      -0.085  -2.445  -4.421  0.00  0.00    +0.121 C 
ATOM      5  C   UNL     1      -1.220  -2.984  -5.322  0.00  0.00    +0.100 C 
ATOM      6  C   UNL     1      -1.228  -2.049  -6.543  0.00  0.00    -0.004 C 
ATOM      7  C   UNL     1      -0.115  -1.024  -6.282  0.00  0.00    +0.115 C 
ATOM      8  C   UNL     1      -2.574  -1.339  -6.655  0.00  0.00    -0.010 C 
ATOM      9  C   UNL     1      -2.578  -0.459  -7.908  0.00  0.00    -0.082 C 
ATOM     10  N   UNL     1      -2.341  -1.291  -9.094  0.00  0.00    +0.379 N 
ATOM     11  C   UNL     1      -1.006  -1.896  -9.021  0.00  0.00    -0.082 C 
ATOM     12  C   UNL     1      -0.935  -2.837  -7.815  0.00  0.00    -0.010 C 
ATOM     13  H   UNL     1      -3.037  -2.019  -9.137  0.00  0.00    -0.086 HD
ATOM     14  H   UNL     1      -2.405  -0.719  -9.923  0.00  0.00    -0.086 HD
ENDROOT
BRANCH   1  17
ATOM     15  C   UNL     1      -0.717   1.955  -2.091  0.00  0.00    +0.048 C 
ATOM     16  C   UNL     1       0.055   0.745  -1.631  0.00  0.00    +0.004 A 
ATOM     17  C   UNL     1       0.536  -0.174  -2.563  0.00  0.00    +0.043 A 
ATOM     18  C   UNL     1       1.250  -1.292  -2.129  0.00  0.00    +0.013 A 
ATOM     19  C   UNL     1       1.479  -1.484  -0.782  0.00  0.00    +0.004 A 
ATOM     20  C   UNL     1       1.002  -0.572   0.141  0.00  0.00    +0.047 A 
ATOM     21  C   UNL     1       0.294   0.546  -0.282  0.00  0.00    +0.135 A 
BRANCH  21  22
ATOM     22  O   UNL     1      -0.168   1.442   0.630  0.00  0.00    -0.426 OA
BRANCH  22  23
ATOM     23  C   UNL     1       0.502   2.597   0.775  0.00  0.00    +0.309 C 
ATOM     24  O   UNL     1       1.536   2.775   0.175  0.00  0.00    -0.251 OA
ATOM     25  C   UNL     1      -0.034   3.671   1.685  0.00  0.00    +0.136 C 
ENDBRANCH  22  23
ENDBRANCH  21  22
ENDBRANCH   1  17
BRANCH   5  26
ATOM     26  C   UNL     1      -2.540  -2.918  -4.599  0.00  0.00    +0.219 C 
ATOM     27  O   UNL     1      -2.749  -2.032  -3.798  0.00  0.00    -0.275 OA
ATOM     28  N   UNL     1      -3.488  -3.845  -4.842  0.00  0.00    -0.303 N 
ATOM     29  H   UNL     1      -3.308  -4.574  -5.456  0.00  0.00    +0.149 HD
BRANCH  28  30
ATOM     30  C   UNL     1      -4.791  -3.752  -4.178  0.00  0.00    +0.161 C 
BRANCH  30  31
ATOM     31  C   UNL     1      -5.374  -5.132  -4.019  0.00  0.00    +0.234 C 
ATOM     32  O   UNL     1      -4.746  -6.102  -4.389  0.00  0.00    -0.274 OA
ATOM     33  N   UNL     1      -6.592  -5.290  -3.465  0.00  0.00    -0.309 N 
ATOM     34  H   UNL     1      -7.124  -4.512  -3.235  0.00  0.00    +0.149 HD
BRANCH  33  35
ATOM     35  C   UNL     1      -7.113  -6.635  -3.211  0.00  0.00    +0.026 C 
ATOM     36  C   UNL     1      -6.175  -7.373  -2.255  0.00  0.00    +0.031 C 
ATOM     37  C   UNL     1      -8.505  -6.533  -2.583  0.00  0.00    +0.031 C 
ATOM     38  C   UNL     1      -7.205  -7.404  -4.531  0.00  0.00    +0.031 C 
ENDBRANCH  33  35
ENDBRANCH  30  31
BRANCH  30  39
ATOM     39  C   UNL     1      -5.734  -2.894  -5.025  0.00  0.00    +0.012 C 
ATOM     40  C   UNL     1      -5.242  -1.446  -5.028  0.00  0.00    +0.009 C 
ATOM     41  C   UNL     1      -5.759  -3.428  -6.459  0.00  0.00    +0.009 C 
ENDBRANCH  30  39
ENDBRANCH  28  30
ENDBRANCH   5  26
TORSDOF 8
