REMARK  Name = ZINC39655445
REMARK  6 active torsions:
REMARK  status: ('A' for Active; 'I' for Inactive)
REMARK    1  A    between atoms: C_4  and  N_7
REMARK    2  A    between atoms: N_7  and  C_8
REMARK    3  A    between atoms: C_8  and  C_9
REMARK    4  A    between atoms: C_9  and  N_10
REMARK    5  A    between atoms: C_11  and  C_13
REMARK    6  A    between atoms: C_24  and  C_26
REMARK                            x       y       z     vdW  Elec       q    Type
REMARK                         _______ _______ _______ _____ _____    ______ ____
ROOT
ATOM      1  C   UNL     1       6.296  -6.626  -0.549  0.00  0.00    +0.100 C 
ATOM      2  C   UNL     1       5.748  -6.965   0.855  0.00  0.00    +0.121 C 
ATOM      3  N   UNL     1       6.617  -8.062   1.341  0.00  0.00    -0.296 N 
ATOM      4  C   UNL     1       7.976  -7.688   0.880  0.00  0.00    +0.115 C 
ATOM      5  C   UNL     1       7.758  -7.102  -0.528  0.00  0.00    -0.004 C 
ATOM      6  C   UNL     1       8.700  -5.924  -0.760  0.00  0.00    -0.010 C 
ATOM      7  C   UNL     1      10.145  -6.431  -0.794  0.00  0.00    -0.082 C 
ATOM      8  N   UNL     1      10.293  -7.421  -1.867  0.00  0.00    +0.379 N 
ATOM      9  C   UNL     1       9.453  -8.592  -1.588  0.00  0.00    -0.082 C 
ATOM     10  C   UNL     1       7.979  -8.177  -1.588  0.00  0.00    -0.010 C 
ATOM     11  C   UNL     1       6.255  -9.154   2.043  0.00  0.00    +0.249 C 
ATOM     12  O   UNL     1       7.102  -9.923   2.452  0.00  0.00    -0.270 OA
ATOM     13  H   UNL     1      10.013  -7.009  -2.744  0.00  0.00    -0.086 HD
ATOM     14  H   UNL     1      11.259  -7.708  -1.927  0.00  0.00    -0.086 HD
ENDROOT
BRANCH  11  15
ATOM     15  C   UNL     1       4.827  -9.416   2.315  0.00  0.00    +0.073 A 
ATOM     16  C   UNL     1       3.949  -8.354   2.543  0.00  0.00    +0.016 A 
ATOM     17  C   UNL     1       2.617  -8.605   2.796  0.00  0.00    +0.002 A 
ATOM     18  C   UNL     1       2.147  -9.906   2.825  0.00  0.00    +0.023 A 
ATOM     19  C   UNL     1       3.007 -10.965   2.601  0.00  0.00    +0.077 A 
ATOM     20  C   UNL     1       4.346 -10.729   2.341  0.00  0.00    +0.154 A 
ATOM     21  F   UNL     1       5.186 -11.763   2.117  0.00  0.00    -0.203 F 
ATOM     22 CL   UNL     1       2.406 -12.594   2.640  0.00  0.00    -0.081 Cl
ENDBRANCH  11  15
BRANCH   1  24
ATOM     23  N   UNL     1       6.087  -4.670  -2.048  0.00  0.00    -0.314 N 
ATOM     24  C   UNL     1       6.231  -5.140  -0.794  0.00  0.00    +0.218 C 
ATOM     25  O   UNL     1       6.307  -4.369   0.139  0.00  0.00    -0.275 OA
ATOM     26  H   UNL     1       6.026  -5.287  -2.794  0.00  0.00    +0.149 HD
BRANCH  23  27
ATOM     27  C   UNL     1       6.024  -3.225  -2.286  0.00  0.00    +0.123 C 
BRANCH  27  28
ATOM     28  C   UNL     1       5.860  -2.962  -3.784  0.00  0.00    +0.120 C 
BRANCH  28  29
ATOM     29  N   UNL     1       5.797  -1.517  -4.022  0.00  0.00    -0.342 N 
ATOM     30  H   UNL     1       5.858  -0.900  -3.276  0.00  0.00    +0.146 HD
BRANCH  29  34
ATOM     31  C   UNL     1       5.355  -0.062  -7.898  0.00  0.00    +0.000 A 
ATOM     32  C   UNL     1       5.441   0.819  -6.836  0.00  0.00    +0.002 A 
ATOM     33  C   UNL     1       5.588   0.340  -5.549  0.00  0.00    +0.023 A 
ATOM     34  C   UNL     1       5.648  -1.029  -5.322  0.00  0.00    +0.027 A 
ATOM     35  C   UNL     1       5.561  -1.912  -6.391  0.00  0.00    +0.023 A 
ATOM     36  C   UNL     1       5.414  -1.426  -7.675  0.00  0.00    +0.002 A 
ENDBRANCH  29  34
ENDBRANCH  28  29
ENDBRANCH  27  28
ENDBRANCH  23  27
ENDBRANCH   1  24
TORSDOF 6
