REMARK  Name = ZINC22809909
REMARK  10 active torsions:
REMARK  status: ('A' for Active; 'I' for Inactive)
REMARK    1  A    between atoms: C_1  and  C_2
REMARK    2  A    between atoms: C_2  and  C_4
REMARK    3  A    between atoms: C_2  and  N_15
REMARK    4  A    between atoms: C_4  and  C_5
REMARK    5  A    between atoms: N_7  and  C_8
REMARK    6  A    between atoms: N_15  and  C_16
REMARK    7  A    between atoms: C_16  and  C_17
REMARK    8  A    between atoms: C_17  and  C_19
REMARK    9  A    between atoms: C_17  and  N_24
REMARK   10  A    between atoms: N_27  and  C_30
REMARK                            x       y       z     vdW  Elec       q    Type
REMARK                         _______ _______ _______ _____ _____    ______ ____
ROOT
ATOM      1  N   UNL     1       4.571   5.133  -0.726  0.00  0.00    +0.382 N 
ATOM      2  H   UNL     1       4.268   4.384  -1.472  0.00  0.00    -0.085 HD
ATOM      3  H   UNL     1       4.193   6.122  -1.025  0.00  0.00    -0.085 HD
ENDROOT
BRANCH   1   5
ATOM      4  C   UNL     1       3.879   6.030   1.445  0.00  0.00    -0.013 C 
ATOM      5  C   UNL     1       4.016   4.772   0.585  0.00  0.00    -0.066 C 
BRANCH   5   6
ATOM      6  C   UNL     1       2.639   4.131   0.397  0.00  0.00    +0.080 C 
BRANCH   6   7
ATOM      7  C   UNL     1       2.789   2.828  -0.346  0.00  0.00    +0.216 C 
ATOM      8  O   UNL     1       3.888   2.449  -0.690  0.00  0.00    -0.276 OA
ATOM      9  N   UNL     1       1.701   2.084  -0.627  0.00  0.00    -0.286 N 
ATOM     10  H   UNL     1       0.697   2.465  -0.388  0.00  0.00    +0.155 HD
BRANCH   9  11
ATOM     11  C   UNL     1       1.848   0.826  -1.223  0.00  0.00    +0.033 A 
ATOM     12  C   UNL     1       2.959   0.045  -0.933  0.00  0.00    +0.025 A 
ATOM     13  C   UNL     1       3.102  -1.196  -1.522  0.00  0.00    +0.022 A 
ATOM     14  C   UNL     1       2.140  -1.661  -2.402  0.00  0.00    +0.041 A 
ATOM     15  C   UNL     1       1.032  -0.883  -2.693  0.00  0.00    +0.022 A 
ATOM     16  C   UNL     1       0.885   0.358  -2.107  0.00  0.00    +0.025 A 
ATOM     17 CL   UNL     1       2.323  -3.220  -3.141  0.00  0.00    -0.084 Cl
ENDBRANCH   9  11
ENDBRANCH   6   7
ENDBRANCH   5   6
ENDBRANCH   1   5
BRANCH   1  18
ATOM     18  C   UNL     1       6.038   5.184  -0.680  0.00  0.00    -0.058 C 
BRANCH  18  19
ATOM     19  C   UNL     1       6.579   5.563  -2.060  0.00  0.00    +0.076 C 
BRANCH  19  20
ATOM     20  N   UNL     1       6.057   4.626  -3.064  0.00  0.00    -0.300 NA
ATOM     21  C   UNL     1       6.397   3.239  -2.718  0.00  0.00    +0.066 C 
ATOM     22  C   UNL     1       5.769   2.292  -3.743  0.00  0.00    -0.064 C 
ATOM     23  N   UNL     1       6.260   2.632  -5.086  0.00  0.00    +0.379 N 
ATOM     24  C   UNL     1       5.919   4.019  -5.432  0.00  0.00    -0.064 C 
ATOM     25  C   UNL     1       6.547   4.966  -4.407  0.00  0.00    +0.066 C 
ATOM     26  C   UNL     1       5.737   1.695  -6.090  0.00  0.00    -0.096 C 
ATOM     27  H   UNL     1       7.356   2.543  -5.080  0.00  0.00    -0.082 HD
ENDBRANCH  19  20
BRANCH  19  28
ATOM     28  C   UNL     1       8.085   5.496  -2.046  0.00  0.00    +0.005 A 
ATOM     29  C   UNL     1       8.985   6.495  -2.210  0.00  0.00    +0.013 A 
ATOM     30  C   UNL     1      10.334   6.198  -2.157  0.00  0.00    +0.008 A 
ATOM     31  C   UNL     1      10.716   4.915  -1.942  0.00  0.00    +0.045 A 
ATOM     32  S   UNL     1       9.145   4.080  -1.800  0.00  0.00    -0.100 S 
ENDBRANCH  19  28
ENDBRANCH  18  19
ENDBRANCH   1  18
TORSDOF 8
