REMARK  Name = ZINC48181965
REMARK  12 active torsions:
REMARK  status: ('A' for Active; 'I' for Inactive)
REMARK    1  A    between atoms: C_1  and  C_2
REMARK    2  A    between atoms: C_2  and  C_3
REMARK    3  A    between atoms: C_6  and  C_9
REMARK    4  A    between atoms: C_9  and  C_11
REMARK    5  A    between atoms: C_9  and  N_27
REMARK    6  A    between atoms: C_11  and  N_12
REMARK    7  A    between atoms: N_15  and  C_16
REMARK    8  A    between atoms: C_19  and  C_23
REMARK    9  A    between atoms: C_21  and  C_22
REMARK   10  A    between atoms: N_25  and  C_26
REMARK   11  A    between atoms: N_27  and  C_28
REMARK   12  A    between atoms: N_27  and  C_29
REMARK                            x       y       z     vdW  Elec       q    Type
REMARK                         _______ _______ _______ _____ _____    ______ ____
ROOT
ATOM      1  N   UNL     1       4.429  -1.233  -6.375  0.00  0.00    -0.300 N 
ATOM      2  C   UNL     1       5.287  -0.422  -7.025  0.00  0.00    +0.304 C 
ATOM      3  O   UNL     1       5.297   0.770  -6.785  0.00  0.00    -0.253 OA
ATOM      4  N   UNL     1       6.134  -0.932  -7.940  0.00  0.00    -0.269 N 
ATOM      5  H   UNL     1       4.421  -2.184  -6.566  0.00  0.00    +0.150 HD
ATOM      6  H   UNL     1       6.182  -1.891  -8.075  0.00  0.00    +0.156 HD
ENDROOT
BRANCH   4   7
ATOM      7  C   UNL     1       6.942  -0.081  -8.694  0.00  0.00    +0.038 A 
ATOM      8  C   UNL     1       6.556   1.241  -8.899  0.00  0.00    +0.024 A 
ATOM      9  C   UNL     1       7.351   2.083  -9.642  0.00  0.00    +0.015 A 
ATOM     10  C   UNL     1       8.547   1.611 -10.190  0.00  0.00    +0.037 A 
ATOM     11  C   UNL     1       8.931   0.284  -9.982  0.00  0.00    +0.018 A 
ATOM     12  C   UNL     1       8.134  -0.553  -9.233  0.00  0.00    -0.028 A 
ATOM     13  C   UNL     1       8.550  -1.983  -9.003  0.00  0.00    +0.045 C 
BRANCH  10  14
ATOM     14  C   UNL     1       9.402   2.512 -10.988  0.00  0.00    +0.244 C 
ATOM     15  O   UNL     1      10.442   2.100 -11.464  0.00  0.00    -0.270 OA
ATOM     16  N   UNL     1       9.030   3.792 -11.188  0.00  0.00    -0.314 N 
ATOM     17  C   UNL     1       9.878   4.686 -11.980  0.00  0.00    +0.128 C 
ATOM     18  H   UNL     1       8.200   4.121 -10.808  0.00  0.00    +0.149 HD
ENDBRANCH  10  14
ENDBRANCH   4   7
BRANCH   1  19
ATOM     19  C   UNL     1       3.508  -0.678  -5.380  0.00  0.00    +0.095 C 
BRANCH  19  20
ATOM     20  C   UNL     1       2.738  -1.817  -4.708  0.00  0.00    -0.021 C 
BRANCH  20  24
ATOM     21  C   UNL     1       0.234  -3.738  -7.586  0.00  0.00    -0.048 A 
ATOM     22  C   UNL     1       1.446  -4.304  -7.237  0.00  0.00    +0.004 A 
ATOM     23  C   UNL     1       2.256  -3.682  -6.306  0.00  0.00    +0.002 A 
ATOM     24  C   UNL     1       1.855  -2.494  -5.724  0.00  0.00    -0.059 A 
ATOM     25  C   UNL     1       0.643  -1.927  -6.074  0.00  0.00    +0.002 A 
ATOM     26  C   UNL     1      -0.165  -2.547  -7.009  0.00  0.00    +0.004 A 
BRANCH  21  28
ATOM     27  C   UNL     1      -0.295  -3.913 -10.003  0.00  0.00    +0.009 C 
ATOM     28  C   UNL     1      -0.650  -4.415  -8.602  0.00  0.00    +0.032 C 
ENDBRANCH  21  28
ENDBRANCH  20  24
BRANCH  20  29
ATOM     29  N   UNL     1       1.909  -1.274  -3.623  0.00  0.00    +0.382 N 
ATOM     30  C   UNL     1       1.246  -2.376  -2.914  0.00  0.00    -0.096 C 
ATOM     31  C   UNL     1       2.757  -0.527  -2.685  0.00  0.00    -0.096 C 
ATOM     32  H   UNL     1       1.211  -0.656  -4.010  0.00  0.00    -0.082 HD
ENDBRANCH  20  29
ENDBRANCH  19  20
ENDBRANCH   1  19
TORSDOF 7
