REMARK  Name = ZINC61595239
REMARK  8 active torsions:
REMARK  status: ('A' for Active; 'I' for Inactive)
REMARK    1  A    between atoms: C_1  and  C_2
REMARK    2  A    between atoms: C_2  and  C_3
REMARK    3  A    between atoms: C_2  and  N_4
REMARK    4  A    between atoms: C_10  and  S_11
REMARK    5  A    between atoms: S_11  and  C_12
REMARK    6  A    between atoms: C_12  and  C_14
REMARK    7  A    between atoms: C_12  and  C_16
REMARK    8  A    between atoms: C_14  and  N_15
REMARK                            x       y       z     vdW  Elec       q    Type
REMARK                         _______ _______ _______ _____ _____    ______ ____
ROOT
ATOM      1  C   UNL     1       3.978  -2.923  -0.526  0.00  0.00    +0.073 C 
ENDROOT
BRANCH   1   2
ATOM      2  C   UNL     1       4.661  -3.778   0.509  0.00  0.00    +0.002 A 
ATOM      3  C   UNL     1       4.702  -5.130   0.609  0.00  0.00    +0.027 A 
ATOM      4  C   UNL     1       5.398  -5.704   1.656  0.00  0.00    +0.025 A 
ATOM      5  C   UNL     1       6.019  -4.899   2.553  0.00  0.00    +0.060 A 
ATOM      6  S   UNL     1       5.632  -3.275   1.920  0.00  0.00    -0.099 S 
ATOM      7 BR   UNL     1       5.482  -7.585   1.835  0.00  0.00    -0.050 Br
ENDBRANCH   1   2
BRANCH   1   8
ATOM      8  S   UNL     1       2.764  -1.846   0.283  0.00  0.00    -0.079 S 
BRANCH   8  15
ATOM      9  N   UNL     1       0.803  -0.269  -0.941  0.00  0.00    -0.268 N 
ATOM     10  C   UNL     1       0.416   0.097  -2.179  0.00  0.00    +0.345 A 
ATOM     11  O   UNL     1      -0.511   0.837  -2.454  0.00  0.00    -0.245 OA
ATOM     12  N   UNL     1       1.244  -0.505  -3.058  0.00  0.00    -0.226 N 
ATOM     13  H   UNL     1       1.209  -0.427  -4.025  0.00  0.00    +0.194 HD
ATOM     14  N   UNL     1       2.163  -1.262  -2.319  0.00  0.00    -0.145 NA
ATOM     15  C   UNL     1       1.890  -1.106  -1.056  0.00  0.00    +0.193 A 
BRANCH   9  17
ATOM     16  C   UNL     1       0.243   1.680   0.426  0.00  0.00    +0.031 C 
ATOM     17  C   UNL     1       0.177   0.155   0.314  0.00  0.00    +0.088 C 
ATOM     18  C   UNL     1      -1.286  -0.294   0.332  0.00  0.00    +0.031 C 
ENDBRANCH   9  17
ENDBRANCH   8  15
ENDBRANCH   1   8
BRANCH   1  19
ATOM     19  C   UNL     1       5.020  -2.065  -1.247  0.00  0.00    -0.066 C 
BRANCH  19  20
ATOM     20  N   UNL     1       5.924  -2.933  -2.013  0.00  0.00    +0.379 N 
ATOM     21  H   UNL     1       6.452  -3.513  -1.378  0.00  0.00    -0.090 HD
ATOM     22  H   UNL     1       5.384  -3.519  -2.632  0.00  0.00    -0.090 HD
ATOM     23  H   UNL     1       6.557  -2.365  -2.555  0.00  0.00    -0.090 HD
ENDBRANCH  19  20
ENDBRANCH   1  19
TORSDOF 6
