REMARK  Name = ZINC34789438
REMARK  5 active torsions:
REMARK  status: ('A' for Active; 'I' for Inactive)
REMARK    1  A    between atoms: C_4  and  C_7
REMARK    2  A    between atoms: C_15  and  N_21
REMARK    3  A    between atoms: N_19  and  N_20
REMARK    4  A    between atoms: N_21  and  N_22
REMARK    5  A    between atoms: C_23  and  C_26
REMARK                            x       y       z     vdW  Elec       q    Type
REMARK                         _______ _______ _______ _____ _____    ______ ____
ROOT
ATOM      1  C   UNL     1       4.412   0.073   0.333  0.00  0.00    +0.081 C 
ATOM      2  C   UNL     1       4.282  -1.041   1.366  0.00  0.00    +0.054 C 
ATOM      3  C   UNL     1       5.428  -2.024   1.278  0.00  0.00    -0.033 C 
ATOM      4  C   UNL     1       6.239  -2.238   0.252  0.00  0.00    -0.043 C 
ATOM      5  C   UNL     1       7.229  -3.328   0.626  0.00  0.00    +0.086 C 
ATOM      6  C   UNL     1       6.883  -3.714   2.027  0.00  0.00    +0.033 A 
ATOM      7  C   UNL     1       5.795  -2.912   2.393  0.00  0.00    +0.039 A 
ATOM      8  C   UNL     1       5.230  -3.040   3.678  0.00  0.00    +0.145 A 
ATOM      9  N   UNL     1       5.804  -3.954   4.467  0.00  0.00    -0.198 NA
ATOM     10  C   UNL     1       6.831  -4.689   4.074  0.00  0.00    +0.209 A 
ATOM     11  N   UNL     1       7.392  -4.596   2.866  0.00  0.00    -0.329 N 
ATOM     12  N   UNL     1       7.353  -5.608   4.966  0.00  0.00    -0.253 N 
ATOM     13  C   UNL     1       6.245  -1.544  -1.092  0.00  0.00    +0.103 C 
ATOM     14  S   UNL     1       4.656  -0.685  -1.304  0.00  0.00    -0.140 S 
ATOM     15  H   UNL     1       8.107  -6.161   4.707  0.00  0.00    +0.169 HD
ATOM     16  H   UNL     1       8.145  -5.153   2.616  0.00  0.00    +0.168 HD
ENDROOT
BRANCH   1  20
ATOM     17  C   UNL     1       0.851   2.433   0.305  0.00  0.00    +0.000 A 
ATOM     18  C   UNL     1       2.068   3.022   0.593  0.00  0.00    +0.000 A 
ATOM     19  C   UNL     1       3.220   2.258   0.602  0.00  0.00    +0.005 A 
ATOM     20  C   UNL     1       3.155   0.906   0.324  0.00  0.00    -0.034 A 
ATOM     21  C   UNL     1       1.938   0.317   0.037  0.00  0.00    +0.005 A 
ATOM     22  C   UNL     1       0.786   1.081   0.027  0.00  0.00    +0.000 A 
ENDBRANCH   1  20
BRANCH  13  23
ATOM     23  C   UNL     1       6.425  -2.562  -2.188  0.00  0.00    -0.030 A 
ATOM     24  C   UNL     1       5.500  -3.577  -2.348  0.00  0.00    +0.005 A 
ATOM     25  C   UNL     1       5.665  -4.511  -3.353  0.00  0.00    +0.000 A 
ATOM     26  C   UNL     1       6.756  -4.431  -4.198  0.00  0.00    +0.000 A 
ATOM     27  C   UNL     1       7.681  -3.416  -4.039  0.00  0.00    +0.000 A 
ATOM     28  C   UNL     1       7.513  -2.479  -3.036  0.00  0.00    +0.005 A 
ENDBRANCH  13  23
BRANCH  12  29
ATOM     29  N   UNL     1       6.809  -5.736   6.212  0.00  0.00    -0.254 NA
ATOM     30  H   UNL     1       7.292  -6.441   6.747  0.00  0.00    +0.140 HD
ATOM     31  H   UNL     1       6.806  -4.852   6.699  0.00  0.00    +0.140 HD
ENDBRANCH  12  29
BRANCH   8  32
ATOM     32  N   UNL     1       4.157  -2.274   4.094  0.00  0.00    -0.267 N 
ATOM     33  H   UNL     1       3.680  -1.720   3.456  0.00  0.00    +0.167 HD
BRANCH  32  34
ATOM     34  N   UNL     1       3.768  -2.297   5.403  0.00  0.00    -0.255 NA
ATOM     35  H   UNL     1       4.534  -2.051   6.012  0.00  0.00    +0.140 HD
ATOM     36  H   UNL     1       2.975  -1.691   5.556  0.00  0.00    +0.140 HD
ENDBRANCH  32  34
ENDBRANCH   8  32
TORSDOF 5
