REMARK  Name = ZINC08623160
REMARK  7 active torsions:
REMARK  status: ('A' for Active; 'I' for Inactive)
REMARK    1  A    between atoms: C_1  and  C_2
REMARK    2  A    between atoms: C_4  and  C_26
REMARK    3  A    between atoms: C_6  and  C_8
REMARK    4  A    between atoms: C_16  and  C_18
REMARK    5  A    between atoms: C_18  and  N_19
REMARK    6  A    between atoms: N_22  and  C_23
REMARK    7  A    between atoms: C_23  and  C_24
REMARK                            x       y       z     vdW  Elec       q    Type
REMARK                         _______ _______ _______ _____ _____    ______ ____
ROOT
ATOM      1  C   UNL     1       3.555   7.363   0.310  0.00  0.00    +0.024 C 
ATOM      2  C   UNL     1       2.380   7.869  -0.531  0.00  0.00    -0.068 C 
ATOM      3  C   UNL     1       2.196   9.867   0.826  0.00  0.00    -0.078 C 
ATOM      4  C   UNL     1       3.367   9.418   1.706  0.00  0.00    -0.015 C 
ATOM      5  C   UNL     1       3.398   7.885   1.744  0.00  0.00    -0.007 C 
ATOM      6  C   UNL     1       2.062   7.381   2.304  0.00  0.00    -0.010 C 
ATOM      7  C   UNL     1       0.928   7.887   1.408  0.00  0.00    -0.051 C 
ATOM      8  N   UNL     1       1.471   8.693   0.294  0.00  0.00    +0.383 N 
ATOM      9  H   UNL     1       0.693   9.020  -0.292  0.00  0.00    -0.081 HD
ENDROOT
BRANCH   1  15
ATOM     10  C   UNL     1       2.344   3.136  -1.829  0.00  0.00    +0.088 C 
ATOM     11  C   UNL     1       2.994   3.861  -0.679  0.00  0.00    +0.127 A 
ATOM     12  N   UNL     1       3.546   3.159   0.289  0.00  0.00    -0.232 NA
ATOM     13  C   UNL     1       4.124   3.766   1.324  0.00  0.00    +0.076 A 
ATOM     14  C   UNL     1       4.146   5.163   1.361  0.00  0.00    +0.052 A 
ATOM     15  C   UNL     1       3.558   5.856   0.318  0.00  0.00    +0.047 A 
ATOM     16  N   UNL     1       2.999   5.179  -0.673  0.00  0.00    -0.237 NA
BRANCH  13  17
ATOM     17  C   UNL     1       4.740   2.973   2.415  0.00  0.00    +0.014 A 
ATOM     18  C   UNL     1       5.452   3.612   3.428  0.00  0.00    +0.011 A 
ATOM     19  C   UNL     1       6.023   2.870   4.442  0.00  0.00    +0.001 A 
ATOM     20  C   UNL     1       5.885   1.493   4.456  0.00  0.00    +0.001 A 
ATOM     21  C   UNL     1       5.184   0.852   3.451  0.00  0.00    +0.016 A 
ATOM     22  C   UNL     1       4.609   1.585   2.432  0.00  0.00    +0.027 A 
ATOM     23 BR   UNL     1       3.644   0.708   1.062  0.00  0.00    -0.050 Br
ENDBRANCH  13  17
ENDBRANCH   1  15
BRANCH   7  24
ATOM     24  C   UNL     1       0.163   6.694   0.831  0.00  0.00    +0.090 C 
BRANCH  24  25
ATOM     25  N   UNL     1      -0.848   7.174  -0.115  0.00  0.00    -0.301 N 
ATOM     26  C   UNL     1      -1.578   6.292  -0.826  0.00  0.00    +0.300 C 
ATOM     27  O   UNL     1      -1.464   5.099  -0.616  0.00  0.00    -0.253 OA
ATOM     28  N   UNL     1      -2.435   6.731  -1.769  0.00  0.00    -0.296 N 
ATOM     29  H   UNL     1      -0.991   8.126  -0.231  0.00  0.00    +0.150 HD
ATOM     30  H   UNL     1      -2.526   7.682  -1.936  0.00  0.00    +0.151 HD
BRANCH  28  31
ATOM     31  C   UNL     1      -3.228   5.772  -2.541  0.00  0.00    +0.132 C 
BRANCH  31  32
ATOM     32  C   UNL     1      -4.099   6.515  -3.522  0.00  0.00    -0.016 C 
ATOM     33  C   UNL     1      -4.043   6.226  -4.798  0.00  0.00    +0.005 C 
ENDBRANCH  31  32
ENDBRANCH  28  31
ENDBRANCH  24  25
ENDBRANCH   7  24
TORSDOF 6
