REMARK  Name = ZINC09439355
REMARK  8 active torsions:
REMARK  status: ('A' for Active; 'I' for Inactive)
REMARK    1  A    between atoms: C_3  and  N_15
REMARK    2  A    between atoms: C_5  and  S_7
REMARK    3  A    between atoms: S_7  and  N_10
REMARK    4  A    between atoms: N_15  and  C_16
REMARK    5  A    between atoms: C_16  and  N_18
REMARK    6  A    between atoms: N_18  and  C_19
REMARK    7  A    between atoms: C_22  and  O_25
REMARK    8  A    between atoms: O_25  and  C_26
REMARK                            x       y       z     vdW  Elec       q    Type
REMARK                         _______ _______ _______ _____ _____    ______ ____
ROOT
ATOM      1  C   UNL     1       6.127  -4.564  -0.002  0.00  0.00    +0.004 A 
ATOM      2  C   UNL     1       4.921  -3.891   0.017  0.00  0.00    +0.023 A 
ATOM      3  C   UNL     1       3.730  -4.605   0.035  0.00  0.00    +0.034 A 
ATOM      4  C   UNL     1       3.756  -5.994   0.024  0.00  0.00    +0.052 A 
ATOM      5  C   UNL     1       4.965  -6.660   0.000  0.00  0.00    +0.110 A 
ATOM      6  C   UNL     1       6.150  -5.946  -0.012  0.00  0.00    +0.029 A 
ENDROOT
BRANCH   5   7
ATOM      7  S   UNL     1       5.000  -8.422  -0.014  0.00  0.00    +0.073 S 
ATOM      8  O   UNL     1       6.261  -8.808   0.515  0.00  0.00    -0.150 OA
ATOM      9  O   UNL     1       3.771  -8.857   0.552  0.00  0.00    -0.150 OA
BRANCH   7  10
ATOM     10  N   UNL     1       4.985  -8.899  -1.600  0.00  0.00    -0.205 N 
ATOM     11  C   UNL     1       6.043  -8.595  -2.416  0.00  0.00    +0.088 C 
ATOM     12  C   UNL     1       8.056  -7.772  -3.132  0.00  0.00    +0.114 C 
ATOM     13  C   UNL     1       7.266  -8.076  -4.426  0.00  0.00    +0.028 C 
ATOM     14  C   UNL     1       6.139  -8.985  -3.875  0.00  0.00    +0.072 C 
ATOM     15  H   UNL     1       4.228  -9.393  -1.951  0.00  0.00    +0.175 HD
ATOM     16  N   UNL     1       7.091  -7.939  -2.025  0.00  0.00    -0.375 N 
ATOM     17  H   UNL     1       7.232  -7.583  -1.072  0.00  0.00    +0.161 HD
ENDBRANCH   7  10
ENDBRANCH   5   7
BRANCH   3  18
ATOM     18  N   UNL     1       2.507  -3.927   0.058  0.00  0.00    -0.297 N 
ATOM     19  H   UNL     1       2.381  -3.136  -0.488  0.00  0.00    +0.154 HD
BRANCH  18  20
ATOM     20  C   UNL     1       1.503  -4.374   0.839  0.00  0.00    +0.139 C 
ATOM     21  S   UNL     1       1.771  -5.680   1.913  0.00  0.00    -0.018 S 
BRANCH  20  22
ATOM     22  N   UNL     1       0.289  -3.793   0.774  0.00  0.00    -0.297 N 
ATOM     23  H   UNL     1       0.114  -3.108   0.110  0.00  0.00    +0.154 HD
BRANCH  22  24
ATOM     24  C   UNL     1      -0.720  -4.177   1.667  0.00  0.00    +0.033 A 
ATOM     25  C   UNL     1      -0.415  -4.407   3.002  0.00  0.00    +0.027 A 
ATOM     26  C   UNL     1      -1.410  -4.785   3.882  0.00  0.00    +0.047 A 
ATOM     27  C   UNL     1      -2.714  -4.936   3.432  0.00  0.00    +0.127 A 
ATOM     28  C   UNL     1      -3.019  -4.706   2.098  0.00  0.00    +0.047 A 
ATOM     29  C   UNL     1      -2.025  -4.328   1.218  0.00  0.00    +0.027 A 
BRANCH  27  30
ATOM     30  O   UNL     1      -3.693  -5.309   4.299  0.00  0.00    -0.434 OA
BRANCH  30  31
ATOM     31  C   UNL     1      -5.012  -5.445   3.767  0.00  0.00    +0.541 C 
ATOM     32  F   UNL     1      -5.429  -4.220   3.234  0.00  0.00    -0.166 F 
ATOM     33  F   UNL     1      -5.011  -6.416   2.760  0.00  0.00    -0.166 F 
ENDBRANCH  30  31
ENDBRANCH  27  30
ENDBRANCH  22  24
ENDBRANCH  20  22
ENDBRANCH  18  20
ENDBRANCH   3  18
TORSDOF 8
