REMARK  Name = ZINC40362242
REMARK  16 active torsions:
REMARK  status: ('A' for Active; 'I' for Inactive)
REMARK    1  A    between atoms: C_1  and  C_2
REMARK    2  A    between atoms: C_2  and  C_3
REMARK    3  A    between atoms: C_2  and  C_4
REMARK    4  A    between atoms: C_2  and  C_5
REMARK    5  A    between atoms: C_5  and  C_6
REMARK    6  A    between atoms: C_6  and  C_7
REMARK    7  A    between atoms: C_6  and  C_8
REMARK    8  A    between atoms: C_6  and  N_9
REMARK    9  A    between atoms: N_9  and  C_10
REMARK   10  A    between atoms: C_11  and  C_19
REMARK   11  A    between atoms: C_22  and  O_27
REMARK   12  A    between atoms: C_23  and  O_25
REMARK   13  A    between atoms: O_25  and  C_26
REMARK   14  A    between atoms: O_27  and  S_28
REMARK   15  A    between atoms: S_28  and  C_31
REMARK   16  A    between atoms: C_32  and  C_33
REMARK                            x       y       z     vdW  Elec       q    Type
REMARK                         _______ _______ _______ _____ _____    ______ ____
ROOT
ATOM      1  C   UNL     1       4.946   0.385  -3.396  0.00  0.00    +0.129 A 
ATOM      2  C   UNL     1       5.842   0.382  -4.444  0.00  0.00    +0.087 A 
ATOM      3  N   UNL     1       6.986   0.946  -4.015  0.00  0.00    -0.338 N 
ATOM      4  C   UNL     1       6.849   1.302  -2.748  0.00  0.00    +0.117 A 
ATOM      5  N   UNL     1       5.580   0.969  -2.334  0.00  0.00    -0.289 N 
ATOM      6  C   UNL     1       5.176   1.237  -1.054  0.00  0.00    +0.094 A 
ATOM      7  C   UNL     1       6.013   1.835  -0.182  0.00  0.00    +0.018 A 
ATOM      8  C   UNL     1       7.315   2.191  -0.577  0.00  0.00    +0.005 A 
ATOM      9  C   UNL     1       7.735   1.923  -1.843  0.00  0.00    +0.045 A 
ATOM     10  H   UNL     1       7.785   1.072  -4.551  0.00  0.00    +0.167 HD
ENDROOT
BRANCH   2  11
ATOM     11  C   UNL     1       5.589  -0.149  -5.804  0.00  0.00    +0.005 A 
ATOM     12  C   UNL     1       4.960  -1.383  -5.966  0.00  0.00    +0.014 A 
ATOM     13  C   UNL     1       4.725  -1.877  -7.234  0.00  0.00    +0.053 A 
ATOM     14  C   UNL     1       5.113  -1.148  -8.348  0.00  0.00    +0.198 A 
ATOM     15  C   UNL     1       5.742   0.084  -8.192  0.00  0.00    +0.165 A 
ATOM     16  C   UNL     1       5.975   0.586  -6.924  0.00  0.00    +0.059 A 
BRANCH  15  17
ATOM     17  O   UNL     1       6.123   0.796  -9.286  0.00  0.00    -0.491 OA
ATOM     18  C   UNL     1       6.763   2.052  -9.052  0.00  0.00    +0.277 C 
ENDBRANCH  15  17
BRANCH  14  19
ATOM     19  O   UNL     1       4.879  -1.639  -9.595  0.00  0.00    -0.339 OA
BRANCH  19  20
ATOM     20  S   UNL     1       3.536  -1.228 -10.179  0.00  0.00    +0.144 S 
ATOM     21  O   UNL     1       3.364  -1.982 -11.372  0.00  0.00    -0.132 OA
ATOM     22  O   UNL     1       2.599  -1.268  -9.112  0.00  0.00    -0.132 OA
BRANCH  20  23
ATOM     23  C   UNL     1       3.673   0.460 -10.666  0.00  0.00    +0.178 C 
ATOM     24  C   UNL     1       3.584   0.790 -11.947  0.00  0.00    +0.030 C 
BRANCH  24  25
ATOM     25  C   UNL     1       3.699   2.206 -12.355  0.00  0.00    -0.024 A 
ATOM     26  C   UNL     1       3.907   3.197 -11.395  0.00  0.00    +0.008 A 
ATOM     27  C   UNL     1       4.014   4.517 -11.782  0.00  0.00    +0.001 A 
ATOM     28  C   UNL     1       3.914   4.859 -13.119  0.00  0.00    +0.000 A 
ATOM     29  C   UNL     1       3.708   3.881 -14.076  0.00  0.00    +0.001 A 
ATOM     30  C   UNL     1       3.606   2.556 -13.702  0.00  0.00    +0.008 A 
ENDBRANCH  24  25
ENDBRANCH  20  23
ENDBRANCH  19  20
ENDBRANCH  14  19
ENDBRANCH   2  11
BRANCH   1  31
ATOM     31  N   UNL     1       3.640  -0.109  -3.417  0.00  0.00    -0.323 N 
ATOM     32  H   UNL     1       3.286  -0.511  -4.225  0.00  0.00    +0.148 HD
BRANCH  31  33
ATOM     33  C   UNL     1       2.804  -0.019  -2.217  0.00  0.00    +0.028 C 
ATOM     34  C   UNL     1       2.667   1.446  -1.799  0.00  0.00    +0.031 C 
ATOM     35  C   UNL     1       3.453  -0.815  -1.082  0.00  0.00    +0.031 C 
BRANCH  33  36
ATOM     36  C   UNL     1       1.419  -0.595  -2.516  0.00  0.00    +0.031 C 
BRANCH  36  38
ATOM     37  C   UNL     1       1.541  -1.137  -4.952  0.00  0.00    +0.010 C 
ATOM     38  C   UNL     1       0.978  -0.163  -3.916  0.00  0.00    -0.036 C 
ATOM     39  C   UNL     1       1.502   1.246  -4.203  0.00  0.00    +0.010 C 
ATOM     40  C   UNL     1      -0.550  -0.163  -3.993  0.00  0.00    +0.010 C 
ENDBRANCH  36  38
ENDBRANCH  33  36
ENDBRANCH  31  33
ENDBRANCH   1  31
TORSDOF 10
