REMARK  Name = ZINC66924844
REMARK  9 active torsions:
REMARK  status: ('A' for Active; 'I' for Inactive)
REMARK    1  A    between atoms: C_1  and  C_2
REMARK    2  A    between atoms: C_2  and  N_3
REMARK    3  A    between atoms: N_3  and  C_4
REMARK    4  A    between atoms: C_4  and  C_5
REMARK    5  A    between atoms: C_9  and  C_12
REMARK    6  A    between atoms: C_12  and  N_13
REMARK    7  A    between atoms: N_16  and  C_17
REMARK    8  A    between atoms: C_17  and  C_18
REMARK    9  A    between atoms: C_18  and  O_28
REMARK                            x       y       z     vdW  Elec       q    Type
REMARK                         _______ _______ _______ _____ _____    ______ ____
ROOT
ATOM      1  N   UNL     1      -5.221  -0.462   5.005  0.00  0.00    -0.295 N 
ATOM      2  C   UNL     1      -5.841  -0.451   6.201  0.00  0.00    +0.300 C 
ATOM      3  O   UNL     1      -5.982  -1.486   6.823  0.00  0.00    -0.253 OA
ATOM      4  N   UNL     1      -6.307   0.708   6.708  0.00  0.00    -0.296 N 
ATOM      5  H   UNL     1      -5.109   0.364   4.509  0.00  0.00    +0.151 HD
ATOM      6  H   UNL     1      -6.195   1.534   6.212  0.00  0.00    +0.150 HD
ENDROOT
BRANCH   1   7
ATOM      7  C   UNL     1      -4.715  -1.721   4.453  0.00  0.00    +0.142 C 
BRANCH   7  12
ATOM      8  N   UNL     1      -2.431  -0.775  -0.592  0.00  0.00    -0.317 N 
ATOM      9  C   UNL     1      -2.974  -1.005   0.666  0.00  0.00    +0.099 A 
ATOM     10  C   UNL     1      -2.162  -0.925   1.793  0.00  0.00    +0.042 A 
ATOM     11  C   UNL     1      -2.716  -1.156   3.039  0.00  0.00    +0.010 A 
ATOM     12  C   UNL     1      -4.069  -1.461   3.117  0.00  0.00    -0.014 A 
ATOM     13  C   UNL     1      -4.815  -1.524   1.958  0.00  0.00    +0.089 A 
ATOM     14  N   UNL     1      -4.261  -1.294   0.782  0.00  0.00    -0.349 N 
ATOM     15  H   UNL     1      -4.810  -1.341  -0.016  0.00  0.00    +0.167 HD
BRANCH   8  17
ATOM     16  C   UNL     1      -0.816   1.060  -0.650  0.00  0.00    +0.024 C 
ATOM     17  C   UNL     1      -1.008  -0.456  -0.728  0.00  0.00    +0.103 C 
ENDBRANCH   8  17
BRANCH   8  18
ATOM     18  C   UNL     1      -3.281  -0.852  -1.783  0.00  0.00    +0.103 C 
ATOM     19  C   UNL     1      -3.274  -2.284  -2.323  0.00  0.00    +0.024 C 
ENDBRANCH   8  18
ENDBRANCH   7  12
ENDBRANCH   1   7
BRANCH   4  20
ATOM     20  C   UNL     1      -6.981   0.720   8.008  0.00  0.00    +0.145 C 
BRANCH  20  21
ATOM     21  C   UNL     1      -7.527   2.122   8.287  0.00  0.00    +0.107 C 
ATOM     22  C   UNL     1      -8.470   2.530   7.157  0.00  0.00    +0.041 C 
ATOM     23  C   UNL     1      -9.170   3.833   7.558  0.00  0.00    +0.008 C 
ATOM     24  C   UNL     1     -10.145   3.527   8.694  0.00  0.00    +0.035 C 
ATOM     25  C   UNL     1      -9.452   2.768   9.795  0.00  0.00    -0.041 A 
ATOM     26  C   UNL     1      -8.252   2.120   9.608  0.00  0.00    -0.011 A 
ATOM     27  C   UNL     1      -7.669   1.432  10.664  0.00  0.00    +0.007 A 
ATOM     28  C   UNL     1      -8.281   1.396  11.900  0.00  0.00    +0.000 A 
ATOM     29  C   UNL     1      -9.483   2.050  12.090  0.00  0.00    +0.000 A 
ATOM     30  C   UNL     1     -10.065   2.732  11.041  0.00  0.00    +0.004 A 
BRANCH  21  31
ATOM     31  O   UNL     1      -6.439   3.047   8.348  0.00  0.00    -0.382 OA
ATOM     32  H   UNL     1      -5.792   2.848   9.039  0.00  0.00    +0.211 HD
ENDBRANCH  21  31
ENDBRANCH  20  21
ENDBRANCH   4  20
TORSDOF 7
