REMARK  Name = ZINC64622778
REMARK  6 active torsions:
REMARK  status: ('A' for Active; 'I' for Inactive)
REMARK    1  A    between atoms: C_7  and  C_10
REMARK    2  A    between atoms: C_10  and  C_11
REMARK    3  A    between atoms: C_11  and  N_12
REMARK    4  A    between atoms: C_13  and  C_15
REMARK    5  A    between atoms: C_15  and  N_16
REMARK    6  A    between atoms: C_24  and  C_26
REMARK                            x       y       z     vdW  Elec       q    Type
REMARK                         _______ _______ _______ _____ _____    ______ ____
ROOT
ATOM      1  N   UNL     1      -0.676  -4.058  -1.711  0.00  0.00    -0.314 N 
ATOM      2  C   UNL     1      -0.945  -4.854  -2.765  0.00  0.00    +0.230 C 
ATOM      3  O   UNL     1      -0.488  -4.590  -3.857  0.00  0.00    -0.274 OA
ATOM      4  H   UNL     1      -1.042  -4.270  -0.838  0.00  0.00    +0.149 HD
ENDROOT
BRANCH   1   5
ATOM      5  C   UNL     1       0.166  -2.872  -1.885  0.00  0.00    +0.108 C 
BRANCH   5   6
ATOM      6  C   UNL     1       0.312  -2.149  -0.545  0.00  0.00    +0.052 C 
BRANCH   6  13
ATOM      7  C   UNL     1      -0.670   2.265  -1.325  0.00  0.00    +0.001 A 
ATOM      8  C   UNL     1       0.463   3.083  -1.428  0.00  0.00    +0.002 A 
ATOM      9  C   UNL     1       1.720   2.606  -1.306  0.00  0.00    +0.026 A 
ATOM     10  C   UNL     1       1.944   1.223  -1.064  0.00  0.00    +0.043 A 
ATOM     11  N   UNL     1       3.046   0.531  -0.912  0.00  0.00    -0.380 N 
ATOM     12  C   UNL     1       2.689  -0.874  -0.685  0.00  0.00    +0.144 C 
ATOM     13  C   UNL     1       1.179  -0.929  -0.724  0.00  0.00    -0.040 C 
ATOM     14  C   UNL     1       0.763   0.337  -0.951  0.00  0.00    -0.001 A 
ATOM     15  C   UNL     1      -0.570   0.936  -1.095  0.00  0.00    +0.010 A 
ATOM     16  H   UNL     1       3.948   0.887  -0.945  0.00  0.00    +0.160 HD
ENDBRANCH   6  13
ENDBRANCH   5   6
ENDBRANCH   1   5
BRANCH   2  17
ATOM     17  C   UNL     1      -1.811  -6.074  -2.586  0.00  0.00    +0.201 C 
BRANCH  17  18
ATOM     18  N   UNL     1      -2.053  -6.697  -3.890  0.00  0.00    -0.313 N 
ATOM     19  C   UNL     1      -1.299  -7.741  -4.431  0.00  0.00    +0.034 A 
ATOM     20  C   UNL     1      -0.196  -8.406  -3.892  0.00  0.00    +0.025 A 
ATOM     21  C   UNL     1       0.415  -9.422  -4.595  0.00  0.00    +0.022 A 
ATOM     22  C   UNL     1      -0.062  -9.791  -5.841  0.00  0.00    +0.041 A 
ATOM     23  C   UNL     1      -1.154  -9.137  -6.381  0.00  0.00    +0.025 A 
ATOM     24  C   UNL     1      -1.769  -8.117  -5.679  0.00  0.00    -0.023 A 
ATOM     25  C   UNL     1      -2.958  -7.250  -6.027  0.00  0.00    +0.064 C 
ATOM     26  C   UNL     1      -3.125  -6.319  -4.815  0.00  0.00    +0.115 C 
ATOM     27 CL   UNL     1       0.710 -11.071  -6.724  0.00  0.00    -0.084 Cl
BRANCH  26  28
ATOM     28  C   UNL     1      -4.471  -6.533  -4.171  0.00  0.00    +0.010 A 
ATOM     29  C   UNL     1      -5.548  -5.711  -4.152  0.00  0.00    +0.013 A 
ATOM     30  C   UNL     1      -6.692  -6.119  -3.491  0.00  0.00    +0.008 A 
ATOM     31  C   UNL     1      -6.702  -7.330  -2.882  0.00  0.00    +0.045 A 
ATOM     32  S   UNL     1      -5.062  -7.938  -3.241  0.00  0.00    -0.100 S 
ENDBRANCH  26  28
ENDBRANCH  17  18
ENDBRANCH   2  17
TORSDOF 6
