REMARK  Name = ZINC05085375
REMARK  2 active torsions:
REMARK  status: ('A' for Active; 'I' for Inactive)
REMARK    1  A    between atoms: C_1  and  O_2
REMARK    2  A    between atoms: O_2  and  N_3
REMARK                            x       y       z     vdW  Elec       q    Type
REMARK                         _______ _______ _______ _____ _____    ______ ____
ROOT
ATOM      1  N   UNL     1       0.645   4.214   0.706  0.00  0.00    -0.165 N 
ATOM      2  C   UNL     1       0.738   5.246   1.606  0.00  0.00    +0.251 C 
ATOM      3  O   UNL     1       1.623   6.074   1.644  0.00  0.00    -0.272 OA
ATOM      4  C   UNL     1      -0.459   5.178   2.549  0.00  0.00    +0.093 C 
ATOM      5  C   UNL     1       0.015   5.360   3.989  0.00  0.00    +0.022 C 
ATOM      6  C   UNL     1       0.544   6.784   4.178  0.00  0.00    +0.001 C 
ATOM      7  C   UNL     1      -0.565   7.787   3.854  0.00  0.00    +0.000 C 
ATOM      8  C   UNL     1      -0.998   7.611   2.396  0.00  0.00    +0.001 C 
ATOM      9  C   UNL     1      -1.526   6.188   2.193  0.00  0.00    +0.022 C 
ATOM     10  C   UNL     1      -0.899   3.744   2.330  0.00  0.00    +0.102 C 
ATOM     11  N   UNL     1      -0.987   2.574   2.799  0.00  0.00    -0.090 NA
ATOM     12  O   UNL     1      -0.649   1.576   1.832  0.00  0.00    -0.387 OA
ATOM     13  C   UNL     1      -0.892   2.152   0.556  0.00  0.00    +0.249 C 
ATOM     14  C   UNL     1      -0.703   3.656   0.855  0.00  0.00    +0.146 C 
ATOM     15  C   UNL     1      -1.591   4.334  -0.174  0.00  0.00    +0.038 C 
ATOM     16  C   UNL     1      -0.861   4.101  -1.516  0.00  0.00    +0.004 C 
ATOM     17  C   UNL     1      -0.560   2.635  -1.794  0.00  0.00    +0.019 C 
ATOM     18  C   UNL     1       0.082   1.902  -0.596  0.00  0.00    +0.102 C 
ATOM     19 BR   UNL     1       0.234  -0.023  -0.966  0.00  0.00    -0.084 Br
ENDROOT
BRANCH   1  21
ATOM     20  C   UNL     1       2.624   2.915   0.408  0.00  0.00    +0.227 C 
ATOM     21  O   UNL     1       1.651   3.775  -0.189  0.00  0.00    -0.279 OA
ENDBRANCH   1  21
TORSDOF 1
