REMARK  Name = ZINC48084744
REMARK  5 active torsions:
REMARK  status: ('A' for Active; 'I' for Inactive)
REMARK    1  A    between atoms: C_6  and  C_7
REMARK    2  A    between atoms: C_7  and  C_8
REMARK    3  A    between atoms: C_7  and  O_24
REMARK    4  A    between atoms: C_8  and  N_9
REMARK    5  A    between atoms: N_12  and  C_13
REMARK                            x       y       z     vdW  Elec       q    Type
REMARK                         _______ _______ _______ _____ _____    ______ ____
ROOT
ATOM      1  N   UNL     1      -2.929  -1.894  -1.422  0.00  0.00    -0.296 N 
ATOM      2  C   UNL     1      -3.429  -2.382  -2.575  0.00  0.00    +0.304 C 
ATOM      3  O   UNL     1      -2.787  -2.289  -3.603  0.00  0.00    -0.253 OA
ATOM      4  N   UNL     1      -4.639  -2.974  -2.587  0.00  0.00    -0.268 N 
ATOM      5  H   UNL     1      -3.441  -1.969  -0.601  0.00  0.00    +0.150 HD
ATOM      6  H   UNL     1      -5.121  -3.110  -1.757  0.00  0.00    +0.156 HD
ENDROOT
BRANCH   4   7
ATOM      7  C   UNL     1      -5.202  -3.394  -3.801  0.00  0.00    +0.051 A 
ATOM      8  C   UNL     1      -4.391  -3.897  -4.818  0.00  0.00    +0.028 A 
ATOM      9  C   UNL     1      -4.989  -4.299  -5.998  0.00  0.00    +0.043 A 
ATOM     10  C   UNL     1      -6.369  -4.191  -6.131  0.00  0.00    +0.099 A 
ATOM     11  N   UNL     1      -7.108  -3.708  -5.144  0.00  0.00    -0.348 N 
ATOM     12  C   UNL     1      -6.571  -3.320  -4.002  0.00  0.00    +0.107 A 
ATOM     13  N   UNL     1      -6.981  -4.593  -7.315  0.00  0.00    -0.317 N 
ATOM     14  C   UNL     1      -6.293  -5.151  -8.488  0.00  0.00    +0.106 C 
ATOM     15  C   UNL     1      -7.367  -5.424  -9.563  0.00  0.00    +0.020 C 
ATOM     16  C   UNL     1      -8.524  -4.479  -9.145  0.00  0.00    +0.020 C 
ATOM     17  C   UNL     1      -8.427  -4.537  -7.598  0.00  0.00    +0.106 C 
ATOM     18  H   UNL     1      -8.068  -3.642  -5.261  0.00  0.00    +0.167 HD
ENDBRANCH   4   7
BRANCH   1  19
ATOM     19  C   UNL     1      -1.613  -1.251  -1.408  0.00  0.00    +0.141 C 
BRANCH  19  20
ATOM     20  C   UNL     1      -1.286  -0.789   0.013  0.00  0.00    +0.162 C 
BRANCH  20  26
ATOM     21  C   UNL     1      -0.007   1.362   0.020  0.00  0.00    +0.009 A 
ATOM     22  C   UNL     1       1.180   2.070   0.013  0.00  0.00    +0.041 A 
ATOM     23  C   UNL     1       2.388   1.395  -0.008  0.00  0.00    +0.158 A 
ATOM     24  C   UNL     1       2.405   0.008  -0.022  0.00  0.00    +0.159 A 
ATOM     25  C   UNL     1       1.215  -0.697  -0.015  0.00  0.00    +0.047 A 
ATOM     26  C   UNL     1       0.010  -0.020   0.006  0.00  0.00    -0.015 A 
ATOM     27  F   UNL     1       3.583  -0.653  -0.043  0.00  0.00    -0.202 F 
ATOM     28  F   UNL     1       3.549   2.086  -0.015  0.00  0.00    -0.202 F 
ENDBRANCH  20  26
BRANCH  20  29
ATOM     29  O   UNL     1      -1.158  -1.929   0.866  0.00  0.00    -0.386 OA
ATOM     30  H   UNL     1      -0.462  -2.545   0.599  0.00  0.00    +0.210 HD
ENDBRANCH  20  29
ENDBRANCH  19  20
ENDBRANCH   1  19
TORSDOF 5
