REMARK  Name = ZINC66679514
REMARK  7 active torsions:
REMARK  status: ('A' for Active; 'I' for Inactive)
REMARK    1  A    between atoms: C_1  and  C_2
REMARK    2  A    between atoms: N_7  and  C_9
REMARK    3  A    between atoms: C_9  and  C_11
REMARK    4  A    between atoms: C_9  and  C_12
REMARK    5  A    between atoms: C_12  and  N_13
REMARK    6  A    between atoms: N_16  and  C_17
REMARK    7  A    between atoms: C_21  and  C_23
REMARK                            x       y       z     vdW  Elec       q    Type
REMARK                         _______ _______ _______ _____ _____    ______ ____
ROOT
ATOM      1  N   UNL     1       2.000  -4.565   1.356  0.00  0.00    -0.301 N 
ATOM      2  C   UNL     1       1.960  -5.895   1.143  0.00  0.00    +0.304 C 
ATOM      3  O   UNL     1       1.369  -6.617   1.922  0.00  0.00    -0.253 OA
ATOM      4  N   UNL     1       2.574  -6.424   0.067  0.00  0.00    -0.269 N 
ATOM      5  H   UNL     1       2.471  -3.988   0.734  0.00  0.00    +0.150 HD
ATOM      6  H   UNL     1       2.985  -5.843  -0.592  0.00  0.00    +0.156 HD
ENDROOT
BRANCH   4   7
ATOM      7  C   UNL     1       2.621  -7.813  -0.100  0.00  0.00    +0.035 A 
ATOM      8  C   UNL     1       1.543  -8.597   0.296  0.00  0.00    +0.023 A 
ATOM      9  C   UNL     1       1.585  -9.969   0.133  0.00  0.00    +0.002 A 
ATOM     10  C   UNL     1       2.698 -10.568  -0.423  0.00  0.00    +0.010 A 
ATOM     11  C   UNL     1       3.783  -9.790  -0.823  0.00  0.00    +0.004 A 
ATOM     12  C   UNL     1       3.739  -8.407  -0.665  0.00  0.00    +0.033 A 
BRANCH  11  13
ATOM     13  C   UNL     1       4.979 -10.432  -1.421  0.00  0.00    +0.091 A 
ATOM     14  C   UNL     1       5.014 -11.836  -1.589  0.00  0.00    +0.035 A 
ATOM     15  C   UNL     1       6.130 -12.392  -2.143  0.00  0.00    +0.073 A 
ATOM     16  C   UNL     1       7.184 -11.528  -2.514  0.00  0.00    +0.265 A 
ATOM     17  O   UNL     1       8.202 -11.980  -3.013  0.00  0.00    -0.266 OA
ATOM     18  N   UNL     1       7.058 -10.203  -2.314  0.00  0.00    -0.243 N 
ATOM     19  H   UNL     1       7.785  -9.615  -2.571  0.00  0.00    +0.192 HD
ATOM     20  N   UNL     1       5.998  -9.696  -1.796  0.00  0.00    -0.171 NA
ENDBRANCH  11  13
ENDBRANCH   4   7
BRANCH   1  21
ATOM     21  C   UNL     1       1.332  -3.989   2.525  0.00  0.00    +0.090 C 
BRANCH  21  22
ATOM     22  C   UNL     1       1.418  -2.463   2.463  0.00  0.00    -0.054 C 
ATOM     23  C   UNL     1       0.621  -1.859   3.620  0.00  0.00    -0.012 C 
BRANCH  22  29
ATOM     24  C   UNL     1      -2.606  -2.308  -0.321  0.00  0.00    +0.005 C 
ATOM     25  C   UNL     1      -1.124  -1.935  -0.247  0.00  0.00    -0.031 C 
ATOM     26  C   UNL     1      -0.968  -0.422  -0.418  0.00  0.00    -0.001 C 
ATOM     27  C   UNL     1       0.510  -0.050  -0.265  0.00  0.00    -0.018 C 
ATOM     28  C   UNL     1       1.014  -0.536   1.096  0.00  0.00    -0.078 C 
ATOM     29  N   UNL     1       0.862  -1.993   1.187  0.00  0.00    +0.383 N 
ATOM     30  C   UNL     1      -0.559  -2.352   1.113  0.00  0.00    -0.075 C 
ATOM     31  H   UNL     1       1.358  -2.430   0.425  0.00  0.00    -0.081 HD
ENDBRANCH  22  29
ENDBRANCH  21  22
ENDBRANCH   1  21
TORSDOF 5
