REMARK  Name = ZINC57664360
REMARK  12 active torsions:
REMARK  status: ('A' for Active; 'I' for Inactive)
REMARK    1  A    between atoms: C_1  and  C_2
REMARK    2  A    between atoms: C_2  and  N_3
REMARK    3  A    between atoms: N_3  and  C_4
REMARK    4  A    between atoms: N_3  and  C_12
REMARK    5  A    between atoms: C_4  and  C_5
REMARK    6  A    between atoms: C_5  and  C_6
REMARK    7  A    between atoms: C_12  and  C_13
REMARK    8  A    between atoms: C_13  and  C_14
REMARK    9  A    between atoms: C_14  and  C_16
REMARK   10  A    between atoms: C_14  and  O_24
REMARK   11  A    between atoms: C_19  and  C_23
REMARK   12  A    between atoms: C_20  and  N_22
REMARK                            x       y       z     vdW  Elec       q    Type
REMARK                         _______ _______ _______ _____ _____    ______ ____
ROOT
ATOM      1  C   UNL     1      -1.943   1.509  -1.142  0.00  0.00    +0.017 C 
ENDROOT
BRANCH   1   2
ATOM      2  C   UNL     1      -2.011  -0.019  -1.091  0.00  0.00    -0.076 C 
BRANCH   2   3
ATOM      3  N   UNL     1      -1.274  -0.503   0.084  0.00  0.00    +0.380 N 
ATOM      4  H   UNL     1      -0.336  -0.133   0.069  0.00  0.00    -0.082 HD
BRANCH   3   6
ATOM      5  C   UNL     1      -0.389  -2.430  -1.141  0.00  0.00    -0.017 C 
ATOM      6  C   UNL     1      -1.222  -1.971   0.058  0.00  0.00    -0.082 C 
ENDBRANCH   3   6
BRANCH   3   7
ATOM      7  C   UNL     1      -1.956  -0.059   1.307  0.00  0.00    -0.074 C 
BRANCH   7   8
ATOM      8  C   UNL     1      -1.124  -0.457   2.528  0.00  0.00    +0.017 C 
BRANCH   8   9
ATOM      9  C   UNL     1      -1.823  -0.001   3.782  0.00  0.00    -0.046 A 
ATOM     10  C   UNL     1      -1.580   1.256   4.315  0.00  0.00    +0.023 A 
ATOM     11  C   UNL     1      -2.240   1.639   5.467  0.00  0.00    +0.111 A 
ATOM     12  N   UNL     1      -3.092   0.824   6.058  0.00  0.00    -0.263 NA
ATOM     13  C   UNL     1      -3.348  -0.378   5.581  0.00  0.00    +0.111 A 
ATOM     14  C   UNL     1      -2.730  -0.827   4.429  0.00  0.00    +0.023 A 
ENDBRANCH   8   9
ENDBRANCH   7   8
ENDBRANCH   3   7
ENDBRANCH   2   3
ENDBRANCH   1   2
BRANCH   1  15
ATOM     15  C   UNL     1      -2.592   2.006  -2.435  0.00  0.00    +0.143 C 
BRANCH  15  16
ATOM     16  C   UNL     1      -2.635   3.512  -2.429  0.00  0.00    -0.017 A 
ATOM     17  C   UNL     1      -1.539   4.237  -2.862  0.00  0.00    +0.006 A 
ATOM     18  C   UNL     1      -1.574   5.619  -2.858  0.00  0.00    +0.005 A 
ATOM     19  C   UNL     1      -2.705   6.281  -2.420  0.00  0.00    -0.030 A 
ATOM     20  C   UNL     1      -3.807   5.557  -1.984  0.00  0.00    +0.028 A 
ATOM     21  C   UNL     1      -3.770   4.168  -1.995  0.00  0.00    +0.029 A 
ATOM     22  C   UNL     1      -2.742   7.787  -2.415  0.00  0.00    +0.045 C 
BRANCH  20  23
ATOM     23  N   UNL     1      -4.952   6.223  -1.541  0.00  0.00    -0.358 N 
ATOM     24  H   UNL     1      -4.978   7.193  -1.538  0.00  0.00    +0.142 HD
ATOM     25  H   UNL     1      -5.721   5.716  -1.237  0.00  0.00    +0.142 HD
ENDBRANCH  20  23
ENDBRANCH  15  16
BRANCH  15  26
ATOM     26  O   UNL     1      -1.827   1.556  -3.555  0.00  0.00    -0.387 OA
ATOM     27  H   UNL     1      -0.912   1.868  -3.557  0.00  0.00    +0.210 HD
ENDBRANCH  15  26
ENDBRANCH   1  15
TORSDOF 10
