REMARK  Name = ZINC36660408
REMARK  13 active torsions:
REMARK  status: ('A' for Active; 'I' for Inactive)
REMARK    1  A    between atoms: C_1  and  C_2
REMARK    2  A    between atoms: C_2  and  N_3
REMARK    3  A    between atoms: N_3  and  C_4
REMARK    4  A    between atoms: N_3  and  C_6
REMARK    5  A    between atoms: C_4  and  C_5
REMARK    6  A    between atoms: C_6  and  C_7
REMARK    7  A    between atoms: C_7  and  N_8
REMARK    8  A    between atoms: C_12  and  C_18
REMARK    9  A    between atoms: C_19  and  C_21
REMARK   10  A    between atoms: N_26  and  S_27
REMARK   11  A    between atoms: S_27  and  C_30
REMARK   12  A    between atoms: C_33  and  O_36
REMARK   13  A    between atoms: O_36  and  C_37
REMARK                            x       y       z     vdW  Elec       q    Type
REMARK                         _______ _______ _______ _____ _____    ______ ____
ROOT
ATOM      1  N   UNL     1      -2.949  -5.396   0.044  0.00  0.00    -0.251 N 
ATOM      2  C   UNL     1      -3.061  -5.998   1.287  0.00  0.00    +0.168 A 
ATOM      3  N   UNL     1      -3.057  -7.277   1.585  0.00  0.00    -0.224 NA
ATOM      4  C   UNL     1      -3.176  -7.727   2.853  0.00  0.00    +0.083 A 
ATOM      5  C   UNL     1      -3.187  -9.066   3.307  0.00  0.00    -0.024 A 
ATOM      6  C   UNL     1      -3.317  -9.352   4.641  0.00  0.00    +0.005 A 
ATOM      7  C   UNL     1      -3.442  -8.347   5.589  0.00  0.00    +0.001 A 
ATOM      8  C   UNL     1      -3.435  -7.026   5.181  0.00  0.00    +0.017 A 
ATOM      9  C   UNL     1      -3.305  -6.730   3.847  0.00  0.00    +0.041 A 
ATOM     10  S   UNL     1      -3.239  -5.233   2.892  0.00  0.00    -0.052 S 
ATOM     11  C   UNL     1      -3.055 -10.191   2.313  0.00  0.00    +0.046 C 
ATOM     12  C   UNL     1      -2.821  -6.154  -1.063  0.00  0.00    +0.240 C 
ATOM     13  O   UNL     1      -2.892  -7.361  -0.983  0.00  0.00    -0.273 OA
ENDROOT
BRANCH  12  14
ATOM     14  C   UNL     1      -2.589  -5.499  -2.401  0.00  0.00    +0.166 C 
ATOM     15  C   UNL     1      -3.940  -5.243  -3.100  0.00  0.00    +0.031 C 
ATOM     16  C   UNL     1      -3.626  -5.555  -4.588  0.00  0.00    +0.019 C 
ATOM     17  C   UNL     1      -2.622  -6.727  -4.454  0.00  0.00    +0.110 C 
ATOM     18  N   UNL     1      -1.808  -6.395  -3.266  0.00  0.00    -0.165 NA
BRANCH  18  19
ATOM     19  S   UNL     1      -0.274  -6.938  -2.960  0.00  0.00    +0.062 S 
ATOM     20  O   UNL     1       0.333  -7.174  -4.223  0.00  0.00    -0.153 OA
ATOM     21  O   UNL     1       0.285  -6.054  -1.998  0.00  0.00    -0.153 OA
BRANCH  19  22
ATOM     22  C   UNL     1      -0.425  -8.508  -2.173  0.00  0.00    +0.106 A 
ATOM     23  C   UNL     1      -0.389  -8.594  -0.793  0.00  0.00    +0.032 A 
ATOM     24  C   UNL     1      -0.506  -9.823  -0.174  0.00  0.00    +0.047 A 
ATOM     25  C   UNL     1      -0.661 -10.972  -0.937  0.00  0.00    +0.120 A 
ATOM     26  C   UNL     1      -0.698 -10.882  -2.321  0.00  0.00    +0.047 A 
ATOM     27  C   UNL     1      -0.585  -9.650  -2.936  0.00  0.00    +0.032 A 
BRANCH  25  28
ATOM     28  O   UNL     1      -0.776 -12.182  -0.331  0.00  0.00    -0.495 OA
ATOM     29  C   UNL     1      -0.933 -13.321  -1.179  0.00  0.00    +0.277 C 
ENDBRANCH  25  28
ENDBRANCH  19  22
ENDBRANCH  18  19
ENDBRANCH  12  14
BRANCH   1  30
ATOM     30  C   UNL     1      -2.971  -3.935  -0.066  0.00  0.00    +0.097 C 
BRANCH  30  31
ATOM     31  C   UNL     1      -1.541  -3.396   0.020  0.00  0.00    -0.059 C 
BRANCH  31  32
ATOM     32  N   UNL     1      -1.549  -1.947  -0.219  0.00  0.00    +0.380 N 
ATOM     33  H   UNL     1      -2.018  -1.752  -1.091  0.00  0.00    -0.082 HD
BRANCH  32  35
ATOM     34  C   UNL     1      -2.375   0.220   0.570  0.00  0.00    -0.017 C 
ATOM     35  C   UNL     1      -2.257  -1.274   0.878  0.00  0.00    -0.082 C 
ENDBRANCH  32  35
BRANCH  32  36
ATOM     36  C   UNL     1      -0.167  -1.454  -0.285  0.00  0.00    -0.082 C 
ATOM     37  C   UNL     1       0.528  -2.046  -1.512  0.00  0.00    -0.017 C 
ENDBRANCH  32  36
ENDBRANCH  31  32
ENDBRANCH  30  31
ENDBRANCH   1  30
TORSDOF 9
