REMARK  Name = ZINC56912092
REMARK  4 active torsions:
REMARK  status: ('A' for Active; 'I' for Inactive)
REMARK    1  A    between atoms: C_1  and  C_2
REMARK    2  A    between atoms: C_6  and  N_8
REMARK    3  A    between atoms: C_9  and  N_27
REMARK    4  A    between atoms: C_16  and  C_18
REMARK                            x       y       z     vdW  Elec       q    Type
REMARK                         _______ _______ _______ _____ _____    ______ ____
ROOT
ATOM      1  N   UNL     1       0.052  -2.798   2.395  0.00  0.00    -0.215 N 
ATOM      2  C   UNL     1      -0.557  -3.991   2.632  0.00  0.00    +0.146 A 
ATOM      3  C   UNL     1      -0.298  -4.332   3.924  0.00  0.00    +0.037 A 
ATOM      4  C   UNL     1       0.486  -3.323   4.487  0.00  0.00    +0.087 A 
ATOM      5  N   UNL     1       0.702  -2.409   3.572  0.00  0.00    -0.168 NA
ATOM      6  C   UNL     1       0.782  -3.687   5.920  0.00  0.00    +0.166 C 
ATOM      7  N   UNL     1       0.134  -4.972   6.199  0.00  0.00    -0.285 N 
ATOM      8  C   UNL     1      -0.544  -5.391   4.968  0.00  0.00    +0.149 C 
ATOM      9  C   UNL     1       0.158  -5.643   7.367  0.00  0.00    +0.272 C 
ATOM     10  O   UNL     1      -0.423  -6.706   7.470  0.00  0.00    -0.268 OA
ENDROOT
BRANCH   9  11
ATOM     11  C   UNL     1       0.889  -5.086   8.525  0.00  0.00    +0.164 A 
ATOM     12  N   UNL     1       1.565  -3.961   8.611  0.00  0.00    -0.234 NA
ATOM     13  C   UNL     1       2.186  -3.573   9.729  0.00  0.00    +0.079 A 
ATOM     14  C   UNL     1       2.942  -2.393   9.948  0.00  0.00    +0.029 A 
ATOM     15  C   UNL     1       3.513  -2.147  11.154  0.00  0.00    +0.002 A 
ATOM     16  C   UNL     1       3.385  -3.031  12.219  0.00  0.00    +0.001 A 
ATOM     17  C   UNL     1       2.658  -4.193  12.051  0.00  0.00    +0.017 A 
ATOM     18  C   UNL     1       2.074  -4.455  10.834  0.00  0.00    +0.040 A 
ATOM     19  S   UNL     1       1.076  -5.765  10.168  0.00  0.00    -0.063 S 
ENDBRANCH   9  11
BRANCH   1  25
ATOM     20  C   UNL     1      -0.018   1.503   0.010  0.00  0.00    +0.044 C 
ATOM     21  C   UNL     1       0.002  -0.004   0.002  0.00  0.00    -0.048 A 
ATOM     22  C   UNL     1       0.006  -0.688  -1.200  0.00  0.00    +0.003 A 
ATOM     23  C   UNL     1       0.025  -2.071  -1.212  0.00  0.00    +0.002 A 
ATOM     24  C   UNL     1       0.040  -2.773  -0.022  0.00  0.00    +0.028 A 
ATOM     25  C   UNL     1       0.036  -2.089   1.186  0.00  0.00    +0.068 A 
ATOM     26  C   UNL     1       0.023  -0.700   1.194  0.00  0.00    +0.031 A 
ENDBRANCH   1  25
BRANCH   2  27
ATOM     27  N   UNL     1      -1.311  -4.731   1.717  0.00  0.00    -0.308 N 
ATOM     28  C   UNL     1      -1.222  -6.080   1.517  0.00  0.00    +0.092 A 
ATOM     29  C   UNL     1      -2.105  -6.423   0.557  0.00  0.00    +0.019 A 
ATOM     30  C   UNL     1      -2.765  -5.246   0.149  0.00  0.00    +0.019 A 
ATOM     31  C   UNL     1      -2.264  -4.227   0.878  0.00  0.00    +0.092 A 
ENDBRANCH   2  27
TORSDOF 3
