REMARK  Name = ZINC45522005
REMARK  12 active torsions:
REMARK  status: ('A' for Active; 'I' for Inactive)
REMARK    1  A    between atoms: C_1  and  C_2
REMARK    2  A    between atoms: C_2  and  N_3
REMARK    3  A    between atoms: C_7  and  C_9
REMARK    4  A    between atoms: C_9  and  N_10
REMARK    5  A    between atoms: N_10  and  C_11
REMARK    6  A    between atoms: C_11  and  N_13
REMARK    7  A    between atoms: N_13  and  C_14
REMARK    8  A    between atoms: C_14  and  C_15
REMARK    9  A    between atoms: C_15  and  C_17
REMARK   10  A    between atoms: C_15  and  N_25
REMARK   11  A    between atoms: C_20  and  O_23
REMARK   12  A    between atoms: O_23  and  C_24
REMARK                            x       y       z     vdW  Elec       q    Type
REMARK                         _______ _______ _______ _____ _____    ______ ____
ROOT
ATOM      1  C   UNL     1       6.436  -1.385  -1.147  0.00  0.00    +0.092 C 
ENDROOT
BRANCH   1   2
ATOM      2  N   UNL     1       7.236  -1.070   0.039  0.00  0.00    -0.328 N 
ATOM      3  H   UNL     1       7.978  -0.448  -0.028  0.00  0.00    +0.148 HD
BRANCH   2   4
ATOM      4  C   UNL     1       6.942  -1.643   1.222  0.00  0.00    +0.130 C 
ATOM      5  S   UNL     1       5.633  -2.740   1.340  0.00  0.00    -0.019 S 
BRANCH   4   6
ATOM      6  N   UNL     1       7.678  -1.353   2.313  0.00  0.00    -0.328 N 
ATOM      7  H   UNL     1       8.420  -0.731   2.247  0.00  0.00    +0.148 HD
BRANCH   6   8
ATOM      8  C   UNL     1       7.358  -1.976   3.600  0.00  0.00    +0.088 C 
BRANCH   8  13
ATOM      9  N   UNL     1       9.724  -1.728   4.226  0.00  0.00    +0.382 N 
ATOM     10  C   UNL     1      10.367  -2.644   5.192  0.00  0.00    -0.078 C 
ATOM     11  C   UNL     1       9.573  -2.451   6.508  0.00  0.00    -0.020 C 
ATOM     12  C   UNL     1       8.127  -2.263   5.978  0.00  0.00    -0.016 C 
ATOM     13  C   UNL     1       8.338  -1.480   4.665  0.00  0.00    -0.051 C 
ATOM     14  H   UNL     1       9.719  -2.152   3.310  0.00  0.00    -0.081 HD
BRANCH   9  16
ATOM     15  C   UNL     1      11.860  -0.704   3.606  0.00  0.00    -0.017 C 
ATOM     16  C   UNL     1      10.463  -0.460   4.180  0.00  0.00    -0.082 C 
ENDBRANCH   9  16
ENDBRANCH   8  13
ENDBRANCH   6   8
ENDBRANCH   4   6
ENDBRANCH   2   4
ENDBRANCH   1   2
BRANCH   1  17
ATOM     17  C   UNL     1       6.905  -0.525  -2.322  0.00  0.00    -0.020 C 
BRANCH  17  18
ATOM     18  N   UNL     1       6.041  -0.772  -3.485  0.00  0.00    +0.385 N 
ATOM     19  C   UNL     1       6.525   0.012  -4.628  0.00  0.00    -0.078 C 
ATOM     20  C   UNL     1       5.679  -0.303  -5.863  0.00  0.00    -0.019 C 
ATOM     21  C   UNL     1       4.217   0.055  -5.578  0.00  0.00    -0.004 C 
ATOM     22  C   UNL     1       3.745  -0.712  -4.340  0.00  0.00    -0.019 C 
ATOM     23  C   UNL     1       4.664  -0.382  -3.161  0.00  0.00    -0.078 C 
ATOM     24  H   UNL     1       6.066  -1.753  -3.719  0.00  0.00    -0.081 HD
ENDBRANCH  17  18
BRANCH  17  25
ATOM     25  C   UNL     1       8.328  -0.880  -2.669  0.00  0.00    -0.059 A 
ATOM     26  C   UNL     1       8.592  -2.001  -3.435  0.00  0.00    +0.005 A 
ATOM     27  C   UNL     1       9.896  -2.329  -3.753  0.00  0.00    +0.046 A 
ATOM     28  C   UNL     1      10.940  -1.532  -3.305  0.00  0.00    +0.120 A 
ATOM     29  C   UNL     1      10.671  -0.408  -2.537  0.00  0.00    +0.046 A 
ATOM     30  C   UNL     1       9.366  -0.082  -2.225  0.00  0.00    +0.005 A 
BRANCH  28  31
ATOM     31  O   UNL     1      12.223  -1.853  -3.617  0.00  0.00    -0.495 OA
ATOM     32  C   UNL     1      13.247  -0.988  -3.121  0.00  0.00    +0.277 C 
ENDBRANCH  28  31
ENDBRANCH  17  25
ENDBRANCH   1  17
TORSDOF 10
