REMARK  Name = ZINC23038453
REMARK  10 active torsions:
REMARK  status: ('A' for Active; 'I' for Inactive)
REMARK    1  A    between atoms: C_1  and  C_2
REMARK    2  A    between atoms: C_2  and  C_4
REMARK    3  A    between atoms: C_2  and  N_16
REMARK    4  A    between atoms: N_6  and  C_7
REMARK    5  A    between atoms: C_11  and  N_13
REMARK    6  A    between atoms: N_16  and  C_17
REMARK    7  A    between atoms: N_16  and  C_18
REMARK    8  A    between atoms: C_18  and  C_19
REMARK    9  A    between atoms: N_21  and  C_22
REMARK   10  A    between atoms: C_26  and  C_28
REMARK                            x       y       z     vdW  Elec       q    Type
REMARK                         _______ _______ _______ _____ _____    ______ ____
ROOT
ATOM      1  N   UNL     1       2.433   7.942   0.327  0.00  0.00    +0.391 N 
ATOM      2  C   UNL     1       3.153   7.713  -0.933  0.00  0.00    -0.094 C 
ATOM      3  H   UNL     1       2.956   7.388   1.120  0.00  0.00    -0.080 HD
ENDROOT
BRANCH   1   5
ATOM      4  C   UNL     1       0.359   8.033  -0.972  0.00  0.00    -0.004 C 
ATOM      5  C   UNL     1       1.059   7.431   0.248  0.00  0.00    +0.017 C 
BRANCH   5   6
ATOM      6  C   UNL     1       1.088   5.929   0.121  0.00  0.00    +0.203 C 
ATOM      7  O   UNL     1       2.150   5.343   0.097  0.00  0.00    -0.277 OA
ATOM      8  N   UNL     1      -0.066   5.238   0.033  0.00  0.00    -0.287 N 
ATOM      9  H   UNL     1      -1.024   5.774  -0.030  0.00  0.00    +0.155 HD
BRANCH   8  10
ATOM     10  C   UNL     1      -0.044   3.839   0.022  0.00  0.00    +0.035 A 
ATOM     11  C   UNL     1       0.921   3.152   0.748  0.00  0.00    +0.023 A 
ATOM     12  C   UNL     1       0.941   1.772   0.735  0.00  0.00    +0.004 A 
ATOM     13  C   UNL     1       0.001   1.073  -0.001  0.00  0.00    +0.033 A 
ATOM     14  C   UNL     1      -0.958   1.753  -0.729  0.00  0.00    +0.128 A 
ATOM     15  C   UNL     1      -0.986   3.134  -0.715  0.00  0.00    +0.056 A 
BRANCH  14  16
ATOM     16  N   UNL     1      -1.958   1.001  -1.519  0.00  0.00    +0.056 N 
ATOM     17  O   UNL     1      -1.936  -0.217  -1.528  0.00  0.00    -0.126 OA
ATOM     18  O   UNL     1      -2.803   1.600  -2.160  0.00  0.00    -0.126 OA
ENDBRANCH  14  16
ENDBRANCH   8  10
ENDBRANCH   5   6
ENDBRANCH   1   5
BRANCH   1  19
ATOM     19  C   UNL     1       2.445   9.366   0.688  0.00  0.00    +0.020 C 
BRANCH  19  20
ATOM     20  C   UNL     1       3.857   9.794   0.998  0.00  0.00    +0.201 C 
ATOM     21  O   UNL     1       4.763   8.992   0.925  0.00  0.00    -0.278 OA
ATOM     22  N   UNL     1       4.112  11.068   1.356  0.00  0.00    -0.287 N 
ATOM     23  H   UNL     1       3.282  11.777   1.495  0.00  0.00    +0.155 HD
BRANCH  22  24
ATOM     24  C   UNL     1       5.432  11.490   1.550  0.00  0.00    +0.034 A 
ATOM     25  C   UNL     1       6.367  10.620   2.097  0.00  0.00    +0.025 A 
ATOM     26  C   UNL     1       7.670  11.037   2.284  0.00  0.00    +0.022 A 
ATOM     27  C   UNL     1       8.043  12.324   1.935  0.00  0.00    +0.053 A 
ATOM     28  C   UNL     1       7.112  13.194   1.394  0.00  0.00    +0.075 A 
ATOM     29  C   UNL     1       5.809  12.780   1.201  0.00  0.00    +0.037 A 
ATOM     30 CL   UNL     1       9.680  12.847   2.176  0.00  0.00    -0.083 Cl
BRANCH  28  31
ATOM     31  C   UNL     1       7.522  14.594   1.016  0.00  0.00    +0.419 C 
ATOM     32  F   UNL     1       6.418  15.277   0.494  0.00  0.00    -0.166 F 
ATOM     33  F   UNL     1       7.993  15.264   2.149  0.00  0.00    -0.166 F 
ATOM     34  F   UNL     1       8.534  14.539   0.052  0.00  0.00    -0.166 F 
ENDBRANCH  28  31
ENDBRANCH  22  24
ENDBRANCH  19  20
ENDBRANCH   1  19
TORSDOF 8
