REMARK  Name = ZINC67625965
REMARK  12 active torsions:
REMARK  status: ('A' for Active; 'I' for Inactive)
REMARK    1  A    between atoms: C_1  and  C_2
REMARK    2  A    between atoms: C_3  and  C_9
REMARK    3  A    between atoms: C_4  and  C_8
REMARK    4  A    between atoms: N_5  and  C_7
REMARK    5  A    between atoms: C_9  and  C_10
REMARK    6  A    between atoms: C_10  and  N_11
REMARK    7  A    between atoms: N_14  and  C_15
REMARK    8  A    between atoms: C_15  and  C_16
REMARK    9  A    between atoms: C_16  and  C_18
REMARK   10  A    between atoms: C_16  and  O_26
REMARK   11  A    between atoms: C_18  and  N_19
REMARK   12  A    between atoms: C_22  and  C_25
REMARK                            x       y       z     vdW  Elec       q    Type
REMARK                         _______ _______ _______ _____ _____    ______ ____
ROOT
ATOM      1  N   UNL     1       1.418   0.300  -4.447  0.00  0.00    -0.299 N 
ATOM      2  C   UNL     1       2.579   0.528  -5.093  0.00  0.00    +0.300 C 
ATOM      3  O   UNL     1       3.637   0.351  -4.522  0.00  0.00    -0.253 OA
ATOM      4  N   UNL     1       2.566   0.953  -6.372  0.00  0.00    -0.297 N 
ATOM      5  H   UNL     1       0.573   0.441  -4.903  0.00  0.00    +0.150 HD
ATOM      6  H   UNL     1       1.721   1.094  -6.828  0.00  0.00    +0.150 HD
ENDROOT
BRANCH   1   7
ATOM      7  C   UNL     1       1.431  -0.162  -3.057  0.00  0.00    +0.110 C 
BRANCH   7   8
ATOM      8  C   UNL     1      -0.006  -0.343  -2.566  0.00  0.00    +0.057 C 
BRANCH   8  11
ATOM      9  C   UNL     1      -0.018   1.503   0.010  0.00  0.00    +0.068 C 
ATOM     10  C   UNL     1       0.002  -0.004   0.002  0.00  0.00    +0.063 A 
ATOM     11  C   UNL     1       0.008  -0.818  -1.135  0.00  0.00    -0.003 A 
ATOM     12  C   UNL     1       0.028  -2.107  -0.725  0.00  0.00    +0.039 A 
ATOM     13  N   UNL     1       0.034  -2.109   0.625  0.00  0.00    -0.271 N 
ATOM     14  N   UNL     1       0.023  -0.777   1.058  0.00  0.00    -0.176 NA
ATOM     15  C   UNL     1       0.055  -3.295   1.485  0.00  0.00    +0.172 C 
ATOM     16  C   UNL     1       0.040  -3.323  -1.615  0.00  0.00    +0.065 C 
ENDBRANCH   8  11
ENDBRANCH   7   8
ENDBRANCH   1   7
BRANCH   4  17
ATOM     17  C   UNL     1       3.828   1.202  -7.074  0.00  0.00    +0.135 C 
BRANCH  17  18
ATOM     18  C   UNL     1       3.534   1.672  -8.500  0.00  0.00    +0.115 C 
BRANCH  18  19
ATOM     19  O   UNL     1       2.795   0.663  -9.191  0.00  0.00    -0.392 OA
ATOM     20  H   UNL     1       3.256  -0.185  -9.259  0.00  0.00    +0.210 HD
ENDBRANCH  18  19
BRANCH  18  21
ATOM     21  C   UNL     1       4.852   1.932  -9.233  0.00  0.00    -0.046 C 
BRANCH  21  22
ATOM     22  N   UNL     1       4.571   2.496 -10.559  0.00  0.00    +0.381 N 
ATOM     23  C   UNL     1       3.937   3.811 -10.406  0.00  0.00    -0.078 C 
ATOM     24  C   UNL     1       3.569   4.368 -11.783  0.00  0.00    -0.016 C 
ATOM     25  C   UNL     1       4.839   4.507 -12.627  0.00  0.00    -0.018 C 
ATOM     26  C   UNL     1       5.532   3.145 -12.719  0.00  0.00    -0.016 C 
ATOM     27  C   UNL     1       5.827   2.633 -11.307  0.00  0.00    -0.078 C 
ATOM     28  C   UNL     1       4.469   4.989 -14.032  0.00  0.00    +0.007 C 
ATOM     29  H   UNL     1       3.948   1.881 -11.061  0.00  0.00    -0.082 HD
ENDBRANCH  21  22
ENDBRANCH  18  21
ENDBRANCH  17  18
ENDBRANCH   4  17
TORSDOF 8
