REMARK  Name = ZINC29449311
REMARK  13 active torsions:
REMARK  status: ('A' for Active; 'I' for Inactive)
REMARK    1  A    between atoms: C_1  and  C_2
REMARK    2  A    between atoms: C_2  and  N_3
REMARK    3  A    between atoms: N_3  and  C_4
REMARK    4  A    between atoms: N_3  and  C_18
REMARK    5  A    between atoms: C_4  and  C_5
REMARK    6  A    between atoms: C_5  and  C_6
REMARK    7  A    between atoms: N_8  and  C_9
REMARK    8  A    between atoms: C_12  and  C_15
REMARK    9  A    between atoms: C_18  and  C_19
REMARK   10  A    between atoms: N_21  and  C_22
REMARK   11  A    between atoms: C_22  and  C_24
REMARK   12  A    between atoms: C_22  and  C_31
REMARK   13  A    between atoms: C_27  and  C_30
REMARK                            x       y       z     vdW  Elec       q    Type
REMARK                         _______ _______ _______ _____ _____    ______ ____
ROOT
ATOM      1  N   UNL     1       1.560  -2.854  -4.766  0.00  0.00    +0.386 N 
ATOM      2  H   UNL     1       1.577  -1.952  -5.394  0.00  0.00    -0.081 HD
ENDROOT
BRANCH   1   4
ATOM      3  C   UNL     1       2.952  -4.374  -3.443  0.00  0.00    -0.017 C 
ATOM      4  C   UNL     1       2.935  -3.124  -4.325  0.00  0.00    -0.082 C 
ENDBRANCH   1   4
BRANCH   1   5
ATOM      5  C   UNL     1       1.042  -3.961  -5.581  0.00  0.00    -0.069 C 
BRANCH   5   6
ATOM      6  C   UNL     1       1.735  -3.959  -6.945  0.00  0.00    +0.077 C 
BRANCH   6   7
ATOM      7  C   UNL     1       1.200  -5.091  -7.783  0.00  0.00    +0.215 C 
ATOM      8  O   UNL     1       0.348  -5.828  -7.333  0.00  0.00    -0.276 OA
ATOM      9  N   UNL     1       1.669  -5.285  -9.031  0.00  0.00    -0.286 N 
ATOM     10  H   UNL     1       2.495  -4.667  -9.411  0.00  0.00    +0.155 HD
BRANCH   9  11
ATOM     11  C   UNL     1       1.105  -6.270  -9.842  0.00  0.00    +0.033 A 
ATOM     12  C   UNL     1       0.670  -7.466  -9.281  0.00  0.00    +0.024 A 
ATOM     13  C   UNL     1       0.109  -8.438 -10.078  0.00  0.00    +0.015 A 
ATOM     14  C   UNL     1      -0.013  -8.227 -11.454  0.00  0.00    +0.037 A 
ATOM     15  C   UNL     1       0.430  -7.027 -12.015  0.00  0.00    +0.015 A 
ATOM     16  C   UNL     1       0.985  -6.057 -11.212  0.00  0.00    +0.024 A 
BRANCH  14  17
ATOM     17  C   UNL     1      -0.610  -9.270 -12.312  0.00  0.00    +0.242 C 
ATOM     18  O   UNL     1      -0.716  -9.084 -13.509  0.00  0.00    -0.270 OA
ATOM     19  N   UNL     1      -1.037 -10.427 -11.768  0.00  0.00    -0.325 N 
ATOM     20  H   UNL     1      -1.481 -11.204 -12.408  0.00  0.00    +0.145 HD
ATOM     21  H   UNL     1      -0.941 -10.594 -10.685  0.00  0.00    +0.145 HD
ENDBRANCH  14  17
ENDBRANCH   9  11
ENDBRANCH   6   7
ENDBRANCH   5   6
ENDBRANCH   1   5
BRANCH   1  22
ATOM     22  C   UNL     1       0.682  -2.589  -3.619  0.00  0.00    +0.019 C 
BRANCH  22  23
ATOM     23  C   UNL     1       1.102  -1.306  -2.950  0.00  0.00    +0.197 C 
ATOM     24  O   UNL     1       2.041  -0.674  -3.387  0.00  0.00    -0.278 OA
ATOM     25  N   UNL     1       0.435  -0.860  -1.867  0.00  0.00    -0.306 N 
ATOM     26  H   UNL     1      -0.417  -1.433  -1.472  0.00  0.00    +0.150 HD
BRANCH  25  27
ATOM     27  C   UNL     1       0.843   0.388  -1.218  0.00  0.00    +0.140 C 
BRANCH  27  28
ATOM     28  C   UNL     1       0.412   0.367   0.226  0.00  0.00    -0.022 A 
ATOM     29  C   UNL     1      -0.823  -0.149   0.572  0.00  0.00    +0.006 A 
ATOM     30  C   UNL     1      -1.216  -0.173   1.897  0.00  0.00    +0.004 A 
ATOM     31  C   UNL     1      -0.378   0.329   2.875  0.00  0.00    -0.050 A 
ATOM     32  C   UNL     1       0.855   0.849   2.529  0.00  0.00    +0.004 A 
ATOM     33  C   UNL     1       1.250   0.868   1.205  0.00  0.00    +0.006 A 
ATOM     34  C   UNL     1      -0.809   0.308   4.319  0.00  0.00    +0.044 C 
ENDBRANCH  27  28
BRANCH  27  35
ATOM     35  C   UNL     1       0.196   1.554  -1.918  0.00  0.00    +0.014 A 
ATOM     36  C   UNL     1       0.721   2.767  -2.220  0.00  0.00    +0.013 A 
ATOM     37  C   UNL     1      -0.068   3.695  -2.874  0.00  0.00    +0.008 A 
ATOM     38  C   UNL     1      -1.343   3.365  -3.194  0.00  0.00    +0.045 A 
ATOM     39  S   UNL     1      -1.462   1.698  -2.564  0.00  0.00    -0.099 S 
ENDBRANCH  27  35
ENDBRANCH  25  27
ENDBRANCH  22  23
ENDBRANCH   1  22
TORSDOF 11
