REMARK  Name = ZINC01930764
REMARK  13 active torsions:
REMARK  status: ('A' for Active; 'I' for Inactive)
REMARK    1  A    between atoms: C_1  and  C_2
REMARK    2  A    between atoms: C_2  and  O_3
REMARK    3  A    between atoms: O_3  and  C_4
REMARK    4  A    between atoms: C_4  and  C_6
REMARK    5  A    between atoms: C_7  and  C_30
REMARK    6  A    between atoms: C_8  and  C_29
REMARK    7  A    between atoms: C_10  and  N_11
REMARK    8  A    between atoms: C_12  and  C_14
REMARK    9  A    between atoms: C_14  and  N_59
REMARK   10  A    between atoms: C_15  and  C_16
REMARK   11  A    between atoms: C_15  and  N_59
REMARK   12  A    between atoms: C_22  and  C_23
REMARK   13  A    between atoms: C_22  and  N_59
REMARK                            x       y       z     vdW  Elec       q    Type
REMARK                         _______ _______ _______ _____ _____    ______ ____
ROOT
ATOM      1  C   UNL     1      -1.338  -3.155   4.391  0.00  0.00    +0.020 C 
ENDROOT
BRANCH   1   3
ATOM      2  N   UNL     1      -1.110  -3.231   1.929  0.00  0.00    -0.281 N 
ATOM      3  C   UNL     1      -1.146  -3.903   3.097  0.00  0.00    +0.201 C 
ATOM      4  O   UNL     1      -1.023  -5.110   3.107  0.00  0.00    -0.278 OA
ATOM      5  H   UNL     1      -1.208  -2.266   1.922  0.00  0.00    +0.155 HD
BRANCH   2  10
ATOM      6  C   UNL     1      -0.869  -3.409  -0.553  0.00  0.00    +0.091 A 
ATOM      7  C   UNL     1      -0.670  -4.363  -1.618  0.00  0.00    -0.025 A 
ATOM      8  C   UNL     1      -0.569  -5.658  -1.272  0.00  0.00    -0.008 A 
ATOM      9  S   UNL     1      -0.740  -5.623   0.500  0.00  0.00    -0.078 S 
ATOM     10  C   UNL     1      -0.933  -3.919   0.739  0.00  0.00    +0.086 A 
ATOM     11  C   UNL     1      -0.359  -6.852  -2.168  0.00  0.00    +0.052 C 
ATOM     12  C   UNL     1      -0.579  -3.925  -3.058  0.00  0.00    +0.045 C 
BRANCH   6  13
ATOM     13  C   UNL     1      -0.993  -1.974  -0.819  0.00  0.00    +0.342 C 
ATOM     14  O   UNL     1      -2.087  -1.486  -1.028  0.00  0.00    -0.245 OA
BRANCH  13  15
ATOM     15  O   UNL     1       0.107  -1.194  -0.832  0.00  0.00    -0.461 OA
BRANCH  15  17
ATOM     16  C   UNL     1       1.261   0.937  -1.077  0.00  0.00    +0.048 C 
ATOM     17  C   UNL     1      -0.090   0.219  -1.103  0.00  0.00    +0.229 C 
ENDBRANCH  15  17
ENDBRANCH  13  15
ENDBRANCH   6  13
ENDBRANCH   2  10
ENDBRANCH   1   3
BRANCH   1  18
ATOM     18  N   UNL     1      -1.361  -4.127   5.505  0.00  0.00    +0.391 N 
ATOM     19  H   UNL     1      -2.043  -4.864   5.291  0.00  0.00    -0.080 HD
BRANCH  18  20
ATOM     20  C   UNL     1      -0.026  -4.740   5.666  0.00  0.00    -0.042 C 
BRANCH  20  21
ATOM     21  C   UNL     1      -0.159  -5.969   6.528  0.00  0.00    -0.064 A 
ATOM     22  C   UNL     1       0.114  -5.897   7.881  0.00  0.00    +0.002 A 
ATOM     23  C   UNL     1      -0.013  -7.024   8.673  0.00  0.00    +0.000 A 
ATOM     24  C   UNL     1      -0.404  -8.224   8.110  0.00  0.00    +0.000 A 
ATOM     25  C   UNL     1      -0.671  -8.297   6.755  0.00  0.00    +0.000 A 
ATOM     26  C   UNL     1      -0.549  -7.170   5.965  0.00  0.00    +0.002 A 
ENDBRANCH  20  21
ENDBRANCH  18  20
BRANCH  18  27
ATOM     27  C   UNL     1      -1.760  -3.451   6.757  0.00  0.00    -0.042 C 
BRANCH  27  28
ATOM     28  C   UNL     1      -3.245  -3.198   6.717  0.00  0.00    -0.064 A 
ATOM     29  C   UNL     1      -3.727  -1.972   6.295  0.00  0.00    +0.002 A 
ATOM     30  C   UNL     1      -5.089  -1.742   6.254  0.00  0.00    +0.000 A 
ATOM     31  C   UNL     1      -5.970  -2.734   6.644  0.00  0.00    +0.000 A 
ATOM     32  C   UNL     1      -5.488  -3.957   7.070  0.00  0.00    +0.000 A 
ATOM     33  C   UNL     1      -4.126  -4.189   7.107  0.00  0.00    +0.002 A 
ENDBRANCH  27  28
ENDBRANCH  18  27
ENDBRANCH   1  18
TORSDOF 10
