REMARK  Name = ZINC25585576
REMARK  9 active torsions:
REMARK  status: ('A' for Active; 'I' for Inactive)
REMARK    1  A    between atoms: C_1  and  C_2
REMARK    2  A    between atoms: C_3  and  C_20
REMARK    3  A    between atoms: N_7  and  C_8
REMARK    4  A    between atoms: C_8  and  N_10
REMARK    5  A    between atoms: C_11  and  C_13
REMARK    6  A    between atoms: C_20  and  C_22
REMARK    7  A    between atoms: C_23  and  C_24
REMARK    8  A    between atoms: C_27  and  N_30
REMARK    9  A    between atoms: C_31  and  C_33
REMARK                            x       y       z     vdW  Elec       q    Type
REMARK                         _______ _______ _______ _____ _____    ______ ____
ROOT
ATOM      1  C   UNL     1      -6.103   1.851  -0.006  0.00  0.00    +0.064 C 
ATOM      2  C   UNL     1      -4.694   1.316  -0.003  0.00  0.00    +0.032 A 
ATOM      3  C   UNL     1      -4.444  -0.050  -0.006  0.00  0.00    +0.081 A 
ATOM      4  S   UNL     1      -2.657  -0.057  -0.000  0.00  0.00    -0.049 S 
ATOM      5  C   UNL     1      -2.423   1.663   0.004  0.00  0.00    +0.163 A 
ATOM      6  N   UNL     1      -3.665   2.123   0.008  0.00  0.00    -0.339 N 
ATOM      7  N   UNL     1      -1.238   2.375   0.010  0.00  0.00    -0.169 NA
ATOM      8  H   UNL     1      -3.820   3.212   0.020  0.00  0.00    +0.167 HD
ENDROOT
BRANCH   7   9
ATOM      9  C   UNL     1      -0.059   1.721   0.011  0.00  0.00    +0.163 C 
ATOM     10  S   UNL     1      -0.030   0.010   0.007  0.00  0.00    -0.016 S 
BRANCH   9  11
ATOM     11  N   UNL     1       1.096   2.415   0.011  0.00  0.00    -0.262 N 
ATOM     12  C   UNL     1       2.275   1.762   0.007  0.00  0.00    +0.251 C 
ATOM     13  O   UNL     1       2.296   0.546   0.004  0.00  0.00    -0.270 OA
ATOM     14  H   UNL     1       1.077   3.515   0.014  0.00  0.00    +0.157 HD
BRANCH  12  15
ATOM     15  C   UNL     1       3.541   2.522   0.007  0.00  0.00    +0.055 A 
ATOM     16  C   UNL     1       3.521   3.918   0.004  0.00  0.00    +0.014 A 
ATOM     17  C   UNL     1       4.706   4.622   0.010  0.00  0.00    +0.001 A 
ATOM     18  C   UNL     1       5.916   3.948   0.006  0.00  0.00    +0.001 A 
ATOM     19  C   UNL     1       5.945   2.566   0.002  0.00  0.00    +0.021 A 
ATOM     20  C   UNL     1       4.765   1.847   0.002  0.00  0.00    +0.053 A 
ATOM     21 CL   UNL     1       4.802   0.112  -0.003  0.00  0.00    -0.083 Cl
ENDBRANCH  12  15
ENDBRANCH   9  11
ENDBRANCH   7   9
BRANCH   3  22
ATOM     22  C   UNL     1      -5.384  -1.173  -0.012  0.00  0.00    +0.194 C 
ATOM     23  O   UNL     1      -6.585  -0.963  -0.015  0.00  0.00    -0.287 OA
BRANCH  22  24
ATOM     24  C   UNL     1      -4.881  -2.548  -0.013  0.00  0.00    +0.052 C 
ATOM     25  C   UNL     1      -5.748  -3.584  -0.019  0.00  0.00    +0.012 C 
BRANCH  25  26
ATOM     26  C   UNL     1      -5.243  -4.964  -0.021  0.00  0.00    -0.025 A 
ATOM     27  C   UNL     1      -3.865  -5.208  -0.022  0.00  0.00    +0.010 A 
ATOM     28  C   UNL     1      -3.397  -6.502  -0.019  0.00  0.00    +0.024 A 
ATOM     29  C   UNL     1      -4.292  -7.568  -0.025  0.00  0.00    +0.033 A 
ATOM     30  C   UNL     1      -5.663  -7.330  -0.028  0.00  0.00    +0.024 A 
ATOM     31  C   UNL     1      -6.140  -6.039  -0.026  0.00  0.00    +0.010 A 
BRANCH  29  32
ATOM     32  N   UNL     1      -3.813  -8.878  -0.027  0.00  0.00    -0.286 N 
ATOM     33  C   UNL     1      -4.480  -9.841   0.640  0.00  0.00    +0.214 C 
ATOM     34  O   UNL     1      -5.540  -9.586   1.172  0.00  0.00    -0.276 OA
ATOM     35  C   UNL     1      -3.910 -11.233   0.724  0.00  0.00    +0.109 C 
ATOM     36  H   UNL     1      -2.891  -9.126  -0.573  0.00  0.00    +0.155 HD
ENDBRANCH  29  32
ENDBRANCH  25  26
ENDBRANCH  22  24
ENDBRANCH   3  22
TORSDOF 7
