REMARK  Name = ZINC01323414
REMARK  7 active torsions:
REMARK  status: ('A' for Active; 'I' for Inactive)
REMARK    1  A    between atoms: C_16  and  C_17
REMARK    2  A    between atoms: C_16  and  N_51
REMARK    3  A    between atoms: C_17  and  C_19
REMARK    4  A    between atoms: C_17  and  O_28
REMARK    5  A    between atoms: C_19  and  N_20
REMARK    6  A    between atoms: N_20  and  C_21
REMARK    7  A    between atoms: C_24  and  O_27
REMARK                            x       y       z     vdW  Elec       q    Type
REMARK                         _______ _______ _______ _____ _____    ______ ____
ROOT
ATOM      1  C   UNL     1      -0.782   1.972   1.156  0.00  0.00    -0.046 C 
ENDROOT
BRANCH   1  15
ATOM      2  C   UNL     1       0.132   4.169  -3.904  0.00  0.00    +0.007 A 
ATOM      3  C   UNL     1       1.005   3.465  -3.067  0.00  0.00    +0.022 A 
ATOM      4  C   UNL     1       0.690   2.216  -2.635  0.00  0.00    +0.023 A 
ATOM      5  N   UNL     1      -0.445   1.609  -3.055  0.00  0.00    -0.312 N 
ATOM      6  C   UNL     1      -1.349   2.303  -3.789  0.00  0.00    +0.251 A 
ATOM      7  O   UNL     1      -2.431   1.801  -4.047  0.00  0.00    -0.268 OA
ATOM      8  C   UNL     1      -1.052   3.591  -4.256  0.00  0.00    +0.070 A 
ATOM      9  C   UNL     1      -0.736   0.196  -2.808  0.00  0.00    +0.126 C 
ATOM     10  C   UNL     1       0.091  -0.374  -1.668  0.00  0.00    -0.007 C 
ATOM     11  C   UNL     1       1.558   0.026  -1.853  0.00  0.00    +0.011 C 
ATOM     12  C   UNL     1       1.649   1.546  -1.677  0.00  0.00    +0.020 C 
ATOM     13  C   UNL     1       1.190   1.887  -0.249  0.00  0.00    -0.069 C 
ATOM     14  C   UNL     1      -0.425   0.082  -0.311  0.00  0.00    -0.074 C 
ATOM     15  N   UNL     1      -0.246   1.539  -0.150  0.00  0.00    +0.382 N 
ATOM     16  H   UNL     1      -0.758   2.023  -0.897  0.00  0.00    -0.082 HD
ENDBRANCH   1  15
BRANCH   1  17
ATOM     17  C   UNL     1      -0.478   3.459   1.351  0.00  0.00    +0.115 C 
BRANCH  17  18
ATOM     18  O   UNL     1      -1.056   4.207   0.280  0.00  0.00    -0.392 OA
ATOM     19  H   UNL     1      -2.016   4.119   0.211  0.00  0.00    +0.210 HD
ENDBRANCH  17  18
BRANCH  17  20
ATOM     20  C   UNL     1      -1.071   3.930   2.680  0.00  0.00    +0.131 C 
BRANCH  20  21
ATOM     21  N   UNL     1      -0.780   5.354   2.867  0.00  0.00    -0.341 N 
ATOM     22  H   UNL     1      -0.280   5.839   2.193  0.00  0.00    +0.146 HD
BRANCH  21  23
ATOM     23  C   UNL     1      -1.225   6.014   4.019  0.00  0.00    +0.027 A 
ATOM     24  C   UNL     1      -1.946   5.321   4.981  0.00  0.00    +0.026 A 
ATOM     25  C   UNL     1      -2.379   5.971   6.121  0.00  0.00    +0.047 A 
ATOM     26  C   UNL     1      -2.103   7.319   6.297  0.00  0.00    +0.117 A 
ATOM     27  C   UNL     1      -1.388   8.014   5.332  0.00  0.00    +0.047 A 
ATOM     28  C   UNL     1      -0.949   7.363   4.196  0.00  0.00    +0.026 A 
BRANCH  26  29
ATOM     29  O   UNL     1      -2.535   7.960   7.416  0.00  0.00    -0.507 OA
ATOM     30  H   UNL     1      -3.414   8.354   7.330  0.00  0.00    +0.292 HD
ENDBRANCH  26  29
ENDBRANCH  21  23
ENDBRANCH  20  21
ENDBRANCH  17  20
ENDBRANCH   1  17
TORSDOF 7
