REMARK  Name = ZINC40702027
REMARK  6 active torsions:
REMARK  status: ('A' for Active; 'I' for Inactive)
REMARK    1  A    between atoms: C_1  and  C_2
REMARK    2  A    between atoms: C_2  and  N_3
REMARK    3  A    between atoms: N_3  and  C_4
REMARK    4  A    between atoms: C_15  and  N_31
REMARK    5  A    between atoms: C_16  and  N_20
REMARK    6  A    between atoms: C_26  and  C_30
REMARK                            x       y       z     vdW  Elec       q    Type
REMARK                         _______ _______ _______ _____ _____    ______ ____
ROOT
ATOM      1  N   UNL     1      -1.339  -0.590   0.015  0.00  0.00    -0.285 N 
ATOM      2  C   UNL     1      -1.908  -0.767   1.271  0.00  0.00    +0.129 A 
ATOM      3  C   UNL     1      -1.205  -0.412   2.425  0.00  0.00    +0.104 A 
ATOM      4  C   UNL     1      -1.823  -0.612   3.660  0.00  0.00    +0.150 A 
ATOM      5  N   UNL     1      -3.049  -1.129   3.692  0.00  0.00    -0.221 NA
ATOM      6  C   UNL     1      -3.678  -1.450   2.579  0.00  0.00    +0.200 A 
ATOM      7  N   UNL     1      -3.133  -1.273   1.392  0.00  0.00    -0.332 N 
ATOM      8  H   UNL     1      -3.630  -1.518   0.597  0.00  0.00    +0.168 HD
ENDROOT
BRANCH   4   9
ATOM      9  N   UNL     1      -1.167  -0.276   4.841  0.00  0.00    -0.277 N 
ATOM     10  C   UNL     1      -1.789  -0.478   6.058  0.00  0.00    +0.165 A 
ATOM     11  N   UNL     1      -2.980  -0.976   6.302  0.00  0.00    -0.225 NA
ATOM     12  C   UNL     1      -3.464  -1.117   7.556  0.00  0.00    +0.080 A 
ATOM     13  C   UNL     1      -4.719  -1.633   7.954  0.00  0.00    +0.029 A 
ATOM     14  C   UNL     1      -5.057  -1.707   9.280  0.00  0.00    +0.005 A 
ATOM     15  C   UNL     1      -4.188  -1.282  10.274  0.00  0.00    -0.049 A 
ATOM     16  C   UNL     1      -2.952  -0.772   9.921  0.00  0.00    +0.020 A 
ATOM     17  C   UNL     1      -2.605  -0.694   8.595  0.00  0.00    +0.041 A 
ATOM     18  S   UNL     1      -1.175  -0.137   7.701  0.00  0.00    -0.052 S 
ATOM     19  C   UNL     1      -4.587  -1.375  11.724  0.00  0.00    +0.044 C 
ATOM     20  H   UNL     1      -0.274   0.100   4.809  0.00  0.00    +0.156 HD
ENDBRANCH   4   9
BRANCH   1  21
ATOM     21  C   UNL     1      -0.695  -1.653  -0.615  0.00  0.00    +0.043 A 
ATOM     22  C   UNL     1       0.653  -1.867  -0.414  0.00  0.00    +0.024 A 
ATOM     23  C   UNL     1       1.306  -2.925  -1.038  0.00  0.00    +0.002 A 
ATOM     24  C   UNL     1       0.635  -3.778  -1.862  0.00  0.00    +0.008 A 
ATOM     25  C   UNL     1      -0.739  -3.595  -2.093  0.00  0.00    -0.016 A 
ATOM     26  C   UNL     1      -1.416  -2.524  -1.459  0.00  0.00    +0.003 A 
ATOM     27  C   UNL     1      -2.790  -2.345  -1.687  0.00  0.00    +0.010 A 
ATOM     28  C   UNL     1      -3.454  -3.205  -2.508  0.00  0.00    +0.001 A 
ATOM     29  C   UNL     1      -2.790  -4.262  -3.127  0.00  0.00    +0.001 A 
ATOM     30  C   UNL     1      -1.456  -4.459  -2.938  0.00  0.00    +0.008 A 
ENDBRANCH   1  21
BRANCH   3  31
ATOM     31  N   UNL     1       0.087   0.129   2.344  0.00  0.00    -0.353 N 
ATOM     32  H   UNL     1       0.464   0.357   1.480  0.00  0.00    +0.143 HD
ATOM     33  H   UNL     1       0.602   0.276   3.152  0.00  0.00    +0.143 HD
ENDBRANCH   3  31
BRANCH   1  35
ATOM     34  C   UNL     1      -2.671   0.769  -1.522  0.00  0.00    +0.025 C 
ATOM     35  C   UNL     1      -1.417   0.715  -0.647  0.00  0.00    +0.109 C 
ENDBRANCH   1  35
TORSDOF 4
