REMARK  Name = ZINC05013100
REMARK  9 active torsions:
REMARK  status: ('A' for Active; 'I' for Inactive)
REMARK    1  A    between atoms: C_1  and  C_2
REMARK    2  A    between atoms: C_4  and  N_19
REMARK    3  A    between atoms: C_7  and  N_8
REMARK    4  A    between atoms: N_19  and  C_20
REMARK    5  A    between atoms: C_20  and  C_21
REMARK    6  A    between atoms: C_21  and  C_22
REMARK    7  A    between atoms: C_22  and  N_23
REMARK    8  A    between atoms: N_23  and  C_24
REMARK    9  A    between atoms: N_23  and  C_25
REMARK                            x       y       z     vdW  Elec       q    Type
REMARK                         _______ _______ _______ _____ _____    ______ ____
ROOT
ATOM      1  C   UNL     1       0.034   1.503   0.011  0.00  0.00    +0.046 C 
ATOM      2  C   UNL     1       0.027  -0.004   0.002  0.00  0.00    -0.027 A 
ATOM      3  C   UNL     1       0.030  -0.672  -1.187  0.00  0.00    +0.028 A 
ATOM      4  C   UNL     1       0.024  -2.070  -1.218  0.00  0.00    +0.039 A 
ATOM      5  C   UNL     1       0.015  -2.793  -0.021  0.00  0.00    +0.056 A 
ATOM      6  C   UNL     1       0.012  -2.102   1.209  0.00  0.00    +0.056 A 
ATOM      7  C   UNL     1       0.024  -0.703   1.213  0.00  0.00    +0.039 A 
ATOM      8  C   UNL     1       0.001  -2.850   2.475  0.00  0.00    +0.196 C 
ATOM      9  O   UNL     1      -0.002  -2.254   3.535  0.00  0.00    -0.287 OA
ATOM     10  C   UNL     1      -0.006  -4.328   2.457  0.00  0.00    +0.033 A 
ATOM     11  C   UNL     1      -0.016  -5.045   3.650  0.00  0.00    +0.012 A 
ATOM     12  C   UNL     1      -0.023  -6.428   3.624  0.00  0.00    +0.001 A 
ATOM     13  C   UNL     1      -0.020  -7.105   2.418  0.00  0.00    +0.001 A 
ATOM     14  C   UNL     1      -0.009  -6.409   1.223  0.00  0.00    +0.012 A 
ATOM     15  C   UNL     1      -0.003  -5.017   1.231  0.00  0.00    +0.033 A 
ATOM     16  C   UNL     1       0.008  -4.264  -0.041  0.00  0.00    +0.196 C 
ATOM     17  O   UNL     1       0.011  -4.859  -1.101  0.00  0.00    -0.287 OA
ENDROOT
BRANCH   7  18
ATOM     18  N   UNL     1       0.027  -0.011   2.415  0.00  0.00    -0.357 N 
ATOM     19  H   UNL     1      -0.332  -0.427   3.214  0.00  0.00    +0.142 HD
ATOM     20  H   UNL     1       0.387   0.888   2.456  0.00  0.00    +0.142 HD
ENDBRANCH   7  18
BRANCH   4  21
ATOM     21  N   UNL     1       0.027  -2.737  -2.434  0.00  0.00    -0.343 N 
ATOM     22  H   UNL     1       0.115  -3.703  -2.456  0.00  0.00    +0.146 HD
BRANCH  21  23
ATOM     23  C   UNL     1      -0.102  -1.984  -3.683  0.00  0.00    +0.100 C 
BRANCH  23  24
ATOM     24  C   UNL     1      -0.070  -2.952  -4.868  0.00  0.00    -0.000 C 
BRANCH  24  25
ATOM     25  C   UNL     1      -0.205  -2.165  -6.173  0.00  0.00    -0.078 C 
BRANCH  25  26
ATOM     26  N   UNL     1      -0.175  -3.094  -7.311  0.00  0.00    +0.376 N 
ATOM     27  C   UNL     1      -0.424  -2.354  -8.555  0.00  0.00    -0.097 C 
ATOM     28  C   UNL     1       1.143  -3.740  -7.380  0.00  0.00    -0.097 C 
ATOM     29  H   UNL     1      -0.887  -3.798  -7.189  0.00  0.00    -0.083 HD
ENDBRANCH  25  26
ENDBRANCH  24  25
ENDBRANCH  23  24
ENDBRANCH  21  23
ENDBRANCH   4  21
TORSDOF 6
