REMARK  Name = ZINC35337460
REMARK  6 active torsions:
REMARK  status: ('A' for Active; 'I' for Inactive)
REMARK    1  A    between atoms: N_7  and  C_22
REMARK    2  A    between atoms: N_10  and  N_11
REMARK    3  A    between atoms: C_12  and  C_13
REMARK    4  A    between atoms: C_16  and  N_19
REMARK    5  A    between atoms: C_22  and  C_23
REMARK    6  A    between atoms: C_23  and  O_24
REMARK                            x       y       z     vdW  Elec       q    Type
REMARK                         _______ _______ _______ _____ _____    ______ ____
ROOT
ATOM      1  C   UNL     1      -0.017   1.373   0.010  0.00  0.00    +0.002 A 
ATOM      2  C   UNL     1       1.169   2.093   0.002  0.00  0.00    +0.002 A 
ATOM      3  C   UNL     1       2.384   1.439  -0.013  0.00  0.00    +0.030 A 
ATOM      4  C   UNL     1       2.421   0.053  -0.021  0.00  0.00    +0.092 A 
ATOM      5  C   UNL     1       1.224  -0.681  -0.013  0.00  0.00    +0.070 A 
ATOM      6  C   UNL     1       0.002  -0.004   0.002  0.00  0.00    +0.028 A 
ATOM      7  N   UNL     1       1.561  -1.998  -0.023  0.00  0.00    -0.310 N 
ATOM      8  C   UNL     1       2.865  -2.120  -0.035  0.00  0.00    +0.195 A 
ATOM      9  N   UNL     1       3.550  -3.317  -0.048  0.00  0.00    -0.329 N 
ATOM     10  N   UNL     1       3.446  -0.881  -0.035  0.00  0.00    -0.201 N 
ATOM     11  H   UNL     1       3.061  -4.155  -0.048  0.00  0.00    +0.145 HD
ATOM     12  H   UNL     1       4.519  -3.321  -0.057  0.00  0.00    +0.145 HD
ENDROOT
BRANCH  10  13
ATOM     13  N   UNL     1       4.821  -0.607  -0.046  0.00  0.00    -0.171 NA
ATOM     14  C   UNL     1       5.467  -0.486   1.072  0.00  0.00    +0.141 C 
BRANCH  14  15
ATOM     15  C   UNL     1       6.913  -0.198   1.060  0.00  0.00    -0.005 A 
ATOM     16  C   UNL     1       7.589  -0.049  -0.153  0.00  0.00    +0.012 A 
ATOM     17  C   UNL     1       8.942   0.220  -0.157  0.00  0.00    +0.033 A 
ATOM     18  C   UNL     1       9.630   0.343   1.038  0.00  0.00    +0.126 A 
ATOM     19  C   UNL     1       8.967   0.197   2.244  0.00  0.00    +0.033 A 
ATOM     20  C   UNL     1       7.613  -0.067   2.262  0.00  0.00    +0.012 A 
BRANCH  18  21
ATOM     21  N   UNL     1      11.081   0.632   1.026  0.00  0.00    +0.056 N 
ATOM     22  O   UNL     1      11.664   0.760  -0.026  0.00  0.00    -0.126 OA
ATOM     23  O   UNL     1      11.685   0.740   2.068  0.00  0.00    -0.126 OA
ENDBRANCH  18  21
ENDBRANCH  14  15
ENDBRANCH  10  13
BRANCH   7  24
ATOM     24  C   UNL     1       0.610  -3.113  -0.019  0.00  0.00    +0.153 C 
BRANCH  24  25
ATOM     25  C   UNL     1       0.265  -3.494  -1.461  0.00  0.00    +0.177 C 
BRANCH  25  26
ATOM     26  O   UNL     1      -0.663  -4.580  -1.457  0.00  0.00    -0.393 OA
ATOM     27  H   UNL     1      -0.926  -4.875  -2.340  0.00  0.00    +0.209 HD
ENDBRANCH  25  26
ENDBRANCH  24  25
ENDBRANCH   7  24
TORSDOF 6
