REMARK  Name = ZINC22785100
REMARK  8 active torsions:
REMARK  status: ('A' for Active; 'I' for Inactive)
REMARK    1  A    between atoms: C_1  and  C_2
REMARK    2  A    between atoms: C_2  and  N_3
REMARK    3  A    between atoms: N_6  and  C_9
REMARK    4  A    between atoms: C_9  and  C_11
REMARK    5  A    between atoms: C_9  and  C_16
REMARK    6  A    between atoms: C_16  and  C_18
REMARK    7  A    between atoms: C_16  and  N_19
REMARK    8  A    between atoms: N_21  and  C_22
REMARK                            x       y       z     vdW  Elec       q    Type
REMARK                         _______ _______ _______ _____ _____    ______ ____
ROOT
ATOM      1  C   UNL     1      -4.774  -2.676   1.196  0.00  0.00    +0.115 C 
ENDROOT
BRANCH   1   5
ATOM      2  N   UNL     1      -1.263  -0.775   2.584  0.00  0.00    +0.381 N 
ATOM      3  C   UNL     1      -1.328  -2.241   2.652  0.00  0.00    -0.063 C 
ATOM      4  C   UNL     1      -2.789  -2.691   2.583  0.00  0.00    +0.066 C 
ATOM      5  N   UNL     1      -3.386  -2.215   1.327  0.00  0.00    -0.297 NA
ATOM      6  C   UNL     1      -3.306  -0.751   1.233  0.00  0.00    +0.066 C 
ATOM      7  C   UNL     1      -1.841  -0.316   1.314  0.00  0.00    -0.063 C 
ATOM      8  H   UNL     1      -1.784  -0.380   3.352  0.00  0.00    -0.082 HD
BRANCH   2  10
ATOM      9  C   UNL     1       0.703  -0.711   4.042  0.00  0.00    -0.017 C 
ATOM     10  C   UNL     1       0.138  -0.343   2.669  0.00  0.00    -0.082 C 
ENDBRANCH   2  10
ENDBRANCH   1   5
BRANCH   1  11
ATOM     11  C   UNL     1      -5.361  -2.145  -0.086  0.00  0.00    +0.009 A 
ATOM     12  C   UNL     1      -6.582  -1.599  -0.304  0.00  0.00    +0.013 A 
ATOM     13  C   UNL     1      -6.909  -1.175  -1.579  0.00  0.00    +0.008 A 
ATOM     14  C   UNL     1      -5.999  -1.318  -2.573  0.00  0.00    +0.045 A 
ATOM     15  S   UNL     1      -4.626  -2.066  -1.711  0.00  0.00    -0.100 S 
ENDBRANCH   1  11
BRANCH   1  16
ATOM     16  C   UNL     1      -4.804  -4.206   1.176  0.00  0.00    +0.100 C 
ATOM     17  C   UNL     1      -3.896  -4.719   0.056  0.00  0.00    +0.032 C 
BRANCH  16  18
ATOM     18  N   UNL     1      -6.176  -4.664   0.941  0.00  0.00    -0.363 N 
ATOM     19  C   UNL     1      -6.565  -5.901   1.370  0.00  0.00    +0.139 C 
ATOM     20  N   UNL     1      -7.844  -6.329   1.152  0.00  0.00    -0.322 N 
ATOM     21  S   UNL     1      -5.484  -6.885   2.158  0.00  0.00    -0.016 SA
ATOM     22  H   UNL     1      -8.476  -5.754   0.691  0.00  0.00    +0.148 HD
ATOM     23  H   UNL     1      -6.807  -4.090   0.481  0.00  0.00    +0.162 HD
BRANCH  20  24
ATOM     24  C   UNL     1      -8.262  -7.656   1.612  0.00  0.00    +0.072 C 
ATOM     25  C   UNL     1      -7.888  -8.702   0.560  0.00  0.00    +0.022 C 
ATOM     26  C   UNL     1      -8.325 -10.087   1.041  0.00  0.00    +0.002 C 
ATOM     27  C   UNL     1      -9.839 -10.099   1.256  0.00  0.00    +0.000 C 
ATOM     28  C   UNL     1     -10.213  -9.053   2.308  0.00  0.00    +0.002 C 
ATOM     29  C   UNL     1      -9.777  -7.667   1.827  0.00  0.00    +0.022 C 
ENDBRANCH  20  24
ENDBRANCH  16  18
ENDBRANCH   1  16
TORSDOF 6
