REMARK  Name = ZINC44165662
REMARK  15 active torsions:
REMARK  status: ('A' for Active; 'I' for Inactive)
REMARK    1  A    between atoms: C_1  and  C_2
REMARK    2  A    between atoms: C_2  and  C_39
REMARK    3  A    between atoms: C_7  and  C_12
REMARK    4  A    between atoms: C_12  and  N_13
REMARK    5  A    between atoms: C_14  and  C_16
REMARK    6  A    between atoms: C_21  and  C_24
REMARK    7  A    between atoms: C_26  and  C_35
REMARK    8  A    between atoms: C_27  and  O_34
REMARK    9  A    between atoms: C_28  and  C_30
REMARK   10  A    between atoms: C_30  and  C_31
REMARK   11  A    between atoms: C_30  and  C_32
REMARK   12  A    between atoms: C_30  and  C_33
REMARK   13  A    between atoms: C_35  and  C_36
REMARK   14  A    between atoms: C_35  and  C_37
REMARK   15  A    between atoms: C_35  and  C_38
REMARK                            x       y       z     vdW  Elec       q    Type
REMARK                         _______ _______ _______ _____ _____    ______ ____
ROOT
ATOM      1  C   UNL     1       4.114   2.761   5.122  0.00  0.00    +0.027 C 
ATOM      2  C   UNL     1       4.830   1.546   5.723  0.00  0.00    +0.062 C 
ATOM      3  S   UNL     1       6.396   2.112   6.458  0.00  0.00    -0.163 S 
ATOM      4  C   UNL     1       5.869   3.523   7.480  0.00  0.00    +0.058 C 
ATOM      5  C   UNL     1       4.997   4.442   6.617  0.00  0.00    -0.030 C 
ATOM      6  N   UNL     1       3.798   3.723   6.180  0.00  0.00    +0.392 N 
ATOM      7  H   UNL     1       3.124   4.388   5.832  0.00  0.00    -0.084 HD
ATOM      8  H   UNL     1       3.401   3.232   6.966  0.00  0.00    -0.084 HD
ENDROOT
BRANCH   5   9
ATOM      9  C   UNL     1       4.590   5.649   7.423  0.00  0.00    -0.060 A 
ATOM     10  C   UNL     1       3.547   5.555   8.326  0.00  0.00    +0.009 A 
ATOM     11  C   UNL     1       3.172   6.660   9.066  0.00  0.00    -0.000 A 
ATOM     12  C   UNL     1       3.843   7.863   8.903  0.00  0.00    +0.124 A 
ATOM     13  C   UNL     1       4.889   7.954   7.997  0.00  0.00    -0.000 A 
ATOM     14  C   UNL     1       5.264   6.846   7.263  0.00  0.00    +0.009 A 
BRANCH  13  15
ATOM     15  C   UNL     1       5.620   9.260   7.817  0.00  0.00    -0.009 C 
ATOM     16  C   UNL     1       6.719   9.089   6.767  0.00  0.00    +0.015 C 
ATOM     17  C   UNL     1       4.635  10.336   7.354  0.00  0.00    +0.015 C 
ATOM     18  C   UNL     1       6.246   9.681   9.148  0.00  0.00    +0.015 C 
ENDBRANCH  13  15
BRANCH  11  19
ATOM     19  C   UNL     1       2.035   6.558  10.050  0.00  0.00    -0.009 C 
ATOM     20  C   UNL     1       1.473   5.134  10.034  0.00  0.00    +0.015 C 
ATOM     21  C   UNL     1       2.543   6.890  11.454  0.00  0.00    +0.015 C 
ATOM     22  C   UNL     1       0.933   7.545   9.660  0.00  0.00    +0.015 C 
ENDBRANCH  11  19
BRANCH  12  23
ATOM     23  O   UNL     1       3.475   8.951   9.630  0.00  0.00    -0.506 OA
ATOM     24  H   UNL     1       3.938   9.035  10.475  0.00  0.00    +0.292 HD
ENDBRANCH  12  23
ENDBRANCH   5   9
BRANCH   1  26
ATOM     25  N   UNL     1       2.883   1.424   3.444  0.00  0.00    -0.316 N 
ATOM     26  C   UNL     1       2.839   2.313   4.457  0.00  0.00    +0.200 C 
ATOM     27  O   UNL     1       1.772   2.752   4.831  0.00  0.00    -0.278 OA
ATOM     28  H   UNL     1       3.736   1.073   3.145  0.00  0.00    +0.149 HD
BRANCH  25  29
ATOM     29  C   UNL     1       1.643   0.988   2.797  0.00  0.00    +0.108 C 
BRANCH  29  35
ATOM     30  C   UNL     1      -0.019   1.521   0.010  0.00  0.00    +0.011 C 
ATOM     31  C   UNL     1       0.002  -0.004   0.002  0.00  0.00    -0.029 C 
ATOM     32  C   UNL     1       1.110  -0.635  -0.859  0.00  0.00    -0.005 C 
ATOM     33  C   UNL     1       2.412   0.167  -0.822  0.00  0.00    +0.004 C 
ATOM     34  C   UNL     1       2.774   0.644   0.578  0.00  0.00    +0.005 C 
ATOM     35  C   UNL     1       1.972  -0.016   1.688  0.00  0.00    +0.010 C 
ATOM     36  C   UNL     1       0.704  -0.695   1.173  0.00  0.00    -0.000 C 
ATOM     37  C   UNL     1       1.105  -1.793   0.155  0.00  0.00    +0.008 C 
ATOM     38  C   UNL     1      -1.394  -0.579  -0.299  0.00  0.00    +0.011 C 
ENDBRANCH  29  35
ENDBRANCH  25  29
ENDBRANCH   1  26
TORSDOF 7
