REMARK  Name = ZINC10156492
REMARK  7 active torsions:
REMARK  status: ('A' for Active; 'I' for Inactive)
REMARK    1  A    between atoms: C_1  and  O_2
REMARK    2  A    between atoms: O_2  and  C_3
REMARK    3  A    between atoms: C_8  and  N_9
REMARK    4  A    between atoms: C_18  and  C_20
REMARK    5  A    between atoms: C_20  and  S_21
REMARK    6  A    between atoms: S_21  and  C_22
REMARK    7  A    between atoms: N_26  and  C_27
REMARK                            x       y       z     vdW  Elec       q    Type
REMARK                         _______ _______ _______ _____ _____    ______ ____
ROOT
ATOM      1  N   UNL     1       0.585   5.531   0.546  0.00  0.00    -0.325 N 
ATOM      2  C   UNL     1       1.918   5.249   0.360  0.00  0.00    +0.180 C 
ATOM      3  N   UNL     1       2.833   6.277   0.256  0.00  0.00    -0.298 N 
ATOM      4  C   UNL     1       2.398   7.578   0.179  0.00  0.00    +0.211 A 
ATOM      5  N   UNL     1       3.308   8.589   0.208  0.00  0.00    -0.293 N 
ATOM      6  H   UNL     1       4.254   8.390   0.282  0.00  0.00    +0.172 HD
ATOM      7  C   UNL     1       2.889   9.870   0.126  0.00  0.00    +0.253 A 
ATOM      8  O   UNL     1       3.692  10.789   0.145  0.00  0.00    -0.268 OA
ATOM      9  C   UNL     1       1.510  10.125   0.025  0.00  0.00    +0.094 A 
ATOM     10  C   UNL     1       0.644   9.070   0.007  0.00  0.00    +0.060 A 
ATOM     11  N   UNL     1       1.108   7.825   0.084  0.00  0.00    -0.218 NA
ATOM     12  H   UNL     1       0.276   6.451   0.530  0.00  0.00    +0.169 HD
ATOM     13  H   UNL     1       3.243   3.709   0.218  0.00  0.00    +0.159 HD
ATOM     14  H   UNL     1       3.783   6.081   0.238  0.00  0.00    +0.172 HD
ATOM     15  N   UNL     1       2.259   3.972   0.282  0.00  0.00    -0.371 N 
ATOM     16  H   UNL     1       1.533   3.246   0.285  0.00  0.00    +0.159 HD
ENDROOT
BRANCH   1  22
ATOM     17  C   UNL     1      -1.660   4.640   0.379  0.00  0.00    +0.143 A 
ATOM     18  C   UNL     1      -2.559   3.608   0.592  0.00  0.00    +0.049 A 
ATOM     19  C   UNL     1      -2.136   2.434   1.187  0.00  0.00    +0.024 A 
ATOM     20  C   UNL     1      -0.812   2.282   1.561  0.00  0.00    +0.043 A 
ATOM     21  C   UNL     1       0.091   3.308   1.351  0.00  0.00    +0.049 A 
ATOM     22  C   UNL     1      -0.329   4.490   0.759  0.00  0.00    +0.085 A 
ATOM     23 CL   UNL     1      -0.286   0.803   2.302  0.00  0.00    -0.083 Cl
BRANCH  17  25
ATOM     24  C   UNL     1      -3.456   5.881  -0.566  0.00  0.00    +0.277 C 
ATOM     25  O   UNL     1      -2.076   5.798  -0.202  0.00  0.00    -0.493 OA
ENDBRANCH  17  25
ENDBRANCH   1  22
BRANCH  10  26
ATOM     26  C   UNL     1      -0.839   9.316  -0.101  0.00  0.00    +0.133 C 
BRANCH  26  27
ATOM     27  S   UNL     1      -1.396   8.917  -1.776  0.00  0.00    -0.078 S 
BRANCH  27  28
ATOM     28  C   UNL     1      -3.112   9.284  -1.624  0.00  0.00    +0.214 A 
ATOM     29  N   UNL     1      -3.725   9.723  -0.545  0.00  0.00    -0.101 NA
ATOM     30  N   UNL     1      -4.978   9.889  -0.776  0.00  0.00    -0.022 NA
ATOM     31  N   UNL     1      -5.256   9.575  -1.995  0.00  0.00    -0.038 NA
ATOM     32  N   UNL     1      -4.051   9.174  -2.597  0.00  0.00    -0.187 N 
BRANCH  32  33
ATOM     33  C   UNL     1      -3.860   8.748  -3.920  0.00  0.00    +0.070 A 
ATOM     34  C   UNL     1      -2.687   9.066  -4.590  0.00  0.00    +0.028 A 
ATOM     35  C   UNL     1      -2.499   8.641  -5.891  0.00  0.00    +0.002 A 
ATOM     36  C   UNL     1      -3.484   7.910  -6.529  0.00  0.00    +0.000 A 
ATOM     37  C   UNL     1      -4.657   7.596  -5.866  0.00  0.00    +0.002 A 
ATOM     38  C   UNL     1      -4.847   8.014  -4.563  0.00  0.00    +0.028 A 
ENDBRANCH  32  33
ENDBRANCH  27  28
ENDBRANCH  26  27
ENDBRANCH  10  26
TORSDOF 6
