REMARK  Name = ZINC04087223
REMARK  6 active torsions:
REMARK  status: ('A' for Active; 'I' for Inactive)
REMARK    1  A    between atoms: C_1  and  C_2
REMARK    2  A    between atoms: C_2  and  C_3
REMARK    3  A    between atoms: C_2  and  N_4
REMARK    4  A    between atoms: C_10  and  N_15
REMARK    5  A    between atoms: C_11  and  C_12
REMARK    6  A    between atoms: C_16  and  C_18
REMARK                            x       y       z     vdW  Elec       q    Type
REMARK                         _______ _______ _______ _____ _____    ______ ____
ROOT
ATOM      1  N   UNL     1      -1.442  -0.249   0.106  0.00  0.00    +0.384 N 
ATOM      2  C   UNL     1      -1.680  -1.680   0.338  0.00  0.00    -0.073 C 
ATOM      3  C   UNL     1      -3.135  -1.913   0.758  0.00  0.00    +0.018 C 
ATOM      4  C   UNL     1      -4.032  -1.234  -0.267  0.00  0.00    -0.027 A 
ATOM      5  C   UNL     1      -3.523  -0.303  -1.106  0.00  0.00    -0.021 A 
ATOM      6  S   UNL     1      -4.894   0.200  -2.100  0.00  0.00    -0.079 S 
ATOM      7  C   UNL     1      -6.097  -0.770  -1.441  0.00  0.00    +0.085 A 
ATOM      8  C   UNL     1      -5.447  -1.490  -0.449  0.00  0.00    +0.068 A 
ATOM      9  C   UNL     1      -2.103   0.167  -1.145  0.00  0.00    -0.035 C 
ATOM     10  H   UNL     1      -1.819   0.282   0.878  0.00  0.00    -0.081 HD
ENDROOT
BRANCH   8  11
ATOM     11  C   UNL     1      -6.160  -2.469   0.377  0.00  0.00    +0.244 C 
ATOM     12  O   UNL     1      -6.684  -2.119   1.419  0.00  0.00    -0.270 OA
ATOM     13  N   UNL     1      -6.237  -3.756  -0.016  0.00  0.00    -0.325 N 
ATOM     14  H   UNL     1      -5.819  -4.034  -0.846  0.00  0.00    +0.145 HD
ATOM     15  H   UNL     1      -6.708  -4.403   0.531  0.00  0.00    +0.145 HD
ENDBRANCH   8  11
BRANCH   7  16
ATOM     16  N   UNL     1      -7.432  -0.835  -1.805  0.00  0.00    -0.274 N 
ATOM     17  C   UNL     1      -7.898  -0.055  -2.800  0.00  0.00    +0.274 C 
ATOM     18  O   UNL     1      -7.147   0.705  -3.380  0.00  0.00    -0.268 OA
ATOM     19  H   UNL     1      -8.031  -1.441  -1.343  0.00  0.00    +0.156 HD
BRANCH  17  20
ATOM     20  C   UNL     1      -9.322  -0.125  -3.188  0.00  0.00    +0.164 A 
ATOM     21  N   UNL     1     -10.280  -0.871  -2.683  0.00  0.00    -0.234 NA
ATOM     22  C   UNL     1     -11.538  -0.835  -3.131  0.00  0.00    +0.079 A 
ATOM     23  C   UNL     1     -12.653  -1.583  -2.675  0.00  0.00    +0.029 A 
ATOM     24  C   UNL     1     -13.876  -1.427  -3.245  0.00  0.00    +0.002 A 
ATOM     25  C   UNL     1     -14.087  -0.535  -4.290  0.00  0.00    +0.001 A 
ATOM     26  C   UNL     1     -13.030   0.215  -4.766  0.00  0.00    +0.017 A 
ATOM     27  C   UNL     1     -11.787   0.066  -4.198  0.00  0.00    +0.040 A 
ATOM     28  S   UNL     1     -10.185   0.790  -4.459  0.00  0.00    -0.063 S 
ENDBRANCH  17  20
ENDBRANCH   7  16
BRANCH   1  30
ATOM     29  C   UNL     1       0.246   1.468  -0.337  0.00  0.00    -0.014 C 
ATOM     30  C   UNL     1       0.002  -0.004   0.002  0.00  0.00    -0.074 C 
ATOM     31  C   UNL     1       0.674  -0.339   1.335  0.00  0.00    -0.014 C 
ENDBRANCH   1  30
TORSDOF 4
