REMARK  Name = ZINC39325430
REMARK  10 active torsions:
REMARK  status: ('A' for Active; 'I' for Inactive)
REMARK    1  A    between atoms: C_1  and  C_2
REMARK    2  A    between atoms: C_7  and  S_8
REMARK    3  A    between atoms: S_8  and  N_11
REMARK    4  A    between atoms: N_11  and  C_12
REMARK    5  A    between atoms: N_11  and  C_20
REMARK    6  A    between atoms: C_12  and  C_13
REMARK    7  A    between atoms: C_13  and  C_14
REMARK    8  A    between atoms: C_20  and  C_21
REMARK    9  A    between atoms: C_27  and  O_33
REMARK   10  A    between atoms: O_33  and  C_34
REMARK                            x       y       z     vdW  Elec       q    Type
REMARK                         _______ _______ _______ _____ _____    ______ ____
ROOT
ATOM      1  N   UNL     1      -1.523   0.524   2.950  0.00  0.00    -0.175 NA
ENDROOT
BRANCH   1   2
ATOM      2  S   UNL     1       0.049   0.016   2.841  0.00  0.00    +0.063 S 
ATOM      3  O   UNL     1       0.540   0.477   1.590  0.00  0.00    -0.153 OA
ATOM      4  O   UNL     1       0.058  -1.358   3.203  0.00  0.00    -0.153 OA
BRANCH   2  11
ATOM      5  C   UNL     1       0.422  -0.990   5.618  0.00  0.00    +0.046 C 
ATOM      6  C   UNL     1       1.077   0.335   5.323  0.00  0.00    -0.022 A 
ATOM      7  C   UNL     1       1.794   0.981   6.330  0.00  0.00    +0.007 A 
ATOM      8  C   UNL     1       2.400   2.172   6.115  0.00  0.00    +0.031 A 
ATOM      9  C   UNL     1       2.315   2.795   4.841  0.00  0.00    +0.102 A 
ATOM     10  C   UNL     1       1.565   2.120   3.788  0.00  0.00    +0.126 A 
ATOM     11  C   UNL     1       0.960   0.870   4.085  0.00  0.00    +0.136 A 
ATOM     12  N   UNL     1       1.553   2.796   2.638  0.00  0.00    -0.189 NA
ATOM     13  S   UNL     1       2.410   4.130   2.909  0.00  0.00    +0.117 S 
ATOM     14  N   UNL     1       2.843   3.955   4.448  0.00  0.00    -0.191 NA
ENDBRANCH   2  11
ENDBRANCH   1   2
BRANCH   1  15
ATOM     15  C   UNL     1      -2.441  -0.130   3.885  0.00  0.00    +0.114 C 
BRANCH  15  16
ATOM     16  C   UNL     1      -2.480   0.657   5.196  0.00  0.00    +0.052 C 
BRANCH  16  17
ATOM     17  C   UNL     1      -3.424  -0.016   6.159  0.00  0.00    -0.046 A 
ATOM     18  C   UNL     1      -4.762   0.333   6.173  0.00  0.00    +0.003 A 
ATOM     19  C   UNL     1      -5.628  -0.284   7.055  0.00  0.00    +0.000 A 
ATOM     20  C   UNL     1      -5.157  -1.251   7.924  0.00  0.00    +0.000 A 
ATOM     21  C   UNL     1      -3.820  -1.601   7.910  0.00  0.00    +0.000 A 
ATOM     22  C   UNL     1      -2.954  -0.986   7.024  0.00  0.00    +0.003 A 
ENDBRANCH  16  17
ENDBRANCH  15  16
ENDBRANCH   1  15
BRANCH   1  23
ATOM     23  C   UNL     1      -1.996   1.627   2.110  0.00  0.00    +0.126 C 
BRANCH  23  24
ATOM     24  C   UNL     1      -3.050   1.107   1.130  0.00  0.00    +0.114 C 
ATOM     25  C   UNL     1      -3.726   2.306   0.495  0.00  0.00    -0.003 C 
ATOM     26  C   UNL     1      -3.677   2.406  -0.861  0.00  0.00    -0.007 A 
ATOM     27  C   UNL     1      -4.306   3.535  -1.551  0.00  0.00    +0.013 A 
ATOM     28  C   UNL     1      -4.238   3.602  -2.902  0.00  0.00    +0.046 A 
ATOM     29  C   UNL     1      -3.578   2.614  -3.647  0.00  0.00    +0.122 A 
ATOM     30  C   UNL     1      -2.968   1.530  -3.055  0.00  0.00    +0.069 A 
ATOM     31  C   UNL     1      -2.989   1.378  -1.663  0.00  0.00    +0.044 A 
ATOM     32  N   UNL     1      -2.395   0.323  -1.099  0.00  0.00    -0.284 N 
ATOM     33  C   UNL     1      -2.375   0.119   0.205  0.00  0.00    +0.225 C 
ATOM     34  O   UNL     1      -1.816  -0.861   0.661  0.00  0.00    -0.275 OA
ATOM     35  H   UNL     1      -1.958  -0.324  -1.675  0.00  0.00    +0.155 HD
BRANCH  29  36
ATOM     36  O   UNL     1      -3.539   2.729  -4.996  0.00  0.00    -0.495 OA
ATOM     37  C   UNL     1      -4.184   3.869  -5.569  0.00  0.00    +0.277 C 
ENDBRANCH  29  36
ENDBRANCH  23  24
ENDBRANCH   1  23
TORSDOF 8
