REMARK  Name = ZINC60377215
REMARK  11 active torsions:
REMARK  status: ('A' for Active; 'I' for Inactive)
REMARK    1  A    between atoms: C_1  and  C_2
REMARK    2  A    between atoms: C_2  and  C_4
REMARK    3  A    between atoms: C_2  and  N_14
REMARK    4  A    between atoms: C_8  and  S_10
REMARK    5  A    between atoms: S_10  and  N_13
REMARK    6  A    between atoms: N_14  and  C_15
REMARK    7  A    between atoms: N_14  and  C_16
REMARK    8  A    between atoms: C_16  and  C_17
REMARK    9  A    between atoms: C_17  and  C_18
REMARK   10  A    between atoms: N_20  and  C_21
REMARK   11  A    between atoms: C_22  and  C_30
REMARK                            x       y       z     vdW  Elec       q    Type
REMARK                         _______ _______ _______ _____ _____    ______ ____
ROOT
ATOM      1  N   UNL     1       0.713  -0.491   1.192  0.00  0.00    +0.383 N 
ATOM      2  C   UNL     1       0.733  -1.960   1.184  0.00  0.00    -0.095 C 
ATOM      3  H   UNL     1       0.240  -0.165   2.022  0.00  0.00    -0.081 HD
ENDROOT
BRANCH   1   5
ATOM      4  C   UNL     1      -0.019   1.526   0.010  0.00  0.00    -0.008 C 
ATOM      5  C   UNL     1       0.002  -0.004   0.002  0.00  0.00    -0.041 C 
BRANCH   5   6
ATOM      6  C   UNL     1      -1.412  -0.526   0.013  0.00  0.00    -0.059 A 
ATOM      7  C   UNL     1      -2.123  -0.571   1.198  0.00  0.00    +0.002 A 
ATOM      8  C   UNL     1      -3.420  -1.049   1.207  0.00  0.00    +0.002 A 
ATOM      9  C   UNL     1      -4.006  -1.482   0.032  0.00  0.00    +0.028 A 
ATOM     10  C   UNL     1      -3.295  -1.436  -1.152  0.00  0.00    +0.105 A 
ATOM     11  C   UNL     1      -1.999  -0.954  -1.163  0.00  0.00    +0.030 A 
BRANCH  10  12
ATOM     12  S   UNL     1      -4.042  -1.988  -2.650  0.00  0.00    +0.056 S 
ATOM     13  O   UNL     1      -2.981  -2.351  -3.523  0.00  0.00    -0.153 OA
ATOM     14  O   UNL     1      -5.069  -2.898  -2.280  0.00  0.00    -0.153 OA
BRANCH  12  15
ATOM     15  N   UNL     1      -4.792  -0.680  -3.334  0.00  0.00    -0.204 NA
ATOM     16  H   UNL     1      -4.756   0.184  -2.895  0.00  0.00    +0.144 HD
ATOM     17  H   UNL     1      -5.266  -0.778  -4.175  0.00  0.00    +0.144 HD
ENDBRANCH  12  15
ENDBRANCH  10  12
ENDBRANCH   5   6
ENDBRANCH   1   5
BRANCH   1  18
ATOM     18  C   UNL     1       2.091   0.018   1.182  0.00  0.00    -0.069 C 
BRANCH  18  19
ATOM     19  C   UNL     1       2.793  -0.385   2.480  0.00  0.00    +0.077 C 
BRANCH  19  20
ATOM     20  C   UNL     1       4.206   0.137   2.470  0.00  0.00    +0.216 C 
ATOM     21  O   UNL     1       4.613   0.768   1.517  0.00  0.00    -0.276 OA
ATOM     22  N   UNL     1       5.019  -0.098   3.518  0.00  0.00    -0.279 N 
ATOM     23  H   UNL     1       4.695  -0.603   4.280  0.00  0.00    +0.155 HD
BRANCH  22  24
ATOM     24  C   UNL     1       6.322   0.382   3.509  0.00  0.00    +0.090 A 
ATOM     25  C   UNL     1       7.291   0.234   4.486  0.00  0.00    +0.084 A 
ATOM     26  C   UNL     1       8.588   0.836   4.234  0.00  0.00    -0.018 A 
ATOM     27  C   UNL     1       8.677   1.478   3.048  0.00  0.00    -0.004 A 
ATOM     28  S   UNL     1       7.085   1.271   2.305  0.00  0.00    -0.077 S 
ATOM     29  C   UNL     1       9.872   2.196   2.501  0.00  0.00    +0.043 C 
ATOM     30  C   UNL     1      10.867   2.421   3.650  0.00  0.00    +0.005 C 
ATOM     31  C   UNL     1      11.046   1.105   4.413  0.00  0.00    +0.005 C 
ATOM     32  C   UNL     1       9.770   0.775   5.190  0.00  0.00    +0.037 C 
BRANCH  25  33
ATOM     33  C   UNL     1       7.026  -0.484   5.697  0.00  0.00    +0.102 C 
ATOM     34  N   UNL     1       6.816  -1.054   6.657  0.00  0.00    -0.191 NA
ENDBRANCH  25  33
ENDBRANCH  22  24
ENDBRANCH  19  20
ENDBRANCH  18  19
ENDBRANCH   1  18
TORSDOF 9
