REMARK  Name = ZINC53681465
REMARK  11 active torsions:
REMARK  status: ('A' for Active; 'I' for Inactive)
REMARK    1  A    between atoms: C_1  and  C_2
REMARK    2  A    between atoms: C_2  and  C_4
REMARK    3  A    between atoms: C_2  and  N_15
REMARK    4  A    between atoms: N_6  and  C_7
REMARK    5  A    between atoms: C_8  and  C_12
REMARK    6  A    between atoms: N_15  and  C_16
REMARK    7  A    between atoms: N_15  and  C_17
REMARK    8  A    between atoms: C_17  and  C_18
REMARK    9  A    between atoms: C_18  and  C_19
REMARK   10  A    between atoms: C_19  and  O_20
REMARK   11  A    between atoms: O_20  and  C_21
REMARK                            x       y       z     vdW  Elec       q    Type
REMARK                         _______ _______ _______ _____ _____    ______ ____
ROOT
ATOM      1  C   UNL     1      -0.725   1.352  -0.193  0.00  0.00    -0.004 C 
ATOM      2  C   UNL     1       0.052   0.069   0.105  0.00  0.00    +0.016 C 
ENDROOT
BRANCH   2   3
ATOM      3  C   UNL     1       0.900  -0.294  -1.087  0.00  0.00    +0.204 C 
ATOM      4  O   UNL     1       0.470  -1.054  -1.929  0.00  0.00    -0.277 OA
ATOM      5  N   UNL     1       2.136   0.227  -1.219  0.00  0.00    -0.281 N 
ATOM      6  H   UNL     1       2.480   0.836  -0.546  0.00  0.00    +0.155 HD
BRANCH   5   7
ATOM      7  C   UNL     1       2.916  -0.106  -2.316  0.00  0.00    +0.084 A 
ATOM      8  C   UNL     1       4.201   0.325  -2.611  0.00  0.00    +0.065 A 
ATOM      9  C   UNL     1       4.788  -0.181  -3.831  0.00  0.00    +0.022 A 
ATOM     10  C   UNL     1       4.018  -1.019  -4.549  0.00  0.00    +0.048 A 
ATOM     11  S   UNL     1       2.524  -1.129  -3.587  0.00  0.00    -0.081 S 
BRANCH   8  12
ATOM     12  C   UNL     1       4.926   1.247  -1.731  0.00  0.00    +0.244 C 
ATOM     13  O   UNL     1       4.401   1.654  -0.712  0.00  0.00    -0.270 OA
ATOM     14  N   UNL     1       6.174   1.643  -2.052  0.00  0.00    -0.325 N 
ATOM     15  H   UNL     1       6.592   1.319  -2.865  0.00  0.00    +0.145 HD
ATOM     16  H   UNL     1       6.654   2.253  -1.470  0.00  0.00    +0.145 HD
ENDBRANCH   8  12
ENDBRANCH   5   7
ENDBRANCH   2   3
BRANCH   2  17
ATOM     17  N   UNL     1      -0.892  -1.022   0.384  0.00  0.00    +0.385 N 
ATOM     18  C   UNL     1      -1.752  -0.648   1.514  0.00  0.00    -0.095 C 
ATOM     19  H   UNL     1      -1.462  -1.190  -0.431  0.00  0.00    -0.081 HD
BRANCH  17  20
ATOM     20  C   UNL     1      -0.145  -2.242   0.719  0.00  0.00    -0.075 C 
BRANCH  20  21
ATOM     21  C   UNL     1      -1.121  -3.411   0.871  0.00  0.00    +0.022 C 
BRANCH  21  22
ATOM     22  C   UNL     1      -0.343  -4.682   1.220  0.00  0.00    +0.227 C 
BRANCH  22  23
ATOM     23  O   UNL     1      -1.254  -5.774   1.361  0.00  0.00    -0.492 OA
BRANCH  23  24
ATOM     24  C   UNL     1      -0.722  -6.985   1.673  0.00  0.00    +0.121 A 
ATOM     25  C   UNL     1       0.648  -7.118   1.845  0.00  0.00    +0.047 A 
ATOM     26  C   UNL     1       1.187  -8.350   2.162  0.00  0.00    +0.023 A 
ATOM     27  C   UNL     1       0.362  -9.450   2.308  0.00  0.00    +0.041 A 
ATOM     28  C   UNL     1      -1.005  -9.320   2.136  0.00  0.00    +0.023 A 
ATOM     29  C   UNL     1      -1.548  -8.088   1.825  0.00  0.00    +0.047 A 
ATOM     30 CL   UNL     1       1.042 -10.997   2.705  0.00  0.00    -0.084 Cl
ENDBRANCH  23  24
ENDBRANCH  22  23
ENDBRANCH  21  22
ENDBRANCH  20  21
ENDBRANCH  17  20
ENDBRANCH   2  17
TORSDOF 9
