REMARK  Name = ZINC43547854
REMARK  11 active torsions:
REMARK  status: ('A' for Active; 'I' for Inactive)
REMARK    1  A    between atoms: C_1  and  C_2
REMARK    2  A    between atoms: C_2  and  O_34
REMARK    3  A    between atoms: C_5  and  C_16
REMARK    4  A    between atoms: C_9  and  C_14
REMARK    5  A    between atoms: C_9  and  C_15
REMARK    6  A    between atoms: C_11  and  N_13
REMARK    7  A    between atoms: C_16  and  C_17
REMARK    8  A    between atoms: C_17  and  C_18
REMARK    9  A    between atoms: N_23  and  C_26
REMARK   10  A    between atoms: C_31  and  O_32
REMARK   11  A    between atoms: O_32  and  C_33
REMARK                            x       y       z     vdW  Elec       q    Type
REMARK                         _______ _______ _______ _____ _____    ______ ____
ROOT
ATOM      1  C   UNL     1       0.034   1.638  -0.102  0.00  0.00    +0.041 C 
ATOM      2  C   UNL     1       0.020   0.108  -0.109  0.00  0.00    +0.064 C 
ATOM      3  C   UNL     1      -1.424  -0.377  -0.187  0.00  0.00    +0.035 C 
ATOM      4  C   UNL     1      -1.509  -1.909  -0.080  0.00  0.00    +0.008 C 
ATOM      5  C   UNL     1      -0.856  -2.306   1.229  0.00  0.00    -0.038 C 
ATOM      6  C   UNL     1       0.645  -1.922   1.133  0.00  0.00    +0.002 C 
ATOM      7  C   UNL     1       0.719  -0.406   1.161  0.00  0.00    +0.039 C 
ATOM      8  C   UNL     1       1.228  -2.641   2.355  0.00  0.00    -0.033 C 
ATOM      9  C   UNL     1       0.503  -4.014   2.328  0.00  0.00    -0.009 C 
ATOM     10  C   UNL     1      -0.818  -3.796   1.548  0.00  0.00    -0.068 C 
ATOM     11  C   UNL     1       0.897  -1.879   3.640  0.00  0.00    +0.011 C 
ATOM     12  C   UNL     1       2.739  -2.824   2.206  0.00  0.00    +0.011 C 
ENDROOT
BRANCH  10  13
ATOM     13  N   UNL     1      -0.811  -4.582   0.307  0.00  0.00    +0.380 N 
ATOM     14  H   UNL     1       0.002  -4.341  -0.240  0.00  0.00    -0.090 HD
ATOM     15  H   UNL     1      -0.785  -5.566   0.531  0.00  0.00    -0.090 HD
ATOM     16  H   UNL     1      -1.645  -4.380  -0.224  0.00  0.00    -0.090 HD
ENDBRANCH  10  13
BRANCH   2  17
ATOM     17  O   UNL     1       0.732  -0.361  -1.256  0.00  0.00    -0.389 OA
ATOM     18  H   UNL     1       0.360  -0.065  -2.098  0.00  0.00    +0.210 HD
ENDBRANCH   2  17
BRANCH   5  19
ATOM     19  C   UNL     1      -1.512  -1.546   2.385  0.00  0.00    +0.015 C 
BRANCH  19  20
ATOM     20  C   UNL     1      -3.025  -1.764   2.345  0.00  0.00    +0.096 C 
BRANCH  20  21
ATOM     21  C   UNL     1      -3.671  -1.016   3.483  0.00  0.00    +0.216 C 
ATOM     22  O   UNL     1      -2.987  -0.373   4.251  0.00  0.00    -0.276 OA
ATOM     23  N   UNL     1      -5.008  -1.063   3.648  0.00  0.00    -0.298 N 
ATOM     24  C   UNL     1      -5.848  -1.844   2.729  0.00  0.00    +0.126 C 
ATOM     25  C   UNL     1      -6.682  -2.834   3.551  0.00  0.00    +0.124 C 
ATOM     26  N   UNL     1      -7.326  -2.106   4.653  0.00  0.00    -0.324 N 
ATOM     27  C   UNL     1      -6.486  -1.325   5.572  0.00  0.00    +0.124 C 
ATOM     28  C   UNL     1      -5.650  -0.339   4.753  0.00  0.00    +0.126 C 
BRANCH  26  29
ATOM     29  C   UNL     1      -8.714  -2.154   4.824  0.00  0.00    +0.072 A 
ATOM     30  C   UNL     1      -9.283  -3.137   5.621  0.00  0.00    +0.027 A 
ATOM     31  C   UNL     1     -10.654  -3.182   5.789  0.00  0.00    +0.002 A 
ATOM     32  C   UNL     1     -11.461  -2.250   5.164  0.00  0.00    +0.004 A 
ATOM     33  C   UNL     1     -10.902  -1.267   4.369  0.00  0.00    +0.047 A 
ATOM     34  C   UNL     1      -9.528  -1.211   4.200  0.00  0.00    +0.141 A 
BRANCH  34  35
ATOM     35  O   UNL     1      -8.976  -0.242   3.421  0.00  0.00    -0.493 OA
ATOM     36  C   UNL     1      -9.872   0.690   2.813  0.00  0.00    +0.277 C 
ENDBRANCH  34  35
ENDBRANCH  26  29
ENDBRANCH  20  21
ENDBRANCH  19  20
ENDBRANCH   5  19
TORSDOF 7
