REMARK  Name = ZINC12872534
REMARK  8 active torsions:
REMARK  status: ('A' for Active; 'I' for Inactive)
REMARK    1  A    between atoms: C_1  and  C_2
REMARK    2  A    between atoms: C_2  and  C_3
REMARK    3  A    between atoms: C_3  and  C_4
REMARK    4  A    between atoms: C_4  and  C_5
REMARK    5  A    between atoms: C_8  and  N_11
REMARK    6  A    between atoms: C_16  and  C_34
REMARK    7  A    between atoms: C_25  and  C_33
REMARK    8  A    between atoms: C_34  and  C_35
REMARK                            x       y       z     vdW  Elec       q    Type
REMARK                         _______ _______ _______ _____ _____    ______ ____
ROOT
ATOM      1  N   UNL     1       1.279  -1.054  -4.608  0.00  0.00    -0.210 N 
ATOM      2  C   UNL     1       1.016  -2.059  -5.451  0.00  0.00    +0.228 C 
ATOM      3  O   UNL     1       0.916  -1.956  -6.655  0.00  0.00    -0.275 OA
ATOM      4  C   UNL     1       0.864  -3.344  -4.669  0.00  0.00    +0.074 C 
ATOM      5  C   UNL     1      -0.606  -3.809  -4.734  0.00  0.00    -0.049 C 
ATOM      6  C   UNL     1      -0.284  -3.123  -2.524  0.00  0.00    +0.050 C 
ATOM      7  C   UNL     1       1.076  -2.895  -3.196  0.00  0.00    +0.088 C 
ATOM      8  C   UNL     1       1.337  -1.410  -3.319  0.00  0.00    +0.229 C 
ATOM      9  O   UNL     1       1.565  -0.660  -2.395  0.00  0.00    -0.275 OA
ATOM     10  C   UNL     1      -0.574  -2.072  -1.491  0.00  0.00    -0.026 A 
ATOM     11  C   UNL     1      -0.686  -0.700  -1.539  0.00  0.00    +0.008 A 
ATOM     12  C   UNL     1      -0.963   0.013  -0.387  0.00  0.00    -0.049 A 
ATOM     13  C   UNL     1      -1.139  -0.655   0.811  0.00  0.00    +0.025 A 
ATOM     14  C   UNL     1      -1.033  -2.030   0.864  0.00  0.00    +0.063 A 
ATOM     15  C   UNL     1      -0.748  -2.756  -0.292  0.00  0.00    +0.054 A 
ATOM     16  N   UNL     1      -0.591  -4.130  -0.491  0.00  0.00    -0.285 N 
ATOM     17  C   UNL     1      -0.315  -4.428  -1.775  0.00  0.00    +0.211 C 
ATOM     18  O   UNL     1      -0.127  -5.533  -2.238  0.00  0.00    -0.277 OA
ATOM     19 CL   UNL     1      -1.255  -2.858   2.373  0.00  0.00    -0.082 Cl
ATOM     20  C   UNL     1      -1.079   1.515  -0.438  0.00  0.00    +0.044 C 
ATOM     21  H   UNL     1      -0.671  -4.792   0.213  0.00  0.00    +0.155 HD
ATOM     22  N   UNL     1      -1.246  -3.119  -3.612  0.00  0.00    +0.394 N 
ATOM     23  H   UNL     1      -2.101  -3.614  -3.332  0.00  0.00    -0.083 HD
ATOM     24  H   UNL     1      -1.480  -2.154  -3.875  0.00  0.00    -0.083 HD
ENDROOT
BRANCH   1  28
ATOM     25  C   UNL     1       1.866   2.869  -5.889  0.00  0.00    -0.047 A 
ATOM     26  C   UNL     1       0.620   2.282  -6.012  0.00  0.00    +0.005 A 
ATOM     27  C   UNL     1       0.423   0.983  -5.588  0.00  0.00    +0.024 A 
ATOM     28  C   UNL     1       1.476   0.265  -5.039  0.00  0.00    +0.044 A 
ATOM     29  C   UNL     1       2.725   0.859  -4.912  0.00  0.00    +0.024 A 
ATOM     30  C   UNL     1       2.918   2.157  -5.342  0.00  0.00    +0.005 A 
BRANCH  25  31
ATOM     31  C   UNL     1       2.078   4.288  -6.352  0.00  0.00    +0.035 C 
BRANCH  31  32
ATOM     32  C   UNL     1       1.794   5.249  -5.196  0.00  0.00    +0.004 C 
BRANCH  32  34
ATOM     33  C   UNL     1       1.726   7.650  -4.510  0.00  0.00    +0.004 C 
ATOM     34  C   UNL     1       2.010   6.689  -5.666  0.00  0.00    -0.003 C 
ENDBRANCH  32  34
ENDBRANCH  31  32
ENDBRANCH  25  31
ENDBRANCH   1  28
BRANCH   5  35
ATOM     35  C   UNL     1      -1.234  -3.405  -6.069  0.00  0.00    +0.080 C 
BRANCH  35  36
ATOM     36  C   UNL     1      -2.652  -3.909  -6.131  0.00  0.00    +0.209 C 
ATOM     37  O   UNL     1      -3.116  -4.531  -5.199  0.00  0.00    -0.276 OA
ATOM     38  N   UNL     1      -3.406  -3.670  -7.223  0.00  0.00    -0.329 N 
ATOM     39  H   UNL     1      -3.035  -3.172  -7.968  0.00  0.00    +0.145 HD
ATOM     40  H   UNL     1      -4.319  -3.994  -7.262  0.00  0.00    +0.145 HD
ENDBRANCH  35  36
ENDBRANCH   5  35
TORSDOF 6
