REMARK  Name = ZINC34748759
REMARK  8 active torsions:
REMARK  status: ('A' for Active; 'I' for Inactive)
REMARK    1  A    between atoms: C_1  and  C_2
REMARK    2  A    between atoms: C_5  and  C_9
REMARK    3  A    between atoms: C_6  and  C_8
REMARK    4  A    between atoms: C_9  and  N_10
REMARK    5  A    between atoms: C_14  and  C_35
REMARK    6  A    between atoms: C_15  and  C_34
REMARK    7  A    between atoms: N_23  and  C_26
REMARK    8  A    between atoms: C_26  and  C_27
REMARK                            x       y       z     vdW  Elec       q    Type
REMARK                         _______ _______ _______ _____ _____    ______ ____
ROOT
ATOM      1  N   UNL     1      -1.061  -4.678   0.380  0.00  0.00    -0.276 N 
ATOM      2  C   UNL     1      -1.386  -4.875   1.671  0.00  0.00    +0.264 A 
ATOM      3  O   UNL     1      -0.551  -4.727   2.547  0.00  0.00    -0.267 OA
ATOM      4  C   UNL     1      -2.723  -5.261   2.003  0.00  0.00    +0.075 A 
ATOM      5  C   UNL     1      -3.307  -5.527   3.306  0.00  0.00    -0.026 A 
ATOM      6  C   UNL     1      -4.599  -5.879   3.385  0.00  0.00    -0.008 A 
ATOM      7  S   UNL     1      -5.134  -5.876   1.684  0.00  0.00    -0.073 S 
ATOM      8  C   UNL     1      -3.606  -5.403   0.916  0.00  0.00    +0.117 A 
ATOM      9  N   UNL     1      -3.220  -5.192  -0.337  0.00  0.00    -0.208 NA
ATOM     10  C   UNL     1      -1.983  -4.833  -0.613  0.00  0.00    +0.202 A 
ATOM     11  N   UNL     1      -1.616  -4.617  -1.917  0.00  0.00    -0.304 N 
ATOM     12  C   UNL     1      -2.010  -5.556  -2.979  0.00  0.00    +0.089 C 
ATOM     13  C   UNL     1      -2.643  -4.757  -4.123  0.00  0.00    -0.059 C 
ATOM     14  N   UNL     1      -1.714  -3.705  -4.557  0.00  0.00    +0.387 N 
ATOM     15  C   UNL     1      -1.506  -2.741  -3.470  0.00  0.00    -0.059 C 
ATOM     16  C   UNL     1      -0.822  -3.438  -2.294  0.00  0.00    +0.089 C 
ATOM     17  C   UNL     1      -5.406  -6.200   4.617  0.00  0.00    +0.052 C 
ATOM     18  C   UNL     1      -2.471  -5.412   4.554  0.00  0.00    +0.045 C 
ATOM     19  H   UNL     1      -0.830  -4.122  -4.809  0.00  0.00    -0.081 HD
ENDROOT
BRANCH   1  20
ATOM     20  C   UNL     1       0.307  -4.284   0.035  0.00  0.00    +0.163 C 
BRANCH  20  25
ATOM     21  C   UNL     1       3.995  -8.345   1.850  0.00  0.00    +0.044 C 
ATOM     22  C   UNL     1       3.034  -7.285   1.377  0.00  0.00    -0.050 A 
ATOM     23  C   UNL     1       2.903  -6.104   2.083  0.00  0.00    +0.004 A 
ATOM     24  C   UNL     1       2.021  -5.133   1.649  0.00  0.00    +0.006 A 
ATOM     25  C   UNL     1       1.269  -5.342   0.508  0.00  0.00    -0.025 A 
ATOM     26  C   UNL     1       1.400  -6.523  -0.199  0.00  0.00    -0.045 A 
ATOM     27  C   UNL     1       2.286  -7.493   0.233  0.00  0.00    +0.007 A 
ATOM     28  C   UNL     1       0.580  -6.751  -1.442  0.00  0.00    +0.044 C 
ENDBRANCH  20  25
ENDBRANCH   1  20
BRANCH  14  29
ATOM     29  C   UNL     1      -2.274  -3.011  -5.725  0.00  0.00    +0.019 C 
BRANCH  29  30
ATOM     30  C   UNL     1      -1.270  -2.016  -6.246  0.00  0.00    +0.199 C 
ATOM     31  O   UNL     1      -0.194  -1.897  -5.700  0.00  0.00    -0.278 OA
ATOM     32  N   UNL     1      -1.568  -1.258  -7.320  0.00  0.00    -0.303 N 
ATOM     33  C   UNL     1      -2.831  -1.295  -8.072  0.00  0.00    +0.108 C 
ATOM     34  C   UNL     1      -2.708  -0.279  -9.226  0.00  0.00    +0.020 C 
ATOM     35  C   UNL     1      -1.173  -0.136  -9.400  0.00  0.00    +0.020 C 
ATOM     36  C   UNL     1      -0.683  -0.250  -7.933  0.00  0.00    +0.108 C 
ENDBRANCH  29  30
ENDBRANCH  14  29
TORSDOF 4
