REMARK  Name = ZINC08623150
REMARK  10 active torsions:
REMARK  status: ('A' for Active; 'I' for Inactive)
REMARK    1  A    between atoms: C_1  and  C_2
REMARK    2  A    between atoms: C_4  and  C_32
REMARK    3  A    between atoms: C_6  and  C_8
REMARK    4  A    between atoms: C_16  and  C_18
REMARK    5  A    between atoms: C_18  and  N_19
REMARK    6  A    between atoms: C_20  and  C_22
REMARK    7  A    between atoms: C_25  and  C_28
REMARK    8  A    between atoms: C_28  and  C_29
REMARK    9  A    between atoms: C_28  and  C_30
REMARK   10  A    between atoms: C_28  and  C_31
REMARK                            x       y       z     vdW  Elec       q    Type
REMARK                         _______ _______ _______ _____ _____    ______ ____
ROOT
ATOM      1  C   UNL     1       4.252  -6.115  -2.762  0.00  0.00    +0.024 C 
ATOM      2  C   UNL     1       4.300  -4.597  -2.569  0.00  0.00    -0.068 C 
ATOM      3  C   UNL     1       6.414  -4.756  -1.399  0.00  0.00    -0.078 C 
ATOM      4  C   UNL     1       6.427  -6.279  -1.558  0.00  0.00    -0.015 C 
ATOM      5  C   UNL     1       4.980  -6.786  -1.590  0.00  0.00    -0.007 C 
ATOM      6  C   UNL     1       4.288  -6.375  -0.284  0.00  0.00    -0.010 C 
ATOM      7  C   UNL     1       4.334  -4.849  -0.160  0.00  0.00    -0.051 C 
ATOM      8  N   UNL     1       5.024  -4.257  -1.326  0.00  0.00    +0.383 N 
ATOM      9  H   UNL     1       5.042  -3.236  -1.219  0.00  0.00    -0.081 HD
ENDROOT
BRANCH   1  15
ATOM     10  C   UNL     1       0.880  -9.477  -1.653  0.00  0.00    +0.088 C 
ATOM     11  C   UNL     1       1.222  -8.150  -2.279  0.00  0.00    +0.127 A 
ATOM     12  N   UNL     1       0.262  -7.438  -2.833  0.00  0.00    -0.232 NA
ATOM     13  C   UNL     1       0.528  -6.260  -3.395  0.00  0.00    +0.076 A 
ATOM     14  C   UNL     1       1.845  -5.791  -3.388  0.00  0.00    +0.052 A 
ATOM     15  C   UNL     1       2.817  -6.575  -2.795  0.00  0.00    +0.047 A 
ATOM     16  N   UNL     1       2.473  -7.737  -2.261  0.00  0.00    -0.237 NA
BRANCH  13  17
ATOM     17  C   UNL     1      -0.554  -5.460  -4.016  0.00  0.00    +0.014 A 
ATOM     18  C   UNL     1      -0.682  -4.104  -3.719  0.00  0.00    +0.011 A 
ATOM     19  C   UNL     1      -1.691  -3.365  -4.301  0.00  0.00    +0.001 A 
ATOM     20  C   UNL     1      -2.576  -3.966  -5.178  0.00  0.00    +0.001 A 
ATOM     21  C   UNL     1      -2.456  -5.310  -5.477  0.00  0.00    +0.016 A 
ATOM     22  C   UNL     1      -1.446  -6.060  -4.906  0.00  0.00    +0.027 A 
ATOM     23 BR   UNL     1      -1.277  -7.897  -5.322  0.00  0.00    -0.050 Br
ENDBRANCH  13  17
ENDBRANCH   1  15
BRANCH   7  24
ATOM     24  C   UNL     1       2.908  -4.299  -0.094  0.00  0.00    +0.089 C 
BRANCH  24  25
ATOM     25  N   UNL     1       2.950  -2.835  -0.076  0.00  0.00    -0.313 N 
ATOM     26  C   UNL     1       1.812  -2.130   0.079  0.00  0.00    +0.244 C 
ATOM     27  O   UNL     1       0.741  -2.704   0.111  0.00  0.00    -0.270 OA
ATOM     28  H   UNL     1       3.797  -2.372  -0.176  0.00  0.00    +0.149 HD
BRANCH  26  29
ATOM     29  C   UNL     1       1.866  -0.658   0.208  0.00  0.00    +0.037 A 
ATOM     30  C   UNL     1       0.689   0.075   0.369  0.00  0.00    +0.013 A 
ATOM     31  C   UNL     1       0.746   1.448   0.490  0.00  0.00    +0.005 A 
ATOM     32  C   UNL     1       1.966   2.099   0.453  0.00  0.00    -0.042 A 
ATOM     33  C   UNL     1       3.137   1.378   0.294  0.00  0.00    +0.005 A 
ATOM     34  C   UNL     1       3.094   0.005   0.172  0.00  0.00    +0.013 A 
BRANCH  32  35
ATOM     35  C   UNL     1       2.021   3.599   0.585  0.00  0.00    -0.013 C 
ATOM     36  C   UNL     1       1.419   4.015   1.929  0.00  0.00    +0.015 C 
ATOM     37  C   UNL     1       3.477   4.064   0.512  0.00  0.00    +0.015 C 
ATOM     38  C   UNL     1       1.223   4.241  -0.552  0.00  0.00    +0.015 C 
ENDBRANCH  32  35
ENDBRANCH  26  29
ENDBRANCH  24  25
ENDBRANCH   7  24
TORSDOF 6
