REMARK  Name = ZINC66977564
REMARK  9 active torsions:
REMARK  status: ('A' for Active; 'I' for Inactive)
REMARK    1  A    between atoms: C_1  and  C_2
REMARK    2  A    between atoms: C_5  and  C_29
REMARK    3  A    between atoms: N_8  and  C_10
REMARK    4  A    between atoms: C_10  and  C_11
REMARK    5  A    between atoms: C_11  and  C_13
REMARK    6  A    between atoms: C_11  and  N_14
REMARK    7  A    between atoms: N_17  and  N_18
REMARK    8  A    between atoms: C_19  and  C_21
REMARK    9  A    between atoms: C_21  and  C_22
REMARK                            x       y       z     vdW  Elec       q    Type
REMARK                         _______ _______ _______ _____ _____    ______ ____
ROOT
ATOM      1  N   UNL     1       2.109   1.674   3.488  0.00  0.00    -0.297 N 
ATOM      2  C   UNL     1       1.173   2.414   4.115  0.00  0.00    +0.316 C 
ATOM      3  O   UNL     1       0.351   1.874   4.831  0.00  0.00    -0.251 OA
ATOM      4  N   UNL     1       1.148   3.751   3.950  0.00  0.00    -0.218 N 
ATOM      5  H   UNL     1       2.765   2.105   2.918  0.00  0.00    +0.150 HD
ATOM      6  H   UNL     1       0.474   4.283   4.401  0.00  0.00    +0.174 HD
ENDROOT
BRANCH   4   7
ATOM      7  N   UNL     1       2.095   4.373   3.126  0.00  0.00    -0.233 N 
ATOM      8  C   UNL     1       2.070   5.710   2.960  0.00  0.00    +0.234 C 
ATOM      9  O   UNL     1       1.228   6.375   3.524  0.00  0.00    -0.274 OA
ATOM     10  H   UNL     1       2.769   3.840   2.674  0.00  0.00    +0.173 HD
BRANCH   8  11
ATOM     11  C   UNL     1       3.089   6.378   2.073  0.00  0.00    +0.135 C 
BRANCH  11  12
ATOM     12  C   UNL     1       2.844   7.865   2.059  0.00  0.00    -0.003 A 
ATOM     13  C   UNL     1       2.079   8.430   1.055  0.00  0.00    +0.007 A 
ATOM     14  C   UNL     1       1.853   9.793   1.042  0.00  0.00    +0.000 A 
ATOM     15  C   UNL     1       2.393  10.594   2.031  0.00  0.00    +0.003 A 
ATOM     16  C   UNL     1       3.158  10.032   3.035  0.00  0.00    +0.038 A 
ATOM     17  C   UNL     1       3.380   8.665   3.053  0.00  0.00    +0.127 A 
ATOM     18  F   UNL     1       4.123   8.114   4.037  0.00  0.00    -0.205 F 
ENDBRANCH  11  12
ENDBRANCH   8  11
ENDBRANCH   4   7
BRANCH   1  19
ATOM     19  C   UNL     1       2.136   0.221   3.668  0.00  0.00    +0.055 C 
ATOM     20  C   UNL     1       2.924  -0.122   4.934  0.00  0.00    +0.026 C 
BRANCH  19  21
ATOM     21  C   UNL     1       2.808  -0.431   2.458  0.00  0.00    -0.057 C 
BRANCH  21  27
ATOM     22  C   UNL     1      -0.019   1.526   0.010  0.00  0.00    +0.005 C 
ATOM     23  C   UNL     1       0.002  -0.004   0.002  0.00  0.00    -0.031 C 
ATOM     24  C   UNL     1       0.721  -0.499  -1.257  0.00  0.00    +0.003 C 
ATOM     25  C   UNL     1       2.177  -0.027  -1.220  0.00  0.00    -0.031 C 
ATOM     26  C   UNL     1       2.839  -0.534   0.063  0.00  0.00    -0.076 C 
ATOM     27  N   UNL     1       2.123  -0.005   1.230  0.00  0.00    +0.381 N 
ATOM     28  C   UNL     1       0.744  -0.512   1.240  0.00  0.00    -0.076 C 
ATOM     29  C   UNL     1       2.924  -0.581  -2.434  0.00  0.00    +0.005 C 
ATOM     30  H   UNL     1       2.109   1.003   1.187  0.00  0.00    -0.082 HD
ENDBRANCH  21  27
ENDBRANCH  19  21
ENDBRANCH   1  19
TORSDOF 6
