REMARK  Name = ZINC04608084
REMARK  10 active torsions:
REMARK  status: ('A' for Active; 'I' for Inactive)
REMARK    1  A    between atoms: C_1  and  N_2
REMARK    2  A    between atoms: N_2  and  C_3
REMARK    3  A    between atoms: N_2  and  C_4
REMARK    4  A    between atoms: C_7  and  N_10
REMARK    5  A    between atoms: N_10  and  C_11
REMARK    6  A    between atoms: C_11  and  N_13
REMARK    7  A    between atoms: N_13  and  N_14
REMARK    8  A    between atoms: N_14  and  C_15
REMARK    9  A    between atoms: C_15  and  N_17
REMARK   10  A    between atoms: N_17  and  C_18
REMARK                            x       y       z     vdW  Elec       q    Type
REMARK                         _______ _______ _______ _____ _____    ______ ____
ROOT
ATOM      1  N   UNL     1       2.523  -4.093  -0.079  0.00  0.00    -0.246 N 
ATOM      2  H   UNL     1       3.313  -4.581   0.204  0.00  0.00    +0.172 HD
ENDROOT
BRANCH   1   3
ATOM      3  C   UNL     1       2.563  -2.750  -0.185  0.00  0.00    +0.151 C 
ATOM      4  S   UNL     1       4.007  -1.905   0.179  0.00  0.00    -0.017 S 
BRANCH   3   5
ATOM      5  N   UNL     1       1.466  -2.072  -0.578  0.00  0.00    -0.296 N 
ATOM      6  H   UNL     1       0.664  -2.554  -0.833  0.00  0.00    +0.154 HD
BRANCH   5  10
ATOM      7  C   UNL     1       1.522   2.096  -0.695  0.00  0.00    +0.029 A 
ATOM      8  C   UNL     1       2.615   1.374  -1.155  0.00  0.00    +0.025 A 
ATOM      9  C   UNL     1       2.596  -0.006  -1.116  0.00  0.00    +0.025 A 
ATOM     10  C   UNL     1       1.485  -0.671  -0.617  0.00  0.00    +0.033 A 
ATOM     11  C   UNL     1       0.392   0.051  -0.157  0.00  0.00    +0.025 A 
ATOM     12  C   UNL     1       0.410   1.431  -0.196  0.00  0.00    +0.025 A 
BRANCH   7  14
ATOM     13  C   UNL     1       2.655   4.195  -1.379  0.00  0.00    +0.129 C 
ATOM     14  N   UNL     1       1.541   3.495  -0.734  0.00  0.00    -0.336 N 
ATOM     15  C   UNL     1       0.447   4.259  -0.129  0.00  0.00    +0.129 C 
ENDBRANCH   7  14
ENDBRANCH   5  10
ENDBRANCH   3   5
ENDBRANCH   1   3
BRANCH   1  16
ATOM     16  N   UNL     1       1.342  -4.785  -0.377  0.00  0.00    -0.246 N 
ATOM     17  H   UNL     1       0.552  -4.297  -0.659  0.00  0.00    +0.172 HD
BRANCH  16  18
ATOM     18  C   UNL     1       1.302  -6.128  -0.270  0.00  0.00    +0.151 C 
ATOM     19  S   UNL     1      -0.142  -6.973  -0.634  0.00  0.00    -0.017 S 
BRANCH  18  20
ATOM     20  N   UNL     1       2.399  -6.805   0.122  0.00  0.00    -0.296 N 
ATOM     21  H   UNL     1       3.188  -6.323   0.414  0.00  0.00    +0.154 HD
BRANCH  20  22
ATOM     22  C   UNL     1       2.399  -8.205   0.108  0.00  0.00    +0.033 A 
ATOM     23  C   UNL     1       2.990  -8.911   1.148  0.00  0.00    +0.026 A 
ATOM     24  C   UNL     1       2.984 -10.292   1.135  0.00  0.00    +0.040 A 
ATOM     25  C   UNL     1       2.398 -10.973   0.081  0.00  0.00    +0.124 A 
ATOM     26  C   UNL     1       1.813 -10.271  -0.960  0.00  0.00    +0.040 A 
ATOM     27  C   UNL     1       1.812  -8.890  -0.948  0.00  0.00    +0.026 A 
ATOM     28  F   UNL     1       2.398 -12.324   0.068  0.00  0.00    -0.205 F 
ENDBRANCH  20  22
ENDBRANCH  18  20
ENDBRANCH  16  18
ENDBRANCH   1  16
TORSDOF 8
