REMARK  Name = ZINC39683997
REMARK  7 active torsions:
REMARK  status: ('A' for Active; 'I' for Inactive)
REMARK    1  A    between atoms: C_1  and  C_2
REMARK    2  A    between atoms: C_2  and  C_4
REMARK    3  A    between atoms: C_2  and  N_8
REMARK    4  A    between atoms: N_6  and  C_7
REMARK    5  A    between atoms: C_9  and  C_11
REMARK    6  A    between atoms: C_22  and  C_24
REMARK    7  A    between atoms: C_27  and  C_29
REMARK                            x       y       z     vdW  Elec       q    Type
REMARK                         _______ _______ _______ _____ _____    ______ ____
ROOT
ATOM      1  C   UNL     1      -3.465  -1.164  -1.134  0.00  0.00    +0.100 C 
ATOM      2  C   UNL     1      -3.486  -2.652  -0.717  0.00  0.00    +0.121 C 
ATOM      3  N   UNL     1      -4.545  -3.261  -1.556  0.00  0.00    -0.294 N 
ATOM      4  C   UNL     1      -4.384  -2.614  -2.880  0.00  0.00    +0.115 C 
ATOM      5  C   UNL     1      -4.054  -1.143  -2.554  0.00  0.00    -0.004 C 
ATOM      6  C   UNL     1      -3.027  -0.602  -3.545  0.00  0.00    -0.010 C 
ATOM      7  C   UNL     1      -3.655  -0.536  -4.939  0.00  0.00    -0.082 C 
ATOM      8  N   UNL     1      -4.838   0.334  -4.905  0.00  0.00    +0.379 N 
ATOM      9  C   UNL     1      -5.858  -0.244  -4.021  0.00  0.00    -0.082 C 
ATOM     10  C   UNL     1      -5.323  -0.297  -2.587  0.00  0.00    -0.010 C 
ATOM     11  C   UNL     1      -5.451  -4.192  -1.196  0.00  0.00    +0.282 C 
ATOM     12  O   UNL     1      -6.264  -4.595  -2.008  0.00  0.00    -0.267 OA
ATOM     13  H   UNL     1      -4.574   1.245  -4.561  0.00  0.00    -0.086 HD
ATOM     14  H   UNL     1      -5.214   0.424  -5.837  0.00  0.00    -0.086 HD
ENDROOT
BRANCH  11  15
ATOM     15  C   UNL     1      -5.457  -4.718   0.171  0.00  0.00    +0.190 A 
ATOM     16  C   UNL     1      -6.320  -5.670   0.667  0.00  0.00    +0.055 A 
ATOM     17  C   UNL     1      -5.971  -5.872   2.006  0.00  0.00    +0.051 A 
ATOM     18  C   UNL     1      -4.920  -5.044   2.276  0.00  0.00    +0.139 A 
ATOM     19  O   UNL     1      -4.615  -4.357   1.162  0.00  0.00    -0.450 OA
BRANCH  18  20
ATOM     20  C   UNL     1      -4.228  -4.927   3.575  0.00  0.00    +0.052 A 
ATOM     21  C   UNL     1      -4.964  -4.746   4.748  0.00  0.00    +0.014 A 
ATOM     22  C   UNL     1      -4.312  -4.638   5.959  0.00  0.00    +0.001 A 
ATOM     23  C   UNL     1      -2.931  -4.707   6.014  0.00  0.00    +0.003 A 
ATOM     24  C   UNL     1      -2.193  -4.886   4.858  0.00  0.00    +0.039 A 
ATOM     25  C   UNL     1      -2.833  -5.002   3.638  0.00  0.00    +0.134 A 
ATOM     26  F   UNL     1      -2.112  -5.183   2.510  0.00  0.00    -0.205 F 
ENDBRANCH  18  20
ENDBRANCH  11  15
BRANCH   1  28
ATOM     27  N   UNL     1      -1.812   0.661  -0.903  0.00  0.00    -0.304 N 
ATOM     28  C   UNL     1      -2.051  -0.643  -1.145  0.00  0.00    +0.219 C 
ATOM     29  O   UNL     1      -1.128  -1.397  -1.371  0.00  0.00    -0.275 OA
ATOM     30  H   UNL     1      -2.550   1.264  -0.722  0.00  0.00    +0.149 HD
BRANCH  27  32
ATOM     31  C   UNL     1      -0.031   1.511  -2.348  0.00  0.00    +0.038 C 
ATOM     32  C   UNL     1      -0.438   1.169  -0.913  0.00  0.00    +0.156 C 
BRANCH  32  33
ATOM     33  C   UNL     1      -0.352   2.406  -0.058  0.00  0.00    +0.233 C 
ATOM     34  O   UNL     1      -1.342   2.824   0.505  0.00  0.00    -0.274 OA
ATOM     35  N   UNL     1       0.824   3.049   0.082  0.00  0.00    -0.317 N 
ATOM     36  C   UNL     1       0.907   4.253   0.913  0.00  0.00    +0.128 C 
ATOM     37  H   UNL     1       1.616   2.716  -0.369  0.00  0.00    +0.148 HD
ENDBRANCH  32  33
ENDBRANCH  27  32
ENDBRANCH   1  28
TORSDOF 5
