REMARK  Name = ZINC35973599
REMARK  12 active torsions:
REMARK  status: ('A' for Active; 'I' for Inactive)
REMARK    1  A    between atoms: C_1  and  C_2
REMARK    2  A    between atoms: C_2  and  O_3
REMARK    3  A    between atoms: O_3  and  C_4
REMARK    4  A    between atoms: C_4  and  C_6
REMARK    5  A    between atoms: C_7  and  C_14
REMARK    6  A    between atoms: C_11  and  O_12
REMARK    7  A    between atoms: O_12  and  C_13
REMARK    8  A    between atoms: C_15  and  C_16
REMARK    9  A    between atoms: N_20  and  C_21
REMARK   10  A    between atoms: C_21  and  C_22
REMARK   11  A    between atoms: C_21  and  C_28
REMARK   12  A    between atoms: C_21  and  C_34
REMARK                            x       y       z     vdW  Elec       q    Type
REMARK                         _______ _______ _______ _____ _____    ______ ____
ROOT
ATOM      1  C   UNL     1      -2.936  -2.511  -4.954  0.00  0.00    +0.112 A 
ATOM      2  N   UNL     1      -3.438  -2.453  -6.171  0.00  0.00    -0.346 N 
ATOM      3  C   UNL     1      -2.513  -1.974  -7.007  0.00  0.00    +0.102 A 
ATOM      4  C   UNL     1      -1.389  -1.719  -6.301  0.00  0.00    +0.106 A 
ATOM      5  N   UNL     1      -1.648  -2.051  -5.000  0.00  0.00    -0.314 N 
ATOM      6  H   UNL     1      -4.338  -2.717  -6.421  0.00  0.00    +0.167 HD
ENDROOT
BRANCH   1   8
ATOM      7  C   UNL     1      -4.879  -3.497  -3.861  0.00  0.00    +0.012 C 
ATOM      8  C   UNL     1      -3.638  -2.981  -3.756  0.00  0.00    +0.045 C 
BRANCH   7  10
ATOM      9  C   UNL     1      -6.880  -4.508  -2.756  0.00  0.00    +0.108 A 
ATOM     10  C   UNL     1      -5.628  -3.860  -2.650  0.00  0.00    -0.007 A 
ATOM     11  C   UNL     1      -5.108  -3.570  -1.388  0.00  0.00    +0.009 A 
ATOM     12  C   UNL     1      -5.814  -3.913  -0.252  0.00  0.00    +0.004 A 
ATOM     13  C   UNL     1      -7.039  -4.546  -0.349  0.00  0.00    +0.046 A 
ATOM     14  C   UNL     1      -7.582  -4.843  -1.591  0.00  0.00    +0.135 A 
BRANCH   9  15
ATOM     15  C   UNL     1      -7.443  -4.822  -4.077  0.00  0.00    +0.343 C 
ATOM     16  O   UNL     1      -8.225  -4.053  -4.603  0.00  0.00    -0.245 OA
BRANCH  15  17
ATOM     17  O   UNL     1      -7.092  -5.961  -4.706  0.00  0.00    -0.461 OA
BRANCH  17  19
ATOM     18  C   UNL     1      -7.192  -7.540  -6.533  0.00  0.00    +0.048 C 
ATOM     19  C   UNL     1      -7.589  -6.150  -6.032  0.00  0.00    +0.229 C 
ENDBRANCH  17  19
ENDBRANCH  15  17
ENDBRANCH   9  15
BRANCH  14  20
ATOM     20  O   UNL     1      -8.787  -5.460  -1.677  0.00  0.00    -0.494 OA
ATOM     21  C   UNL     1      -9.445  -5.771  -0.447  0.00  0.00    +0.277 C 
ENDBRANCH  14  20
ENDBRANCH   7  10
ENDBRANCH   1   8
BRANCH   5  22
ATOM     22  C   UNL     1      -0.722  -1.937  -3.870  0.00  0.00    +0.122 C 
BRANCH  22  23
ATOM     23  C   UNL     1       0.542  -1.255  -4.324  0.00  0.00    -0.013 A 
ATOM     24  C   UNL     1       0.978  -0.110  -3.683  0.00  0.00    +0.006 A 
ATOM     25  C   UNL     1       2.138   0.516  -4.099  0.00  0.00    +0.000 A 
ATOM     26  C   UNL     1       2.862  -0.002  -5.157  0.00  0.00    +0.000 A 
ATOM     27  C   UNL     1       2.427  -1.147  -5.798  0.00  0.00    +0.000 A 
ATOM     28  C   UNL     1       1.269  -1.776  -5.378  0.00  0.00    +0.006 A 
ENDBRANCH  22  23
BRANCH  22  29
ATOM     29  C   UNL     1      -1.364  -1.128  -2.773  0.00  0.00    -0.013 A 
ATOM     30  C   UNL     1      -1.782   0.166  -3.023  0.00  0.00    +0.006 A 
ATOM     31  C   UNL     1      -2.371   0.908  -2.017  0.00  0.00    +0.000 A 
ATOM     32  C   UNL     1      -2.542   0.357  -0.761  0.00  0.00    +0.000 A 
ATOM     33  C   UNL     1      -2.125  -0.937  -0.511  0.00  0.00    +0.000 A 
ATOM     34  C   UNL     1      -1.540  -1.681  -1.519  0.00  0.00    +0.006 A 
ENDBRANCH  22  29
BRANCH  22  35
ATOM     35  C   UNL     1      -0.392  -3.313  -3.352  0.00  0.00    -0.013 A 
ATOM     36  C   UNL     1      -0.997  -4.425  -3.907  0.00  0.00    +0.006 A 
ATOM     37  C   UNL     1      -0.694  -5.687  -3.431  0.00  0.00    +0.000 A 
ATOM     38  C   UNL     1       0.215  -5.837  -2.401  0.00  0.00    +0.000 A 
ATOM     39  C   UNL     1       0.822  -4.726  -1.846  0.00  0.00    +0.000 A 
ATOM     40  C   UNL     1       0.522  -3.464  -2.325  0.00  0.00    +0.006 A 
ENDBRANCH  22  35
ENDBRANCH   5  22
TORSDOF 10
