REMARK  Name = ZINC37769915
REMARK  6 active torsions:
REMARK  status: ('A' for Active; 'I' for Inactive)
REMARK    1  A    between atoms: C_1  and  O_2
REMARK    2  A    between atoms: O_2  and  C_3
REMARK    3  A    between atoms: C_3  and  C_5
REMARK    4  A    between atoms: C_10  and  N_11
REMARK    5  A    between atoms: C_12  and  C_14
REMARK    6  A    between atoms: C_17  and  O_21
REMARK                            x       y       z     vdW  Elec       q    Type
REMARK                         _______ _______ _______ _____ _____    ______ ____
ROOT
ATOM      1  N   UNL     1      -3.715  -2.119   0.211  0.00  0.00    -0.285 N 
ATOM      2  C   UNL     1      -4.883  -2.784   0.109  0.00  0.00    +0.203 C 
ATOM      3  O   UNL     1      -4.886  -3.993   0.015  0.00  0.00    -0.277 OA
ATOM      4  H   UNL     1      -3.713  -1.157   0.336  0.00  0.00    +0.155 HD
ENDROOT
BRANCH   1  10
ATOM      5  C   UNL     1      -1.650  -2.857   1.244  0.00  0.00    +0.082 A 
ATOM      6  C   UNL     1      -0.446  -3.561   1.158  0.00  0.00    +0.032 A 
ATOM      7  C   UNL     1      -0.107  -4.203  -0.015  0.00  0.00    +0.020 A 
ATOM      8  C   UNL     1      -0.956  -4.153  -1.110  0.00  0.00    +0.032 A 
ATOM      9  C   UNL     1      -2.148  -3.461  -1.040  0.00  0.00    +0.041 A 
ATOM     10  C   UNL     1      -2.509  -2.813   0.136  0.00  0.00    +0.062 A 
ATOM     11 BR   UNL     1      -3.296  -3.400  -2.542  0.00  0.00    -0.048 Br
ATOM     12 BR   UNL     1       1.522  -5.155  -0.129  0.00  0.00    -0.050 Br
BRANCH   5  13
ATOM     13  C   UNL     1      -2.019  -2.169   2.495  0.00  0.00    +0.341 C 
ATOM     14  O   UNL     1      -3.113  -1.652   2.604  0.00  0.00    -0.245 OA
BRANCH  13  16
ATOM     15  C   UNL     1      -1.566  -1.433   4.699  0.00  0.00    +0.280 C 
ATOM     16  O   UNL     1      -1.143  -2.115   3.517  0.00  0.00    -0.464 OA
ENDBRANCH  13  16
ENDBRANCH   5  13
ENDBRANCH   1  10
BRANCH   2  17
ATOM     17  C   UNL     1      -6.184  -2.025   0.112  0.00  0.00    +0.019 C 
ATOM     18  C   UNL     1      -6.621  -1.693   1.561  0.00  0.00    +0.023 C 
ATOM     19  C   UNL     1      -8.152  -1.522   1.431  0.00  0.00    +0.097 C 
ATOM     20  C   UNL     1      -8.534  -2.287   0.150  0.00  0.00    -0.050 C 
ATOM     21  N   UNL     1      -7.290  -2.878  -0.393  0.00  0.00    +0.388 N 
ATOM     22  H   UNL     1      -7.307  -2.865  -1.402  0.00  0.00    -0.085 HD
ATOM     23  H   UNL     1      -7.181  -3.824  -0.058  0.00  0.00    -0.085 HD
BRANCH  19  24
ATOM     24  O   UNL     1      -8.487  -0.139   1.303  0.00  0.00    -0.394 OA
ATOM     25  H   UNL     1      -9.435   0.030   1.218  0.00  0.00    +0.210 HD
ENDBRANCH  19  24
ENDBRANCH   2  17
TORSDOF 5
