REMARK  Name = ZINC42360228
REMARK  8 active torsions:
REMARK  status: ('A' for Active; 'I' for Inactive)
REMARK    1  A    between atoms: C_1  and  C_2
REMARK    2  A    between atoms: C_5  and  N_21
REMARK    3  A    between atoms: C_7  and  N_8
REMARK    4  A    between atoms: C_9  and  C_11
REMARK    5  A    between atoms: C_11  and  N_12
REMARK    6  A    between atoms: N_12  and  C_13
REMARK    7  A    between atoms: N_12  and  C_14
REMARK    8  A    between atoms: C_14  and  C_15
REMARK                            x       y       z     vdW  Elec       q    Type
REMARK                         _______ _______ _______ _____ _____    ______ ____
ROOT
ATOM      1  N   UNL     1       0.025  -0.011   2.417  0.00  0.00    -0.287 N 
ATOM      2  C   UNL     1      -0.057  -0.689   3.579  0.00  0.00    +0.201 C 
ATOM      3  O   UNL     1      -0.040  -1.901   3.577  0.00  0.00    -0.278 OA
ATOM      4  H   UNL     1       0.078   0.958   2.423  0.00  0.00    +0.155 HD
ENDROOT
BRANCH   1  11
ATOM      5  C   UNL     1      -1.265   1.183   0.182  0.00  0.00    +0.045 C 
ATOM      6  C   UNL     1      -0.585  -0.158   0.085  0.00  0.00    -0.029 A 
ATOM      7  C   UNL     1      -0.572  -0.840  -1.117  0.00  0.00    +0.007 A 
ATOM      8  C   UNL     1       0.050  -2.069  -1.210  0.00  0.00    +0.023 A 
ATOM      9  C   UNL     1       0.666  -2.625  -0.095  0.00  0.00    +0.026 A 
ATOM     10  C   UNL     1       0.655  -1.942   1.113  0.00  0.00    +0.046 A 
ATOM     11  C   UNL     1       0.033  -0.705   1.202  0.00  0.00    +0.038 A 
BRANCH   9  12
ATOM     12  N   UNL     1       1.294  -3.869  -0.190  0.00  0.00    -0.358 N 
ATOM     13  H   UNL     1       1.301  -4.345  -1.035  0.00  0.00    +0.142 HD
ATOM     14  H   UNL     1       1.723  -4.256   0.589  0.00  0.00    +0.142 HD
ENDBRANCH   9  12
ENDBRANCH   1  11
BRANCH   2  15
ATOM     15  C   UNL     1      -0.168   0.061   4.882  0.00  0.00    +0.019 C 
BRANCH  15  16
ATOM     16  N   UNL     1      -0.242  -0.897   5.993  0.00  0.00    +0.386 N 
ATOM     17  C   UNL     1      -1.482  -1.677   5.886  0.00  0.00    -0.095 C 
ATOM     18  H   UNL     1       0.551  -1.520   5.954  0.00  0.00    -0.081 HD
BRANCH  16  19
ATOM     19  C   UNL     1      -0.230  -0.169   7.269  0.00  0.00    -0.042 C 
BRANCH  19  20
ATOM     20  C   UNL     1      -0.181  -1.154   8.409  0.00  0.00    -0.056 A 
ATOM     21  C   UNL     1      -1.350  -1.643   8.963  0.00  0.00    +0.024 A 
ATOM     22  C   UNL     1      -1.271  -2.528   9.988  0.00  0.00    +0.055 A 
ATOM     23  S   UNL     1       0.495  -2.693  10.197  0.00  0.00    -0.090 S 
ATOM     24  C   UNL     1       1.008  -1.577   8.902  0.00  0.00    +0.048 A 
ATOM     25 BR   UNL     1      -2.667  -3.369  10.946  0.00  0.00    -0.043 Br
ENDBRANCH  19  20
ENDBRANCH  16  19
ENDBRANCH  15  16
ENDBRANCH   2  15
TORSDOF 6
