REMARK  Name = ZINC67501834
REMARK  7 active torsions:
REMARK  status: ('A' for Active; 'I' for Inactive)
REMARK    1  A    between atoms: C_3  and  O_20
REMARK    2  A    between atoms: C_6  and  C_7
REMARK    3  A    between atoms: C_7  and  N_8
REMARK    4  A    between atoms: N_8  and  C_9
REMARK    5  A    between atoms: N_14  and  C_16
REMARK    6  A    between atoms: C_16  and  C_17
REMARK    7  A    between atoms: O_20  and  C_21
REMARK                            x       y       z     vdW  Elec       q    Type
REMARK                         _______ _______ _______ _____ _____    ______ ____
ROOT
ATOM      1  C   UNL     1      -1.085  -0.855  -1.248  0.00  0.00    +0.116 C 
ENDROOT
BRANCH   1   7
ATOM      2  C   UNL     1       0.138   1.316  -1.012  0.00  0.00    +0.008 A 
ATOM      3  C   UNL     1       1.272   2.044  -0.712  0.00  0.00    +0.046 A 
ATOM      4  C   UNL     1       2.430   1.390  -0.317  0.00  0.00    +0.128 A 
ATOM      5  C   UNL     1       2.445   0.005  -0.225  0.00  0.00    +0.046 A 
ATOM      6  C   UNL     1       1.307  -0.718  -0.526  0.00  0.00    +0.008 A 
ATOM      7  C   UNL     1       0.155  -0.063  -0.919  0.00  0.00    -0.033 A 
BRANCH   4   8
ATOM      8  O   UNL     1       3.548   2.103  -0.021  0.00  0.00    -0.456 OA
BRANCH   8   9
ATOM      9  C   UNL     1       3.485   3.457  -0.118  0.00  0.00    +0.134 A 
ATOM     10  C   UNL     1       3.108   4.215   0.981  0.00  0.00    +0.084 A 
ATOM     11  C   UNL     1       3.044   5.594   0.880  0.00  0.00    +0.130 A 
ATOM     12  C   UNL     1       3.356   6.217  -0.316  0.00  0.00    +0.077 A 
ATOM     13  C   UNL     1       3.733   5.462  -1.414  0.00  0.00    +0.130 A 
ATOM     14  C   UNL     1       3.804   4.083  -1.315  0.00  0.00    +0.084 A 
ATOM     15  F   UNL     1       4.037   6.071  -2.581  0.00  0.00    -0.205 F 
ATOM     16  F   UNL     1       2.676   6.332   1.950  0.00  0.00    -0.205 F 
ENDBRANCH   8   9
ENDBRANCH   4   8
ENDBRANCH   1   7
BRANCH   1  17
ATOM     17  N   UNL     1      -1.084  -1.196  -2.677  0.00  0.00    -0.311 NA
ATOM     18  H   UNL     1      -1.006  -0.366  -3.246  0.00  0.00    +0.122 HD
BRANCH  17  19
ATOM     19  C   UNL     1      -2.281  -1.969  -3.034  0.00  0.00    +0.037 C 
ATOM     20  C   UNL     1      -2.034  -3.454  -2.749  0.00  0.00    +0.015 C 
ATOM     21  C   UNL     1      -3.256  -4.259  -3.198  0.00  0.00    -0.017 C 
ATOM     22  C   UNL     1      -3.523  -3.990  -4.681  0.00  0.00    -0.078 C 
ATOM     23  N   UNL     1      -3.777  -2.558  -4.883  0.00  0.00    +0.386 N 
ATOM     24  C   UNL     1      -2.584  -1.783  -4.522  0.00  0.00    -0.059 C 
ATOM     25  H   UNL     1      -4.551  -2.270  -4.303  0.00  0.00    -0.081 HD
BRANCH  23  26
ATOM     26  C   UNL     1      -4.108  -2.316  -6.293  0.00  0.00    +0.018 C 
BRANCH  26  27
ATOM     27  C   UNL     1      -5.406  -3.004  -6.630  0.00  0.00    +0.194 C 
ATOM     28  O   UNL     1      -5.997  -3.634  -5.778  0.00  0.00    -0.278 OA
ATOM     29  N   UNL     1      -5.911  -2.919  -7.877  0.00  0.00    -0.331 N 
ATOM     30  H   UNL     1      -5.438  -2.415  -8.558  0.00  0.00    +0.145 HD
ATOM     31  H   UNL     1      -6.746  -3.362  -8.093  0.00  0.00    +0.145 HD
ENDBRANCH  26  27
ENDBRANCH  23  26
ENDBRANCH  17  19
ENDBRANCH   1  17
TORSDOF 7
