REMARK  Name = ZINC43213523
REMARK  15 active torsions:
REMARK  status: ('A' for Active; 'I' for Inactive)
REMARK    1  A    between atoms: C_1  and  C_2
REMARK    2  A    between atoms: C_2  and  C_3
REMARK    3  A    between atoms: C_3  and  C_5
REMARK    4  A    between atoms: C_3  and  C_6
REMARK    5  A    between atoms: C_6  and  C_8
REMARK    6  A    between atoms: C_6  and  N_34
REMARK    7  A    between atoms: C_10  and  C_13
REMARK    8  A    between atoms: N_15  and  C_16
REMARK    9  A    between atoms: C_16  and  C_18
REMARK   10  A    between atoms: C_16  and  C_22
REMARK   11  A    between atoms: C_18  and  C_19
REMARK   12  A    between atoms: C_19  and  C_20
REMARK   13  A    between atoms: C_19  and  C_21
REMARK   14  A    between atoms: N_24  and  C_25
REMARK   15  A    between atoms: C_28  and  N_31
REMARK                            x       y       z     vdW  Elec       q    Type
REMARK                         _______ _______ _______ _____ _____    ______ ____
ROOT
ATOM      1  C   UNL     1       1.666  -3.287  -6.327  0.00  0.00    +0.266 C 
ATOM      2  O   UNL     1       2.549  -3.982  -6.791  0.00  0.00    -0.268 OA
ATOM      3  N   UNL     1       0.398  -3.430  -6.760  0.00  0.00    -0.299 N 
ATOM      4  H   UNL     1      -0.318  -2.928  -6.339  0.00  0.00    +0.150 HD
ENDROOT
BRANCH   1   7
ATOM      5  C   UNL     1       1.753  -0.716  -3.828  0.00  0.00    +0.182 A 
ATOM      6  N   UNL     1       1.102  -1.445  -4.683  0.00  0.00    -0.210 NA
ATOM      7  C   UNL     1       1.982  -2.287  -5.290  0.00  0.00    +0.163 A 
ATOM      8  C   UNL     1       3.209  -2.034  -4.759  0.00  0.00    +0.230 A 
ATOM      9  O   UNL     1       3.050  -1.052  -3.857  0.00  0.00    -0.449 OA
BRANCH   5  10
ATOM     10  C   UNL     1       1.147   0.346  -2.947  0.00  0.00    +0.016 C 
BRANCH  10  11
ATOM     11  N   UNL     1       1.674   0.210  -1.582  0.00  0.00    +0.386 N 
ATOM     12  H   UNL     1       1.438  -0.702  -1.220  0.00  0.00    -0.089 HD
ATOM     13  H   UNL     1       2.677   0.317  -1.597  0.00  0.00    -0.089 HD
ATOM     14  H   UNL     1       1.268   0.920  -0.992  0.00  0.00    -0.089 HD
ENDBRANCH  10  11
BRANCH  10  15
ATOM     15  C   UNL     1       1.503   1.729  -3.495  0.00  0.00    -0.020 C 
ATOM     16  C   UNL     1       3.024   1.892  -3.518  0.00  0.00    +0.006 C 
BRANCH  15  18
ATOM     17  C   UNL     1       1.138   4.185  -3.217  0.00  0.00    +0.004 C 
ATOM     18  C   UNL     1       0.888   2.807  -2.601  0.00  0.00    -0.001 C 
ENDBRANCH  15  18
ENDBRANCH  10  15
ENDBRANCH   5  10
ENDBRANCH   1   7
BRANCH   3  19
ATOM     19  C   UNL     1       0.100  -4.343  -7.867  0.00  0.00    +0.160 C 
BRANCH  19  20
ATOM     20  C   UNL     1      -1.119  -3.856  -8.606  0.00  0.00    +0.238 C 
ATOM     21  O   UNL     1      -1.886  -3.085  -8.069  0.00  0.00    -0.273 OA
ATOM     22  N   UNL     1      -1.358  -4.277  -9.864  0.00  0.00    -0.284 N 
ATOM     23  H   UNL     1      -0.787  -4.949 -10.266  0.00  0.00    +0.155 HD
BRANCH  22  24
ATOM     24  C   UNL     1      -2.430  -3.744 -10.588  0.00  0.00    +0.034 A 
ATOM     25  C   UNL     1      -2.317  -3.557 -11.960  0.00  0.00    +0.025 A 
ATOM     26  C   UNL     1      -3.377  -3.030 -12.672  0.00  0.00    +0.034 A 
ATOM     27  C   UNL     1      -4.548  -2.690 -12.022  0.00  0.00    +0.126 A 
ATOM     28  C   UNL     1      -4.663  -2.875 -10.656  0.00  0.00    +0.034 A 
ATOM     29  C   UNL     1      -3.610  -3.406  -9.939  0.00  0.00    +0.025 A 
BRANCH  27  30
ATOM     30  N   UNL     1      -5.682  -2.126 -12.789  0.00  0.00    +0.056 N 
ATOM     31  O   UNL     1      -5.583  -1.964 -13.983  0.00  0.00    -0.126 OA
ATOM     32  O   UNL     1      -6.707  -1.828 -12.221  0.00  0.00    -0.126 OA
ENDBRANCH  27  30
ENDBRANCH  22  24
ENDBRANCH  19  20
BRANCH  19  33
ATOM     33  C   UNL     1      -0.165  -5.745  -7.314  0.00  0.00    +0.034 C 
BRANCH  33  34
ATOM     34  C   UNL     1      -0.358  -6.722  -8.475  0.00  0.00    -0.015 C 
ATOM     35  C   UNL     1       0.958  -6.870  -9.242  0.00  0.00    +0.007 C 
ATOM     36  C   UNL     1      -0.784  -8.086  -7.927  0.00  0.00    +0.007 C 
ENDBRANCH  33  34
ENDBRANCH  19  33
ENDBRANCH   3  19
TORSDOF 11
