REMARK  Name = ZINC04719647
REMARK  5 active torsions:
REMARK  status: ('A' for Active; 'I' for Inactive)
REMARK    1  A    between atoms: C_1  and  C_2
REMARK    2  A    between atoms: C_2  and  O_3
REMARK    3  A    between atoms: O_3  and  C_4
REMARK    4  A    between atoms: C_11  and  N_45
REMARK    5  A    between atoms: N_16  and  C_19
REMARK                            x       y       z     vdW  Elec       q    Type
REMARK                         _______ _______ _______ _____ _____    ______ ____
ROOT
ATOM      1  C   UNL     1      -0.879   8.241  -0.014  0.00  0.00    +0.029 C 
ATOM      2  C   UNL     1       0.659   8.261   0.106  0.00  0.00    +0.090 C 
ATOM      3  C   UNL     1       1.032   6.795   0.132  0.00  0.00    +0.225 C 
ATOM      4  O   UNL     1       2.159   6.359   0.223  0.00  0.00    -0.275 OA
ATOM      5  N   UNL     1      -0.080   6.056   0.035  0.00  0.00    -0.212 N 
ATOM      6  C   UNL     1      -1.212   6.765  -0.049  0.00  0.00    +0.213 C 
ATOM      7  O   UNL     1      -2.328   6.300  -0.138  0.00  0.00    -0.277 OA
ENDROOT
BRANCH   1  15
ATOM      8  C   UNL     1      -3.860   8.892   4.473  0.00  0.00    +0.403 C 
ATOM      9  O   UNL     1      -5.060   9.027   4.341  0.00  0.00    -0.226 OA
ATOM     10  N   UNL     1      -3.031   9.206   3.458  0.00  0.00    -0.271 N 
ATOM     11  C   UNL     1      -3.558   9.714   2.182  0.00  0.00    +0.092 C 
ATOM     12  C   UNL     1      -2.961   8.881   1.043  0.00  0.00    -0.058 C 
ATOM     13  C   UNL     1      -1.056   8.243   2.401  0.00  0.00    -0.058 C 
ATOM     14  C   UNL     1      -1.575   9.050   3.596  0.00  0.00    +0.092 C 
ATOM     15  N   UNL     1      -1.487   8.912   1.154  0.00  0.00    +0.390 N 
ATOM     16  H   UNL     1      -1.175   9.890   1.176  0.00  0.00    -0.081 HD
BRANCH   8  17
ATOM     17  O   UNL     1      -3.358   8.428   5.633  0.00  0.00    -0.451 OA
BRANCH  17  19
ATOM     18  C   UNL     1      -3.559   7.603   7.915  0.00  0.00    +0.048 C 
ATOM     19  C   UNL     1      -4.310   8.110   6.683  0.00  0.00    +0.230 C 
ENDBRANCH  17  19
ENDBRANCH   8  17
ENDBRANCH   1  15
BRANCH   5  20
ATOM     20  C   UNL     1      -0.061   4.654   0.028  0.00  0.00    +0.044 A 
ATOM     21  C   UNL     1      -0.428   3.959  -1.117  0.00  0.00    +0.025 A 
ATOM     22  C   UNL     1      -0.409   2.578  -1.121  0.00  0.00    +0.017 A 
ATOM     23  C   UNL     1      -0.024   1.887   0.014  0.00  0.00    +0.018 A 
ATOM     24  C   UNL     1       0.337   2.576   1.157  0.00  0.00    +0.017 A 
ATOM     25  C   UNL     1       0.325   3.958   1.165  0.00  0.00    +0.025 A 
ATOM     26 BR   UNL     1       0.001  -0.004   0.004  0.00  0.00    -0.050 Br
ENDBRANCH   5  20
TORSDOF 4
