REMARK  Name = ZINC08583645
REMARK  9 active torsions:
REMARK  status: ('A' for Active; 'I' for Inactive)
REMARK    1  A    between atoms: C_1  and  C_2
REMARK    2  A    between atoms: C_7  and  N_8
REMARK    3  A    between atoms: C_12  and  C_32
REMARK    4  A    between atoms: C_18  and  S_19
REMARK    5  A    between atoms: S_19  and  C_20
REMARK    6  A    between atoms: C_20  and  C_21
REMARK    7  A    between atoms: N_23  and  C_24
REMARK    8  A    between atoms: C_27  and  C_31
REMARK    9  A    between atoms: C_28  and  C_30
REMARK                            x       y       z     vdW  Elec       q    Type
REMARK                         _______ _______ _______ _____ _____    ______ ____
ROOT
ATOM      1  N   UNL     1       0.028  -0.006   2.410  0.00  0.00    -0.274 N 
ATOM      2  C   UNL     1      -1.177   0.333   3.040  0.00  0.00    +0.124 A 
ATOM      3  N   UNL     1      -2.279  -0.368   2.924  0.00  0.00    -0.384 N 
ATOM      4  C   UNL     1      -1.071   1.561   3.849  0.00  0.00    +0.082 A 
ATOM      5  C   UNL     1      -2.013   2.442   4.368  0.00  0.00    +0.072 A 
ATOM      6  N   UNL     1      -1.375   3.379   5.025  0.00  0.00    -0.177 NA
ATOM      7  N   UNL     1       0.008   3.142   4.956  0.00  0.00    -0.260 N 
ATOM      8  H   UNL     1       0.699   3.689   5.361  0.00  0.00    +0.191 HD
ATOM      9  C   UNL     1       0.208   2.025   4.230  0.00  0.00    +0.162 A 
ATOM     10  N   UNL     1       1.316   1.365   3.851  0.00  0.00    -0.204 NA
ATOM     11  C   UNL     1       1.211   0.355   3.004  0.00  0.00    +0.177 A 
ATOM     12  C   UNL     1      -3.507   2.337   4.204  0.00  0.00    +0.068 C 
ATOM     13  H   UNL     1      -2.289  -1.169   2.378  0.00  0.00    +0.157 HD
ATOM     14  H   UNL     1      -3.084  -0.085   3.385  0.00  0.00    +0.157 HD
ENDROOT
BRANCH   1  21
ATOM     15  C   UNL     1      -0.009   1.494  -0.008  0.00  0.00    +0.046 C 
ATOM     16  C   UNL     1       0.007  -0.012  -0.006  0.00  0.00    -0.026 A 
ATOM     17  C   UNL     1       0.011  -0.705  -1.201  0.00  0.00    +0.005 A 
ATOM     18  C   UNL     1       0.025  -2.088  -1.200  0.00  0.00    +0.000 A 
ATOM     19  C   UNL     1       0.036  -2.781  -0.004  0.00  0.00    +0.002 A 
ATOM     20  C   UNL     1       0.033  -2.095   1.194  0.00  0.00    +0.026 A 
ATOM     21  C   UNL     1       0.025  -0.706   1.196  0.00  0.00    +0.053 A 
ENDBRANCH   1  21
BRANCH  11  22
ATOM     22  S   UNL     1       2.659  -0.569   2.613  0.00  0.00    -0.078 S 
BRANCH  22  23
ATOM     23  C   UNL     1       3.963   0.225   3.593  0.00  0.00    +0.173 C 
BRANCH  23  24
ATOM     24  C   UNL     1       5.274  -0.478   3.348  0.00  0.00    +0.227 C 
ATOM     25  O   UNL     1       5.323  -1.422   2.587  0.00  0.00    -0.275 OA
ATOM     26  N   UNL     1       6.391  -0.059   3.974  0.00  0.00    -0.285 N 
ATOM     27  H   UNL     1       6.366   0.736   4.530  0.00  0.00    +0.155 HD
BRANCH  26  28
ATOM     28  C   UNL     1       7.587  -0.769   3.823  0.00  0.00    +0.034 A 
ATOM     29  C   UNL     1       8.474  -0.874   4.886  0.00  0.00    +0.023 A 
ATOM     30  C   UNL     1       9.653  -1.576   4.734  0.00  0.00    +0.005 A 
ATOM     31  C   UNL     1       9.952  -2.174   3.523  0.00  0.00    -0.047 A 
ATOM     32  C   UNL     1       9.071  -2.071   2.462  0.00  0.00    -0.046 A 
ATOM     33  C   UNL     1       7.887  -1.376   2.610  0.00  0.00    +0.027 A 
ATOM     34  C   UNL     1       9.401  -2.724   1.144  0.00  0.00    +0.044 C 
ATOM     35  C   UNL     1      11.240  -2.939   3.359  0.00  0.00    +0.044 C 
ENDBRANCH  26  28
ENDBRANCH  23  24
ENDBRANCH  22  23
ENDBRANCH  11  22
TORSDOF 5
