REMARK  Name = ZINC44165143
REMARK  7 active torsions:
REMARK  status: ('A' for Active; 'I' for Inactive)
REMARK    1  A    between atoms: C_1  and  C_2
REMARK    2  A    between atoms: C_3  and  C_27
REMARK    3  A    between atoms: C_6  and  C_7
REMARK    4  A    between atoms: C_12  and  C_15
REMARK    5  A    between atoms: N_17  and  C_18
REMARK    6  A    between atoms: C_18  and  C_20
REMARK    7  A    between atoms: C_18  and  C_21
REMARK                            x       y       z     vdW  Elec       q    Type
REMARK                         _______ _______ _______ _____ _____    ______ ____
ROOT
ATOM      1  C   UNL     1       0.281   0.008   2.368  0.00  0.00    +0.010 C 
ATOM      2  C   UNL     1       1.737  -0.109   2.833  0.00  0.00    +0.061 C 
ATOM      3  S   UNL     1       2.179  -1.874   2.887  0.00  0.00    -0.163 S 
ATOM      4  C   UNL     1       0.803  -2.601   3.831  0.00  0.00    +0.062 C 
ATOM      5  C   UNL     1      -0.513  -2.111   3.216  0.00  0.00    +0.027 C 
ATOM      6  N   UNL     1      -0.602  -0.655   3.329  0.00  0.00    +0.394 N 
ATOM      7  H   UNL     1      -0.340  -0.379   4.264  0.00  0.00    -0.084 HD
ATOM      8  H   UNL     1      -1.554  -0.370   3.156  0.00  0.00    -0.084 HD
ENDROOT
BRANCH   1  14
ATOM      9  C   UNL     1      -1.123   1.248  -0.119  0.00  0.00    +0.049 C 
ATOM     10  C   UNL     1      -0.473  -0.110  -0.056  0.00  0.00    +0.018 A 
ATOM     11  C   UNL     1      -0.390  -1.042  -1.118  0.00  0.00    +0.116 A 
ATOM     12  N   UNL     1       0.245  -2.100  -0.674  0.00  0.00    -0.078 NA
ATOM     13  O   UNL     1       0.581  -1.866   0.682  0.00  0.00    -0.360 OA
ATOM     14  C   UNL     1       0.133  -0.647   1.018  0.00  0.00    +0.128 A 
BRANCH  11  15
ATOM     15  C   UNL     1      -0.925  -0.855  -2.490  0.00  0.00    +0.004 A 
ATOM     16  C   UNL     1      -0.845   0.391  -3.107  0.00  0.00    +0.010 A 
ATOM     17  C   UNL     1      -1.344   0.559  -4.383  0.00  0.00    +0.001 A 
ATOM     18  C   UNL     1      -1.923  -0.506  -5.048  0.00  0.00    +0.000 A 
ATOM     19  C   UNL     1      -2.006  -1.746  -4.439  0.00  0.00    +0.001 A 
ATOM     20  C   UNL     1      -1.504  -1.926  -3.166  0.00  0.00    +0.010 A 
ENDBRANCH  11  15
ENDBRANCH   1  14
BRANCH   5  21
ATOM     21  C   UNL     1      -1.672  -2.741   3.946  0.00  0.00    +0.200 C 
ATOM     22  O   UNL     1      -2.486  -2.041   4.509  0.00  0.00    -0.278 OA
ATOM     23  N   UNL     1      -1.802  -4.082   3.972  0.00  0.00    -0.310 N 
ATOM     24  H   UNL     1      -1.151  -4.642   3.522  0.00  0.00    +0.149 HD
BRANCH  23  25
ATOM     25  C   UNL     1      -2.929  -4.695   4.682  0.00  0.00    +0.100 C 
ATOM     26  C   UNL     1      -4.148  -4.741   3.759  0.00  0.00    +0.033 C 
BRANCH  25  27
ATOM     27  C   UNL     1      -2.559  -6.096   5.096  0.00  0.00    -0.027 A 
ATOM     28  C   UNL     1      -1.831  -6.901   4.240  0.00  0.00    +0.005 A 
ATOM     29  C   UNL     1      -1.492  -8.186   4.621  0.00  0.00    +0.000 A 
ATOM     30  C   UNL     1      -1.881  -8.665   5.857  0.00  0.00    +0.000 A 
ATOM     31  C   UNL     1      -2.608  -7.860   6.714  0.00  0.00    +0.000 A 
ATOM     32  C   UNL     1      -2.943  -6.574   6.335  0.00  0.00    +0.005 A 
ENDBRANCH  25  27
ENDBRANCH  23  25
ENDBRANCH   5  21
TORSDOF 5
