REMARK  Name = ZINC20868644
REMARK  8 active torsions:
REMARK  status: ('A' for Active; 'I' for Inactive)
REMARK    1  A    between atoms: C_1  and  C_2
REMARK    2  A    between atoms: C_6  and  C_7
REMARK    3  A    between atoms: C_7  and  C_8
REMARK    4  A    between atoms: C_8  and  N_9
REMARK    5  A    between atoms: C_10  and  C_12
REMARK    6  A    between atoms: C_15  and  C_17
REMARK    7  A    between atoms: C_23  and  C_25
REMARK    8  A    between atoms: C_25  and  N_26
REMARK                            x       y       z     vdW  Elec       q    Type
REMARK                         _______ _______ _______ _____ _____    ______ ____
ROOT
ATOM      1  C   UNL     1       2.225  -6.152  -2.664  0.00  0.00    +0.074 A 
ATOM      2  C   UNL     1       2.373  -7.005  -3.746  0.00  0.00    +0.021 A 
ATOM      3  C   UNL     1       2.632  -8.325  -3.471  0.00  0.00    +0.014 A 
ATOM      4  C   UNL     1       2.719  -8.728  -2.176  0.00  0.00    +0.011 A 
ATOM      5  S   UNL     1       2.448  -7.265  -1.287  0.00  0.00    -0.087 S 
ENDROOT
BRANCH   4   6
ATOM      6  C   UNL     1       2.987 -10.112  -1.643  0.00  0.00    +0.113 C 
ATOM      7  C   UNL     1       1.667 -10.756  -1.169  0.00  0.00    +0.029 C 
ATOM      8  C   UNL     1       2.094 -11.523   0.111  0.00  0.00    +0.021 C 
ATOM      9  C   UNL     1       3.168 -10.573   0.698  0.00  0.00    +0.108 C 
ATOM     10  N   UNL     1       3.881 -10.034  -0.478  0.00  0.00    -0.295 N 
ATOM     11  C   UNL     1       5.140  -9.552  -0.485  0.00  0.00    +0.199 C 
ATOM     12  O   UNL     1       5.623  -9.134  -1.515  0.00  0.00    -0.278 OA
BRANCH  11  13
ATOM     13  C   UNL     1       5.946  -9.533   0.788  0.00  0.00    +0.011 C 
BRANCH  13  14
ATOM     14  N   UNL     1       7.274  -8.965   0.518  0.00  0.00    +0.384 N 
ATOM     15  H   UNL     1       7.862  -8.951   1.448  0.00  0.00    -0.089 HD
ATOM     16  H   UNL     1       7.163  -7.939   0.139  0.00  0.00    -0.089 HD
ATOM     17  H   UNL     1       7.790  -9.580  -0.233  0.00  0.00    -0.089 HD
ENDBRANCH  13  14
ENDBRANCH  11  13
ENDBRANCH   4   6
BRANCH   1  19
ATOM     18  N   UNL     1       1.835  -4.057  -1.481  0.00  0.00    -0.311 N 
ATOM     19  C   UNL     1       1.950  -4.713  -2.653  0.00  0.00    +0.251 C 
ATOM     20  O   UNL     1       1.827  -4.109  -3.702  0.00  0.00    -0.270 OA
ATOM     21  H   UNL     1       1.947  -4.603  -0.532  0.00  0.00    +0.149 HD
BRANCH  18  22
ATOM     22  C   UNL     1       1.561  -2.618  -1.470  0.00  0.00    +0.109 C 
BRANCH  22  23
ATOM     23  C   UNL     1       1.479  -2.126  -0.024  0.00  0.00    +0.061 C 
BRANCH  23  29
ATOM     24  C   UNL     1      -1.286  -0.786   0.011  0.00  0.00    +0.044 C 
ATOM     25  C   UNL     1       0.002  -0.004   0.002  0.00  0.00    -0.040 A 
ATOM     26  C   UNL     1      -0.017   1.378   0.010  0.00  0.00    +0.011 A 
ATOM     27  C   UNL     1       1.160   2.051   0.002  0.00  0.00    +0.046 A 
ATOM     28  S   UNL     1       2.348   0.719  -0.017  0.00  0.00    -0.101 S 
ATOM     29  C   UNL     1       1.196  -0.645  -0.013  0.00  0.00    -0.006 A 
ENDBRANCH  23  29
ENDBRANCH  22  23
ENDBRANCH  18  22
ENDBRANCH   1  19
TORSDOF 7
