REMARK  Name = ZINC09317090
REMARK  6 active torsions:
REMARK  status: ('A' for Active; 'I' for Inactive)
REMARK    1  A    between atoms: C_1  and  C_2
REMARK    2  A    between atoms: C_18  and  C_19
REMARK    3  A    between atoms: C_18  and  N_56
REMARK    4  A    between atoms: N_21  and  N_22
REMARK    5  A    between atoms: C_23  and  C_24
REMARK    6  A    between atoms: C_29  and  O_30
REMARK                            x       y       z     vdW  Elec       q    Type
REMARK                         _______ _______ _______ _____ _____    ______ ____
ROOT
ATOM      1  C   UNL     1       2.983   0.683  -1.640  0.00  0.00    +0.044 C 
ATOM      2  C   UNL     1       2.651  -0.783  -1.535  0.00  0.00    -0.050 A 
ATOM      3  C   UNL     1       2.087  -1.422  -2.627  0.00  0.00    +0.005 A 
ATOM      4  C   UNL     1       1.760  -2.766  -2.605  0.00  0.00    +0.026 A 
ATOM      5  C   UNL     1       2.012  -3.465  -1.427  0.00  0.00    +0.049 A 
ATOM      6  C   UNL     1       2.590  -2.801  -0.303  0.00  0.00    +0.003 A 
ATOM      7  C   UNL     1       2.912  -1.441  -0.360  0.00  0.00    +0.013 A 
ATOM      8  C   UNL     1       2.713  -3.796   0.727  0.00  0.00    -0.020 A 
ATOM      9  C   UNL     1       2.259  -4.951   0.200  0.00  0.00    +0.009 A 
ATOM     10  N   UNL     1       1.788  -4.777  -1.081  0.00  0.00    -0.347 N 
ATOM     11  C   UNL     1       1.200  -5.890  -1.841  0.00  0.00    +0.103 C 
ATOM     12  C   UNL     1       1.577  -7.199  -1.137  0.00  0.00    -0.055 C 
ATOM     13  C   UNL     1       2.244  -6.240   0.989  0.00  0.00    -0.020 C 
ATOM     14  C   UNL     1       1.768  -5.928   2.398  0.00  0.00    -0.009 C 
ATOM     15  C   UNL     1       2.266  -4.638   3.002  0.00  0.00    +0.003 C 
ATOM     16  C   UNL     1       3.197  -3.788   2.150  0.00  0.00    +0.037 C 
ATOM     17  N   UNL     1       1.263  -7.122   0.305  0.00  0.00    +0.392 N 
ATOM     18  H   UNL     1       0.322  -6.728   0.421  0.00  0.00    -0.080 HD
ENDROOT
BRANCH  17  19
ATOM     19  C   UNL     1       1.294  -8.473   0.903  0.00  0.00    +0.021 C 
BRANCH  19  20
ATOM     20  C   UNL     1       0.146  -9.278   0.350  0.00  0.00    +0.216 C 
ATOM     21  O   UNL     1      -0.604  -8.783  -0.466  0.00  0.00    -0.276 OA
ATOM     22  N   UNL     1      -0.047 -10.547   0.760  0.00  0.00    -0.209 N 
ATOM     23  H   UNL     1       0.552 -10.943   1.412  0.00  0.00    +0.177 HD
BRANCH  22  24
ATOM     24  N   UNL     1      -1.114 -11.294   0.245  0.00  0.00    -0.188 NA
ATOM     25  C   UNL     1      -1.366 -12.477   0.718  0.00  0.00    +0.142 C 
BRANCH  25  26
ATOM     26  C   UNL     1      -0.705 -12.932   1.954  0.00  0.00    +0.037 A 
ATOM     27  C   UNL     1      -0.262 -12.002   2.897  0.00  0.00    +0.028 A 
ATOM     28  C   UNL     1       0.351 -12.435   4.054  0.00  0.00    +0.019 A 
ATOM     29  C   UNL     1       0.538 -13.789   4.281  0.00  0.00    +0.019 A 
ATOM     30  C   UNL     1       0.108 -14.719   3.353  0.00  0.00    +0.047 A 
ATOM     31  C   UNL     1      -0.514 -14.301   2.188  0.00  0.00    +0.126 A 
ATOM     32 BR   UNL     1       0.946 -11.176   5.333  0.00  0.00    -0.050 Br
BRANCH  31  33
ATOM     33  O   UNL     1      -0.936 -15.214   1.275  0.00  0.00    -0.506 OA
ATOM     34  H   UNL     1      -0.303 -15.381   0.564  0.00  0.00    +0.292 HD
ENDBRANCH  31  33
ENDBRANCH  25  26
ENDBRANCH  22  24
ENDBRANCH  19  20
ENDBRANCH  17  19
TORSDOF 5
