REMARK  Name = ZINC49389708
REMARK  6 active torsions:
REMARK  status: ('A' for Active; 'I' for Inactive)
REMARK    1  A    between atoms: C_1  and  C_2
REMARK    2  A    between atoms: C_3  and  C_9
REMARK    3  A    between atoms: C_4  and  C_8
REMARK    4  A    between atoms: N_5  and  C_7
REMARK    5  A    between atoms: C_9  and  C_11
REMARK    6  A    between atoms: C_9  and  N_12
REMARK                            x       y       z     vdW  Elec       q    Type
REMARK                         _______ _______ _______ _____ _____    ______ ____
ROOT
ATOM      1  N   UNL     1       0.955   0.751  -2.726  0.00  0.00    -0.322 N 
ATOM      2  C   UNL     1       1.508   1.010  -3.970  0.00  0.00    +0.126 A 
ATOM      3  C   UNL     1       1.154   0.238  -5.077  0.00  0.00    +0.083 A 
ATOM      4  C   UNL     1       1.732   0.532  -6.298  0.00  0.00    +0.136 A 
ATOM      5  N   UNL     1       2.599   1.532  -6.381  0.00  0.00    -0.203 NA
ATOM      6  C   UNL     1       2.916   2.248  -5.312  0.00  0.00    +0.216 A 
ATOM      7  N   UNL     1       2.381   2.001  -4.126  0.00  0.00    -0.200 NA
ATOM      8  N   UNL     1       3.826   3.283  -5.439  0.00  0.00    -0.327 N 
ATOM      9 CL   UNL     1       1.327  -0.397  -7.708  0.00  0.00    -0.062 Cl
ATOM     10  H   UNL     1       1.203   1.295  -1.962  0.00  0.00    +0.148 HD
ATOM     11  H   UNL     1       4.223   3.477  -6.303  0.00  0.00    +0.145 HD
ATOM     12  H   UNL     1       4.067   3.815  -4.665  0.00  0.00    +0.145 HD
ENDROOT
BRANCH   1  13
ATOM     13  C   UNL     1      -0.006  -0.343  -2.566  0.00  0.00    +0.102 C 
ATOM     14  C   UNL     1      -1.408   0.152  -2.925  0.00  0.00    +0.033 C 
BRANCH  13  17
ATOM     15  C   UNL     1      -0.018   1.503   0.010  0.00  0.00    +0.068 C 
ATOM     16  C   UNL     1       0.002  -0.004   0.002  0.00  0.00    +0.065 A 
ATOM     17  C   UNL     1       0.008  -0.818  -1.135  0.00  0.00    +0.016 A 
ATOM     18  C   UNL     1       0.028  -2.107  -0.725  0.00  0.00    +0.041 A 
ATOM     19  N   UNL     1       0.034  -2.109   0.625  0.00  0.00    -0.271 N 
ATOM     20  N   UNL     1       0.023  -0.777   1.058  0.00  0.00    -0.176 NA
ATOM     21  C   UNL     1       0.055  -3.295   1.485  0.00  0.00    +0.172 C 
ATOM     22  C   UNL     1       0.040  -3.323  -1.615  0.00  0.00    +0.065 C 
ENDBRANCH  13  17
ENDBRANCH   1  13
TORSDOF 2
