REMARK  Name = ZINC48290718
REMARK  9 active torsions:
REMARK  status: ('A' for Active; 'I' for Inactive)
REMARK    1  A    between atoms: C_1  and  C_2
REMARK    2  A    between atoms: C_4  and  S_26
REMARK    3  A    between atoms: C_6  and  N_9
REMARK    4  A    between atoms: C_7  and  C_8
REMARK    5  A    between atoms: C_10  and  C_12
REMARK    6  A    between atoms: C_12  and  N_13
REMARK    7  A    between atoms: C_17  and  C_19
REMARK    8  A    between atoms: C_22  and  O_25
REMARK    9  A    between atoms: S_26  and  N_29
REMARK                            x       y       z     vdW  Elec       q    Type
REMARK                         _______ _______ _______ _____ _____    ______ ____
ROOT
ATOM      1  N   UNL     1       0.052  -2.797   2.393  0.00  0.00    -0.287 N 
ATOM      2  C   UNL     1      -0.031  -4.143   2.385  0.00  0.00    +0.201 C 
ATOM      3  O   UNL     1      -0.028  -4.745   1.333  0.00  0.00    -0.278 OA
ATOM      4  H   UNL     1       0.130  -2.321   3.234  0.00  0.00    +0.155 HD
ENDROOT
BRANCH   1  10
ATOM      5  C   UNL     1       1.206   1.236  -0.172  0.00  0.00    +0.044 C 
ATOM      6  C   UNL     1       0.577  -0.131  -0.084  0.00  0.00    -0.044 A 
ATOM      7  C   UNL     1      -0.027  -0.686  -1.198  0.00  0.00    +0.032 A 
ATOM      8  C   UNL     1      -0.605  -1.940  -1.122  0.00  0.00    +0.107 A 
ATOM      9  C   UNL     1      -0.580  -2.642   0.067  0.00  0.00    +0.052 A 
ATOM     10  C   UNL     1       0.026  -2.088   1.187  0.00  0.00    +0.038 A 
ATOM     11  C   UNL     1       0.610  -0.831   1.106  0.00  0.00    -0.026 A 
ATOM     12  C   UNL     1       1.274  -0.228   2.317  0.00  0.00    +0.046 C 
BRANCH   8  13
ATOM     13  S   UNL     1      -1.374  -2.642  -2.544  0.00  0.00    +0.056 S 
ATOM     14  O   UNL     1      -2.317  -3.591  -2.067  0.00  0.00    -0.153 OA
ATOM     15  O   UNL     1      -1.743  -1.556  -3.383  0.00  0.00    -0.153 OA
BRANCH  13  16
ATOM     16  N   UNL     1      -0.212  -3.496  -3.357  0.00  0.00    -0.204 NA
ATOM     17  H   UNL     1       0.695  -3.530  -3.014  0.00  0.00    +0.144 HD
ATOM     18  H   UNL     1      -0.438  -3.962  -4.177  0.00  0.00    +0.144 HD
ENDBRANCH  13  16
ENDBRANCH   8  13
ENDBRANCH   1  10
BRANCH   2  19
ATOM     19  C   UNL     1      -0.129  -4.898   3.686  0.00  0.00    +0.020 C 
BRANCH  19  20
ATOM     20  N   UNL     1      -0.208  -6.339   3.410  0.00  0.00    +0.390 N 
ATOM     21  C   UNL     1      -1.470  -6.642   2.711  0.00  0.00    -0.077 C 
ATOM     22  C   UNL     1      -2.247  -7.648   3.585  0.00  0.00    -0.020 C 
ATOM     23  C   UNL     1      -1.132  -8.293   4.450  0.00  0.00    -0.013 C 
ATOM     24  C   UNL     1      -0.182  -7.091   4.682  0.00  0.00    -0.037 C 
ATOM     25  H   UNL     1       0.572  -6.619   2.834  0.00  0.00    -0.080 HD
BRANCH  24  26
ATOM     26  C   UNL     1       1.214  -7.576   4.977  0.00  0.00    -0.061 A 
ATOM     27  C   UNL     1       2.009  -8.057   3.952  0.00  0.00    +0.005 A 
ATOM     28  C   UNL     1       3.289  -8.502   4.220  0.00  0.00    +0.045 A 
ATOM     29  C   UNL     1       3.777  -8.467   5.518  0.00  0.00    +0.117 A 
ATOM     30  C   UNL     1       2.978  -7.984   6.544  0.00  0.00    +0.045 A 
ATOM     31  C   UNL     1       1.700  -7.535   6.270  0.00  0.00    +0.005 A 
BRANCH  29  32
ATOM     32  O   UNL     1       5.036  -8.905   5.784  0.00  0.00    -0.507 OA
ATOM     33  H   UNL     1       5.713  -8.217   5.721  0.00  0.00    +0.292 HD
ENDBRANCH  29  32
ENDBRANCH  24  26
ENDBRANCH  19  20
ENDBRANCH   2  19
TORSDOF 7
