REMARK  Name = ZINC67321367
REMARK  4 active torsions:
REMARK  status: ('A' for Active; 'I' for Inactive)
REMARK    1  A    between atoms: C_1  and  O_2
REMARK    2  A    between atoms: O_2  and  C_3
REMARK    3  A    between atoms: N_5  and  C_6
REMARK    4  A    between atoms: C_8  and  N_13
REMARK                            x       y       z     vdW  Elec       q    Type
REMARK                         _______ _______ _______ _____ _____    ______ ____
ROOT
ATOM      1  C   UNL     1       1.887  -2.803  -1.967  0.00  0.00    +0.073 A 
ATOM      2  C   UNL     1       2.452  -2.081  -3.008  0.00  0.00    +0.049 A 
ATOM      3  C   UNL     1       2.240  -2.478  -4.320  0.00  0.00    +0.037 A 
ATOM      4  C   UNL     1       1.463  -3.597  -4.590  0.00  0.00    +0.026 A 
ATOM      5  C   UNL     1       0.900  -4.316  -3.552  0.00  0.00    +0.042 A 
ATOM      6  C   UNL     1       1.114  -3.926  -2.242  0.00  0.00    +0.145 A 
ATOM      7  F   UNL     1       0.567  -4.634  -1.230  0.00  0.00    -0.204 F 
ENDROOT
BRANCH   3   8
ATOM      8  N   UNL     1       2.808  -1.749  -5.373  0.00  0.00    -0.269 N 
ATOM      9  C   UNL     1       3.214  -2.385  -6.490  0.00  0.00    +0.306 C 
ATOM     10  O   UNL     1       3.173  -3.599  -6.547  0.00  0.00    -0.252 OA
ATOM     11  N   UNL     1       3.666  -1.675  -7.543  0.00  0.00    -0.285 N 
ATOM     12  C   UNL     1       4.098  -2.394  -8.753  0.00  0.00    +0.110 C 
ATOM     13  C   UNL     1       3.635  -1.793 -10.105  0.00  0.00    +0.030 C 
ATOM     14  C   UNL     1       2.199  -1.373 -10.112  0.00  0.00    +0.071 C 
ATOM     15  S   UNL     1       2.048   0.358  -9.535  0.00  0.00    -0.159 S 
ATOM     16  C   UNL     1       2.314   0.296  -7.808  0.00  0.00    +0.088 C 
ATOM     17  C   UNL     1       3.704  -0.250  -7.450  0.00  0.00    +0.120 C 
ATOM     18  H   UNL     1       2.910  -0.788  -5.298  0.00  0.00    +0.156 HD
ENDBRANCH   3   8
BRANCH   1  21
ATOM     19  C   UNL     1       2.239  -1.099  -0.343  0.00  0.00    +0.404 C 
ATOM     20  O   UNL     1       2.265  -0.273  -1.234  0.00  0.00    -0.226 OA
ATOM     21  N   UNL     1       2.099  -2.406  -0.641  0.00  0.00    -0.248 N 
ATOM     22  H   UNL     1       2.145  -3.071   0.063  0.00  0.00    +0.158 HD
BRANCH  19  24
ATOM     23  C   UNL     1       2.497   0.692   1.183  0.00  0.00    +0.282 C 
ATOM     24  O   UNL     1       2.351  -0.709   0.941  0.00  0.00    -0.453 OA
ENDBRANCH  19  24
ENDBRANCH   1  21
TORSDOF 3
