REMARK  Name = ZINC14459053
REMARK  7 active torsions:
REMARK  status: ('A' for Active; 'I' for Inactive)
REMARK    1  A    between atoms: C_1  and  C_2
REMARK    2  A    between atoms: N_5  and  S_8
REMARK    3  A    between atoms: S_8  and  C_11
REMARK    4  A    between atoms: C_24  and  C_27
REMARK    5  A    between atoms: C_30  and  O_35
REMARK    6  A    between atoms: C_31  and  O_33
REMARK    7  A    between atoms: O_33  and  C_34
REMARK                            x       y       z     vdW  Elec       q    Type
REMARK                         _______ _______ _______ _____ _____    ______ ____
ROOT
ATOM      1  C   UNL     1      -1.229   3.132   0.029  0.00  0.00    +0.106 A 
ATOM      2  C   UNL     1      -1.218   1.750   0.017  0.00  0.00    +0.030 A 
ATOM      3  C   UNL     1      -0.013   1.076   0.008  0.00  0.00    +0.025 A 
ATOM      4  C   UNL     1       1.181   1.786   0.000  0.00  0.00    +0.031 A 
ATOM      5  C   UNL     1       1.174   3.173   0.007  0.00  0.00    -0.018 A 
ATOM      6  C   UNL     1      -0.044   3.839   0.022  0.00  0.00    +0.034 A 
ATOM      7  C   UNL     1       2.433   3.980  -0.004  0.00  0.00    +0.049 C 
ATOM      8  C   UNL     1       2.719   4.576   1.354  0.00  0.00    -0.023 C 
ATOM      9  C   UNL     1       4.009   4.585   1.584  0.00  0.00    -0.030 C 
ATOM     10  C   UNL     1       4.762   3.998   0.406  0.00  0.00    +0.033 C 
ATOM     11  C   UNL     1       3.685   3.137  -0.318  0.00  0.00    +0.029 C 
ATOM     12  C   UNL     1       3.598   1.786   0.398  0.00  0.00    +0.105 C 
ATOM     13  N   UNL     1       2.394   1.090  -0.012  0.00  0.00    -0.336 N 
ATOM     14  H   UNL     1       2.432   0.163  -0.295  0.00  0.00    +0.147 HD
ENDROOT
BRANCH  12  15
ATOM     15  C   UNL     1       4.810   0.957   0.058  0.00  0.00    -0.023 A 
ATOM     16  C   UNL     1       4.864   0.276  -1.144  0.00  0.00    +0.009 A 
ATOM     17  C   UNL     1       5.973  -0.486  -1.461  0.00  0.00    +0.049 A 
ATOM     18  C   UNL     1       7.033  -0.570  -0.572  0.00  0.00    +0.158 A 
ATOM     19  C   UNL     1       6.978   0.116   0.638  0.00  0.00    +0.162 A 
ATOM     20  C   UNL     1       5.866   0.882   0.947  0.00  0.00    +0.054 A 
BRANCH  19  21
ATOM     21  O   UNL     1       8.016   0.037   1.513  0.00  0.00    -0.491 OA
ATOM     22  C   UNL     1       7.891   0.767   2.735  0.00  0.00    +0.277 C 
ENDBRANCH  19  21
BRANCH  18  23
ATOM     23  O   UNL     1       8.125  -1.319  -0.882  0.00  0.00    -0.503 OA
ATOM     24  H   UNL     1       8.815  -0.832  -1.353  0.00  0.00    +0.292 HD
ENDBRANCH  18  23
ENDBRANCH  12  15
BRANCH   1  25
ATOM     25  S   UNL     1      -2.765   3.997   0.048  0.00  0.00    +0.061 S 
ATOM     26  O   UNL     1      -3.724   3.107   0.603  0.00  0.00    -0.153 OA
ATOM     27  O   UNL     1      -2.503   5.278   0.603  0.00  0.00    -0.153 OA
BRANCH  25  32
ATOM     28  C   UNL     1      -2.337   3.756  -5.665  0.00  0.00    +0.007 C 
ATOM     29  C   UNL     1      -3.016   4.138  -4.348  0.00  0.00    -0.012 C 
ATOM     30  C   UNL     1      -3.315   2.871  -3.543  0.00  0.00    +0.020 C 
ATOM     31  C   UNL     1      -4.026   3.255  -2.241  0.00  0.00    +0.110 C 
ATOM     32  N   UNL     1      -3.207   4.245  -1.528  0.00  0.00    -0.177 NA
ATOM     33  C   UNL     1      -2.791   5.462  -2.240  0.00  0.00    +0.110 C 
ATOM     34  C   UNL     1      -2.089   5.051  -3.543  0.00  0.00    +0.020 C 
ENDBRANCH  25  32
ENDBRANCH   1  25
TORSDOF 5
