REMARK  Name = ZINC45626381
REMARK  5 active torsions:
REMARK  status: ('A' for Active; 'I' for Inactive)
REMARK    1  A    between atoms: C_1  and  C_2
REMARK    2  A    between atoms: C_2  and  C_4
REMARK    3  A    between atoms: C_2  and  N_10
REMARK    4  A    between atoms: C_11  and  C_15
REMARK    5  A    between atoms: C_17  and  N_22
REMARK                            x       y       z     vdW  Elec       q    Type
REMARK                         _______ _______ _______ _____ _____    ______ ____
ROOT
ATOM      1  N   UNL     1      -1.381  -0.487   0.030  0.00  0.00    -0.220 N 
ATOM      2  C   UNL     1      -1.924  -1.377   0.899  0.00  0.00    +0.183 A 
ATOM      3  N   UNL     1      -3.167  -1.579   0.516  0.00  0.00    -0.108 NA
ATOM      4  N   UNL     1      -3.436  -0.881  -0.527  0.00  0.00    -0.023 NA
ATOM      5  N   UNL     1      -2.409  -0.188  -0.881  0.00  0.00    -0.043 NA
ENDROOT
BRANCH   2   6
ATOM      6  C   UNL     1      -1.247  -2.001   2.057  0.00  0.00    +0.036 A 
ATOM      7  C   UNL     1      -0.534  -1.213   2.959  0.00  0.00    +0.035 A 
ATOM      8  C   UNL     1       0.098  -1.804   4.042  0.00  0.00    +0.025 A 
ATOM      9  C   UNL     1       0.019  -3.180   4.226  0.00  0.00    +0.024 A 
ATOM     10  C   UNL     1      -0.687  -3.962   3.332  0.00  0.00    +0.018 A 
ATOM     11  C   UNL     1      -1.325  -3.381   2.253  0.00  0.00    +0.029 A 
ATOM     12 BR   UNL     1      -2.297  -4.455   1.038  0.00  0.00    -0.050 Br
BRANCH   8  13
ATOM     13  N   UNL     1       0.814  -1.018   4.948  0.00  0.00    -0.358 N 
ATOM     14  H   UNL     1       0.869  -0.058   4.820  0.00  0.00    +0.142 HD
ATOM     15  H   UNL     1       1.256  -1.432   5.706  0.00  0.00    +0.142 HD
ENDBRANCH   8  13
ENDBRANCH   2   6
BRANCH   1  17
ATOM     16  C   UNL     1      -0.074   1.579   0.081  0.00  0.00    +0.035 C 
ATOM     17  C   UNL     1      -0.019   0.050   0.044  0.00  0.00    +0.137 C 
BRANCH  17  18
ATOM     18  C   UNL     1       0.720  -0.403  -1.217  0.00  0.00    +0.143 C 
ATOM     19  C   UNL     1       2.176   0.127  -1.206  0.00  0.00    +0.036 C 
ATOM     20  C   UNL     1       2.875  -0.912  -2.125  0.00  0.00    +0.031 C 
ATOM     21  C   UNL     1       2.106  -2.210  -1.796  0.00  0.00    +0.160 C 
ATOM     22  O   UNL     1       0.840  -1.834  -1.238  0.00  0.00    -0.374 OA
ENDBRANCH  17  18
ENDBRANCH   1  17
TORSDOF 4
