REMARK  Name = ZINC03483713
REMARK  8 active torsions:
REMARK  status: ('A' for Active; 'I' for Inactive)
REMARK    1  A    between atoms: C_1  and  C_2
REMARK    2  A    between atoms: C_6  and  N_9
REMARK    3  A    between atoms: C_10  and  C_12
REMARK    4  A    between atoms: C_12  and  O_13
REMARK    5  A    between atoms: O_13  and  C_14
REMARK    6  A    between atoms: C_14  and  C_16
REMARK    7  A    between atoms: C_21  and  N_22
REMARK    8  A    between atoms: C_23  and  C_25
REMARK                            x       y       z     vdW  Elec       q    Type
REMARK                         _______ _______ _______ _____ _____    ______ ____
ROOT
ATOM      1  C   UNL     1      -3.493   6.203   1.136  0.00  0.00    +0.341 C 
ATOM      2  O   UNL     1      -4.592   5.752   0.884  0.00  0.00    -0.245 OA
ENDROOT
BRANCH   1   3
ATOM      3  C   UNL     1      -3.357   7.591   1.611  0.00  0.00    +0.080 A 
ATOM      4  C   UNL     1      -2.090   8.151   1.796  0.00  0.00    +0.017 A 
ATOM      5  C   UNL     1      -1.970   9.451   2.236  0.00  0.00    +0.001 A 
ATOM      6  C   UNL     1      -3.101  10.205   2.507  0.00  0.00    +0.002 A 
ATOM      7  C   UNL     1      -4.359   9.666   2.334  0.00  0.00    +0.024 A 
ATOM      8  C   UNL     1      -4.500   8.358   1.886  0.00  0.00    +0.048 A 
BRANCH   8   9
ATOM      9  N   UNL     1      -5.767   7.812   1.712  0.00  0.00    -0.278 N 
ATOM     10  C   UNL     1      -6.821   8.617   1.469  0.00  0.00    +0.284 C 
ATOM     11  O   UNL     1      -6.649   9.810   1.304  0.00  0.00    -0.266 OA
ATOM     12  H   UNL     1      -5.893   6.852   1.765  0.00  0.00    +0.155 HD
BRANCH  10  13
ATOM     13  C   UNL     1      -8.173   8.055   1.404  0.00  0.00    +0.189 A 
ATOM     14  C   UNL     1      -9.322   8.754   1.167  0.00  0.00    +0.054 A 
ATOM     15  C   UNL     1     -10.373   7.823   1.192  0.00  0.00    +0.042 A 
ATOM     16  C   UNL     1      -9.826   6.613   1.440  0.00  0.00    +0.196 A 
ATOM     17  O   UNL     1      -8.500   6.755   1.561  0.00  0.00    -0.458 OA
ENDBRANCH  10  13
ENDBRANCH   8   9
ENDBRANCH   1   3
BRANCH   1  18
ATOM     18  O   UNL     1      -2.397   5.434   0.981  0.00  0.00    -0.452 OA
BRANCH  18  19
ATOM     19  C   UNL     1      -2.605   4.077   0.510  0.00  0.00    +0.328 C 
BRANCH  19  21
ATOM     20  N   UNL     1      -1.225   2.095  -0.023  0.00  0.00    -0.280 N 
ATOM     21  C   UNL     1      -1.277   3.374   0.398  0.00  0.00    +0.255 C 
ATOM     22  O   UNL     1      -0.255   3.960   0.687  0.00  0.00    -0.272 OA
ATOM     23  H   UNL     1      -2.031   1.653  -0.332  0.00  0.00    +0.155 HD
BRANCH  20  29
ATOM     24  C   UNL     1       1.391  -1.865   1.270  0.00  0.00    +0.045 C 
ATOM     25  C   UNL     1       1.289  -0.518   0.602  0.00  0.00    -0.030 A 
ATOM     26  C   UNL     1       2.399   0.035  -0.011  0.00  0.00    +0.006 A 
ATOM     27  C   UNL     1       2.310   1.270  -0.625  0.00  0.00    +0.022 A 
ATOM     28  C   UNL     1       1.111   1.957  -0.630  0.00  0.00    +0.064 A 
ATOM     29  C   UNL     1      -0.006   1.405  -0.016  0.00  0.00    +0.071 A 
ATOM     30  C   UNL     1       0.086   0.163   0.601  0.00  0.00    +0.066 A 
ATOM     31 CL   UNL     1      -1.306  -0.532   1.369  0.00  0.00    -0.081 Cl
ATOM     32 CL   UNL     1       1.000   3.508  -1.402  0.00  0.00    -0.082 Cl
ENDBRANCH  20  29
ENDBRANCH  19  21
ENDBRANCH  18  19
ENDBRANCH   1  18
TORSDOF 7
