REMARK  Name = ZINC04067575
REMARK  10 active torsions:
REMARK  status: ('A' for Active; 'I' for Inactive)
REMARK    1  A    between atoms: C_1  and  C_2
REMARK    2  A    between atoms: C_2  and  O_3
REMARK    3  A    between atoms: O_3  and  C_4
REMARK    4  A    between atoms: C_6  and  C_12
REMARK    5  A    between atoms: C_9  and  O_10
REMARK    6  A    between atoms: C_17  and  C_22
REMARK    7  A    between atoms: C_29  and  C_35
REMARK    8  A    between atoms: C_30  and  C_31
REMARK    9  A    between atoms: C_31  and  O_33
REMARK   10  A    between atoms: O_33  and  C_34
REMARK                            x       y       z     vdW  Elec       q    Type
REMARK                         _______ _______ _______ _____ _____    ______ ____
ROOT
ATOM      1  C   UNL     1       0.655  -4.953  -0.032  0.00  0.00    +0.092 C 
ATOM      2  C   UNL     1       0.614  -5.813  -1.270  0.00  0.00    +0.024 C 
ATOM      3  C   UNL     1       0.231  -7.106  -1.200  0.00  0.00    +0.016 C 
ATOM      4  C   UNL     1       0.170  -7.967  -2.437  0.00  0.00    +0.059 C 
ATOM      5  C   UNL     1       1.231  -7.504  -3.438  0.00  0.00    +0.032 C 
ATOM      6  C   UNL     1       0.977  -6.030  -3.771  0.00  0.00    +0.088 C 
ATOM      7  C   UNL     1       0.984  -5.232  -2.496  0.00  0.00    +0.162 C 
ATOM      8  O   UNL     1       1.317  -4.064  -2.526  0.00  0.00    -0.292 OA
ATOM      9  N   UNL     1      -0.114  -7.664   0.002  0.00  0.00    -0.321 N 
ATOM     10  C   UNL     1       0.280  -7.086   1.177  0.00  0.00    +0.016 C 
ATOM     11  C   UNL     1       0.658  -5.797   1.209  0.00  0.00    +0.065 C 
ATOM     12  C   UNL     1       0.288  -7.901   2.445  0.00  0.00    +0.061 C 
ATOM     13  H   UNL     1      -0.713  -8.585   0.029  0.00  0.00    +0.152 HD
ENDROOT
BRANCH   1  16
ATOM     14  C   UNL     1      -1.498  -1.849   0.006  0.00  0.00    +0.163 A 
ATOM     15  C   UNL     1      -0.389  -2.680  -0.009  0.00  0.00    +0.054 A 
ATOM     16  C   UNL     1      -0.553  -4.052  -0.015  0.00  0.00    -0.030 A 
ATOM     17  C   UNL     1      -1.822  -4.600  -0.006  0.00  0.00    +0.023 A 
ATOM     18  C   UNL     1      -2.934  -3.777   0.010  0.00  0.00    +0.063 A 
ATOM     19  C   UNL     1      -2.776  -2.400   0.021  0.00  0.00    +0.173 A 
ATOM     20 BR   UNL     1      -4.668  -4.531   0.023  0.00  0.00    -0.046 Br
BRANCH  19  21
ATOM     21  O   UNL     1      -3.868  -1.589   0.042  0.00  0.00    -0.503 OA
ATOM     22  H   UNL     1      -4.877  -2.026   0.054  0.00  0.00    +0.292 HD
ENDBRANCH  19  21
BRANCH  14  23
ATOM     23  O   UNL     1      -1.339  -0.499   0.012  0.00  0.00    -0.489 OA
BRANCH  23  25
ATOM     24  C   UNL     1      -0.019   1.526   0.010  0.00  0.00    +0.048 C 
ATOM     25  C   UNL     1       0.002  -0.004   0.002  0.00  0.00    +0.226 C 
ENDBRANCH  23  25
ENDBRANCH  14  23
ENDBRANCH   1  16
BRANCH   5  26
ATOM     26  C   UNL     1       1.136  -8.331  -4.695  0.00  0.00    -0.044 A 
ATOM     27  C   UNL     1      -0.035  -8.341  -5.428  0.00  0.00    +0.004 A 
ATOM     28  C   UNL     1      -0.121  -9.096  -6.583  0.00  0.00    +0.000 A 
ATOM     29  C   UNL     1       0.962  -9.848  -7.000  0.00  0.00    +0.000 A 
ATOM     30  C   UNL     1       2.132  -9.841  -6.263  0.00  0.00    +0.000 A 
ATOM     31  C   UNL     1       2.219  -9.083  -5.111  0.00  0.00    +0.004 A 
ENDBRANCH   5  26
BRANCH  11  32
ATOM     32  C   UNL     1       1.068  -5.224   2.436  0.00  0.00    +0.337 C 
ATOM     33  O   UNL     1       1.075  -5.898   3.449  0.00  0.00    -0.245 OA
BRANCH  32  34
ATOM     34  O   UNL     1       1.452  -3.931   2.482  0.00  0.00    -0.465 OA
ATOM     35  C   UNL     1       1.853  -3.419   3.754  0.00  0.00    +0.280 C 
ENDBRANCH  32  34
ENDBRANCH  11  32
TORSDOF 7
