REMARK  Name = ZINC52860264
REMARK  3 active torsions:
REMARK  status: ('A' for Active; 'I' for Inactive)
REMARK    1  A    between atoms: C_3  and  O_8
REMARK    2  A    between atoms: O_8  and  C_9
REMARK    3  A    between atoms: C_14  and  C_15
REMARK                            x       y       z     vdW  Elec       q    Type
REMARK                         _______ _______ _______ _____ _____    ______ ____
ROOT
ATOM      1  C   UNL     1       4.716   1.396   0.178  0.00  0.00    +0.139 A 
ATOM      2  C   UNL     1       4.702   0.009   0.156  0.00  0.00    +0.048 A 
ATOM      3  C   UNL     1       5.889  -0.695   0.128  0.00  0.00    +0.023 A 
ATOM      4  C   UNL     1       7.102  -0.024   0.120  0.00  0.00    +0.042 A 
ATOM      5  C   UNL     1       7.134   1.355   0.141  0.00  0.00    +0.035 A 
ATOM      6  C   UNL     1       5.939   2.078   0.164  0.00  0.00    +0.056 A 
ATOM      7 CL   UNL     1       8.587  -0.922   0.085  0.00  0.00    -0.084 Cl
ENDROOT
BRANCH   6   8
ATOM      8  C   UNL     1       5.966   3.555   0.180  0.00  0.00    +0.098 C 
ATOM      9  N   UNL     1       6.646   4.198   1.128  0.00  0.00    -0.387 N 
ATOM     10  N   UNL     1       5.310   4.243  -0.754  0.00  0.00    -0.344 N 
ATOM     11  H   UNL     1       7.056   3.701   1.853  0.00  0.00    +0.157 HD
ATOM     12  H   UNL     1       4.816   3.775  -1.444  0.00  0.00    +0.144 HD
ATOM     13  H   UNL     1       5.328   5.213  -0.743  0.00  0.00    +0.144 HD
ATOM     14  H   UNL     1       6.730   5.164   1.094  0.00  0.00    +0.157 HD
ENDBRANCH   6   8
BRANCH   1  15
ATOM     15  O   UNL     1       3.550   2.088   0.206  0.00  0.00    -0.455 OA
BRANCH  15  18
ATOM     16  C   UNL     1       0.738   0.116  -0.994  0.00  0.00    +0.005 A 
ATOM     17  C   UNL     1       1.919   0.834  -0.987  0.00  0.00    +0.046 A 
ATOM     18  C   UNL     1       2.389   1.383   0.197  0.00  0.00    +0.130 A 
ATOM     19  C   UNL     1       1.671   1.210   1.372  0.00  0.00    +0.061 A 
ATOM     20  C   UNL     1       0.490   0.492   1.360  0.00  0.00    +0.021 A 
ATOM     21  C   UNL     1       0.024  -0.054   0.177  0.00  0.00    +0.015 A 
ATOM     22 BR   UNL     1      -0.489   0.256   2.961  0.00  0.00    -0.050 Br
ENDBRANCH  15  18
ENDBRANCH   1  15
TORSDOF 3
