REMARK  Name = ZINC08307166
REMARK  7 active torsions:
REMARK  status: ('A' for Active; 'I' for Inactive)
REMARK    1  A    between atoms: C_1  and  C_2
REMARK    2  A    between atoms: C_2  and  C_4
REMARK    3  A    between atoms: C_2  and  N_58
REMARK    4  A    between atoms: N_6  and  C_7
REMARK    5  A    between atoms: C_8  and  C_15
REMARK    6  A    between atoms: C_20  and  C_23
REMARK    7  A    between atoms: C_23  and  C_24
REMARK                            x       y       z     vdW  Elec       q    Type
REMARK                         _______ _______ _______ _____ _____    ______ ____
ROOT
ATOM      1  C   UNL     1      -1.815   0.752  -5.019  0.00  0.00    +0.204 C 
ATOM      2  O   UNL     1      -2.792   0.183  -5.457  0.00  0.00    -0.277 OA
ATOM      3  N   UNL     1      -0.740   0.040  -4.627  0.00  0.00    -0.281 N 
ATOM      4  H   UNL     1       0.042   0.494  -4.277  0.00  0.00    +0.155 HD
ENDROOT
BRANCH   3   5
ATOM      5  C   UNL     1      -0.752  -1.344  -4.726  0.00  0.00    +0.084 A 
ATOM      6  C   UNL     1       0.245  -2.239  -4.378  0.00  0.00    +0.068 A 
ATOM      7  C   UNL     1      -0.024  -3.663  -4.578  0.00  0.00    -0.023 A 
ATOM      8  C   UNL     1      -1.234  -3.949  -5.091  0.00  0.00    -0.004 A 
ATOM      9  S   UNL     1      -2.015  -2.370  -5.314  0.00  0.00    -0.077 S 
ATOM     10  C   UNL     1      -1.438  -5.430  -5.263  0.00  0.00    +0.043 C 
ATOM     11  C   UNL     1      -0.345  -6.078  -4.384  0.00  0.00    +0.010 C 
ATOM     12  C   UNL     1       0.731  -4.974  -4.356  0.00  0.00    +0.037 C 
BRANCH   6  13
ATOM     13  C   UNL     1       1.522  -1.777  -3.825  0.00  0.00    +0.244 C 
ATOM     14  O   UNL     1       2.452  -1.525  -4.569  0.00  0.00    -0.270 OA
ATOM     15  N   UNL     1       1.664  -1.627  -2.493  0.00  0.00    -0.325 N 
ATOM     16  H   UNL     1       2.508  -1.318  -2.127  0.00  0.00    +0.145 HD
ATOM     17  H   UNL     1       0.923  -1.829  -1.901  0.00  0.00    +0.145 HD
ENDBRANCH   6  13
ENDBRANCH   3   5
BRANCH   1  19
ATOM     18  C   UNL     1      -2.278   2.671  -3.518  0.00  0.00    -0.004 C 
ATOM     19  C   UNL     1      -1.803   2.255  -4.912  0.00  0.00    +0.016 C 
BRANCH  19  25
ATOM     20  C   UNL     1      -2.845   4.275  -5.743  0.00  0.00    -0.078 C 
ATOM     21  C   UNL     1      -3.895   4.811  -6.720  0.00  0.00    -0.015 C 
ATOM     22  C   UNL     1      -3.456   4.499  -8.154  0.00  0.00    -0.010 C 
ATOM     23  C   UNL     1      -3.265   2.987  -8.304  0.00  0.00    -0.015 C 
ATOM     24  C   UNL     1      -2.234   2.505  -7.281  0.00  0.00    -0.078 C 
ATOM     25  N   UNL     1      -2.726   2.812  -5.921  0.00  0.00    +0.387 N 
ATOM     26  H   UNL     1      -3.652   2.386  -5.798  0.00  0.00    -0.081 HD
BRANCH  22  27
ATOM     27  C   UNL     1      -4.531   4.978  -9.133  0.00  0.00    +0.038 C 
BRANCH  27  28
ATOM     28  C   UNL     1      -4.631   6.480  -9.072  0.00  0.00    -0.047 A 
ATOM     29  C   UNL     1      -5.508   7.079  -8.186  0.00  0.00    +0.003 A 
ATOM     30  C   UNL     1      -5.597   8.457  -8.127  0.00  0.00    +0.000 A 
ATOM     31  C   UNL     1      -4.817   9.237  -8.961  0.00  0.00    +0.000 A 
ATOM     32  C   UNL     1      -3.945   8.638  -9.851  0.00  0.00    +0.000 A 
ATOM     33  C   UNL     1      -3.852   7.260  -9.906  0.00  0.00    +0.003 A 
ENDBRANCH  27  28
ENDBRANCH  22  27
ENDBRANCH  19  25
ENDBRANCH   1  19
TORSDOF 6
