REMARK  Name = ZINC39656206
REMARK  8 active torsions:
REMARK  status: ('A' for Active; 'I' for Inactive)
REMARK    1  A    between atoms: C_1  and  C_2
REMARK    2  A    between atoms: C_8  and  C_11
REMARK    3  A    between atoms: C_11  and  C_12
REMARK    4  A    between atoms: C_12  and  N_13
REMARK    5  A    between atoms: C_14  and  C_16
REMARK    6  A    between atoms: C_27  and  C_29
REMARK    7  A    between atoms: C_30  and  C_36
REMARK    8  A    between atoms: C_33  and  C_35
REMARK                            x       y       z     vdW  Elec       q    Type
REMARK                         _______ _______ _______ _____ _____    ______ ____
ROOT
ATOM      1  C   UNL     1       4.937  -0.180  -7.327  0.00  0.00    +0.100 C 
ATOM      2  C   UNL     1       4.911   0.679  -8.611  0.00  0.00    +0.121 C 
ATOM      3  N   UNL     1       5.734  -0.077  -9.584  0.00  0.00    -0.296 N 
ATOM      4  C   UNL     1       5.378  -1.496  -9.345  0.00  0.00    +0.115 C 
ATOM      5  C   UNL     1       5.243  -1.607  -7.813  0.00  0.00    -0.004 C 
ATOM      6  C   UNL     1       4.096  -2.546  -7.451  0.00  0.00    -0.010 C 
ATOM      7  C   UNL     1       4.448  -3.969  -7.893  0.00  0.00    -0.082 C 
ATOM      8  N   UNL     1       5.685  -4.397  -7.228  0.00  0.00    +0.379 N 
ATOM      9  C   UNL     1       6.803  -3.546  -7.654  0.00  0.00    -0.082 C 
ATOM     10  C   UNL     1       6.550  -2.105  -7.203  0.00  0.00    -0.010 C 
ATOM     11  C   UNL     1       6.609   0.415 -10.484  0.00  0.00    +0.247 C 
ATOM     12  O   UNL     1       7.146  -0.332 -11.282  0.00  0.00    -0.270 OA
ATOM     13  H   UNL     1       5.571  -4.325  -6.228  0.00  0.00    -0.086 HD
ATOM     14  H   UNL     1       5.882  -5.356  -7.473  0.00  0.00    -0.086 HD
ENDROOT
BRANCH  11  15
ATOM     15  C   UNL     1       6.903   1.798 -10.501  0.00  0.00    +0.066 C 
ATOM     16  C   UNL     1       7.741   2.448  -9.671  0.00  0.00    +0.046 C 
ATOM     17  N   UNL     1       7.790   3.774  -9.969  0.00  0.00    -0.269 N 
ATOM     18  O   UNL     1       6.942   4.066 -11.063  0.00  0.00    -0.266 OA
ATOM     19  C   UNL     1       6.342   2.824 -11.459  0.00  0.00    +0.182 C 
ATOM     20  C   UNL     1       6.729   2.477 -12.898  0.00  0.00    +0.046 C 
ATOM     21  C   UNL     1       8.521   1.793  -8.560  0.00  0.00    +0.066 C 
ATOM     22  H   UNL     1       8.329   4.428  -9.497  0.00  0.00    +0.194 HD
ENDBRANCH  11  15
BRANCH   1  24
ATOM     23  N   UNL     1       3.508  -0.404  -5.320  0.00  0.00    -0.315 N 
ATOM     24  C   UNL     1       3.598  -0.136  -6.638  0.00  0.00    +0.218 C 
ATOM     25  O   UNL     1       2.600   0.140  -7.270  0.00  0.00    -0.275 OA
ATOM     26  H   UNL     1       4.306  -0.624  -4.815  0.00  0.00    +0.149 HD
BRANCH  23  27
ATOM     27  C   UNL     1       2.206  -0.361  -4.651  0.00  0.00    +0.109 C 
BRANCH  27  28
ATOM     28  C   UNL     1       2.382  -0.700  -3.170  0.00  0.00    +0.056 C 
BRANCH  28  36
ATOM     29  C   UNL     1      -1.108  -5.242  -3.194  0.00  0.00    +0.044 C 
ATOM     30  C   UNL     1      -1.068  -3.833  -2.663  0.00  0.00    -0.050 A 
ATOM     31  C   UNL     1      -2.142  -3.341  -1.934  0.00  0.00    +0.005 A 
ATOM     32  C   UNL     1      -2.126  -2.055  -1.440  0.00  0.00    +0.026 A 
ATOM     33  C   UNL     1      -1.024  -1.239  -1.673  0.00  0.00    +0.047 A 
ATOM     34  N   UNL     1      -0.713   0.056  -1.324  0.00  0.00    -0.360 N 
ATOM     35  C   UNL     1       0.522   0.386  -1.814  0.00  0.00    +0.087 A 
ATOM     36  C   UNL     1       1.043  -0.656  -2.481  0.00  0.00    -0.021 A 
ATOM     37  C   UNL     1       0.062  -1.742  -2.413  0.00  0.00    +0.003 A 
ATOM     38  C   UNL     1       0.027  -3.050  -2.900  0.00  0.00    +0.013 A 
ATOM     39  H   UNL     1      -1.284   0.647  -0.808  0.00  0.00    +0.165 HD
ENDBRANCH  28  36
ENDBRANCH  27  28
ENDBRANCH  23  27
ENDBRANCH   1  24
TORSDOF 5
