REMARK  Name = ZINC40679552
REMARK  8 active torsions:
REMARK  status: ('A' for Active; 'I' for Inactive)
REMARK    1  A    between atoms: C_1  and  C_2
REMARK    2  A    between atoms: C_2  and  N_3
REMARK    3  A    between atoms: N_3  and  C_4
REMARK    4  A    between atoms: C_11  and  N_25
REMARK    5  A    between atoms: C_12  and  N_16
REMARK    6  A    between atoms: N_16  and  C_17
REMARK    7  A    between atoms: C_21  and  C_24
REMARK    8  A    between atoms: C_22  and  C_23
REMARK                            x       y       z     vdW  Elec       q    Type
REMARK                         _______ _______ _______ _____ _____    ______ ____
ROOT
ATOM      1  N   UNL     1       0.712  -0.518   1.307  0.00  0.00    -0.284 N 
ATOM      2  C   UNL     1       2.102  -0.553   1.344  0.00  0.00    +0.151 A 
ATOM      3  C   UNL     1       2.771  -0.896   2.521  0.00  0.00    +0.104 A 
ATOM      4  C   UNL     1       4.167  -0.916   2.502  0.00  0.00    +0.126 A 
ATOM      5  N   UNL     1       4.801  -0.610   1.373  0.00  0.00    -0.333 N 
ATOM      6  C   UNL     1       4.131  -0.292   0.284  0.00  0.00    +0.200 A 
ATOM      7  N   UNL     1       2.814  -0.266   0.257  0.00  0.00    -0.220 NA
ATOM      8  H   UNL     1       5.771  -0.621   1.351  0.00  0.00    +0.168 HD
ENDROOT
BRANCH   1   9
ATOM      9  C   UNL     1       0.038   0.689   1.514  0.00  0.00    +0.035 A 
ATOM     10  C   UNL     1      -1.342   0.749   1.366  0.00  0.00    +0.023 A 
ATOM     11  C   UNL     1      -2.005   1.943   1.572  0.00  0.00    +0.002 A 
ATOM     12  C   UNL     1      -1.297   3.077   1.924  0.00  0.00    +0.000 A 
ATOM     13  C   UNL     1       0.077   3.021   2.072  0.00  0.00    +0.002 A 
ATOM     14  C   UNL     1       0.745   1.829   1.874  0.00  0.00    +0.023 A 
ENDBRANCH   1   9
BRANCH   3  15
ATOM     15  N   UNL     1       2.061  -1.211   3.689  0.00  0.00    -0.353 N 
ATOM     16  H   UNL     1       1.092  -1.264   3.669  0.00  0.00    +0.143 HD
ATOM     17  H   UNL     1       2.538  -1.375   4.518  0.00  0.00    +0.143 HD
ENDBRANCH   3  15
BRANCH   1  19
ATOM     18  C   UNL     1      -0.264  -1.905  -0.454  0.00  0.00    +0.025 C 
ATOM     19  C   UNL     1      -0.045  -1.746   1.052  0.00  0.00    +0.109 C 
ENDBRANCH   1  19
BRANCH   4  20
ATOM     20  N   UNL     1       4.883  -1.250   3.647  0.00  0.00    -0.299 N 
ATOM     21  H   UNL     1       4.416  -1.410   4.482  0.00  0.00    +0.154 HD
BRANCH  20  22
ATOM     22  C   UNL     1       6.276  -1.355   3.593  0.00  0.00    +0.036 A 
ATOM     23  C   UNL     1       6.879  -2.607   3.582  0.00  0.00    +0.023 A 
ATOM     24  C   UNL     1       8.255  -2.707   3.529  0.00  0.00    +0.002 A 
ATOM     25  C   UNL     1       9.033  -1.564   3.487  0.00  0.00    +0.004 A 
ATOM     26  C   UNL     1       8.435  -0.317   3.499  0.00  0.00    -0.046 A 
ATOM     27  C   UNL     1       7.059  -0.209   3.546  0.00  0.00    -0.026 A 
ATOM     28  C   UNL     1       6.409   1.150   3.553  0.00  0.00    +0.046 C 
ATOM     29  C   UNL     1       9.287   0.925   3.454  0.00  0.00    +0.044 C 
ENDBRANCH  20  22
ENDBRANCH   4  20
TORSDOF 5
