REMARK  Name = ZINC64044487
REMARK  10 active torsions:
REMARK  status: ('A' for Active; 'I' for Inactive)
REMARK    1  A    between atoms: C_1  and  O_2
REMARK    2  A    between atoms: O_2  and  C_3
REMARK    3  A    between atoms: C_10  and  C_18
REMARK    4  A    between atoms: C_20  and  O_38
REMARK    5  A    between atoms: C_22  and  O_37
REMARK    6  A    between atoms: N_24  and  C_27
REMARK    7  A    between atoms: C_29  and  O_35
REMARK    8  A    between atoms: C_32  and  O_33
REMARK    9  A    between atoms: O_33  and  C_34
REMARK   10  A    between atoms: O_35  and  C_36
REMARK                            x       y       z     vdW  Elec       q    Type
REMARK                         _______ _______ _______ _____ _____    ______ ____
ROOT
ATOM      1  C   UNL     1      -4.603  -4.206   2.414  0.00  0.00    +0.179 C 
ATOM      2  C   UNL     1      -3.121  -4.080   2.615  0.00  0.00    +0.200 C 
ATOM      3  N   UNL     1      -2.455  -4.860   3.376  0.00  0.00    -0.204 NA
ATOM      4  C   UNL     1      -3.038  -5.956   4.133  0.00  0.00    +0.339 C 
ATOM      5  N   UNL     1      -4.473  -5.795   4.315  0.00  0.00    -0.222 N 
ATOM      6  C   UNL     1      -5.212  -5.005   3.531  0.00  0.00    +0.237 C 
ATOM      7  O   UNL     1      -6.407  -4.933   3.729  0.00  0.00    -0.274 OA
ENDROOT
BRANCH   1  14
ATOM      8  C   UNL     1      -9.451  -1.647   2.230  0.00  0.00    +0.121 A 
ATOM      9  C   UNL     1      -9.797  -2.734   3.051  0.00  0.00    +0.047 A 
ATOM     10  C   UNL     1      -9.146  -3.916   3.001  0.00  0.00    +0.029 A 
ATOM     11  C   UNL     1      -8.034  -4.099   2.065  0.00  0.00    +0.043 A 
ATOM     12  N   UNL     1      -7.237  -5.118   1.838  0.00  0.00    -0.376 N 
ATOM     13  C   UNL     1      -6.358  -4.777   0.724  0.00  0.00    +0.124 C 
ATOM     14  C   UNL     1      -4.875  -4.908   1.083  0.00  0.00    +0.101 C 
ATOM     15  N   UNL     1      -4.083  -4.275   0.016  0.00  0.00    -0.310 NA
ATOM     16  C   UNL     1      -4.269  -2.822  -0.056  0.00  0.00    +0.085 C 
ATOM     17  C   UNL     1      -5.718  -2.495  -0.462  0.00  0.00    +0.048 C 
ATOM     18  C   UNL     1      -6.622  -3.307   0.439  0.00  0.00    -0.036 C 
ATOM     19  C   UNL     1      -7.660  -2.948   1.203  0.00  0.00    +0.003 A 
ATOM     20  C   UNL     1      -8.440  -1.711   1.332  0.00  0.00    +0.055 A 
ATOM     21  H   UNL     1      -3.106  -4.510   0.102  0.00  0.00    +0.122 HD
ATOM     22  H   UNL     1      -7.233  -5.955   2.328  0.00  0.00    +0.160 HD
BRANCH   8  24
ATOM     23  C   UNL     1     -11.217  -0.467   3.299  0.00  0.00    +0.277 C 
ATOM     24  O   UNL     1     -10.159  -0.492   2.338  0.00  0.00    -0.495 OA
ENDBRANCH   8  24
ENDBRANCH   1  14
BRANCH   5  25
ATOM     25  C   UNL     1      -5.103  -6.498   5.351  0.00  0.00    +0.086 A 
ATOM     26  C   UNL     1      -5.223  -5.923   6.607  0.00  0.00    +0.073 A 
ATOM     27  C   UNL     1      -5.846  -6.620   7.630  0.00  0.00    +0.122 A 
ATOM     28  C   UNL     1      -6.350  -7.892   7.398  0.00  0.00    +0.049 A 
ATOM     29  C   UNL     1      -6.232  -8.467   6.146  0.00  0.00    +0.051 A 
ATOM     30  C   UNL     1      -5.614  -7.772   5.119  0.00  0.00    +0.142 A 
BRANCH  30  31
ATOM     31  O   UNL     1      -5.503  -8.336   3.886  0.00  0.00    -0.493 OA
ATOM     32  C   UNL     1      -6.051  -9.646   3.720  0.00  0.00    +0.277 C 
ENDBRANCH  30  31
BRANCH  27  33
ATOM     33  O   UNL     1      -5.965  -6.058   8.863  0.00  0.00    -0.495 OA
ATOM     34  C   UNL     1      -6.619  -6.832   9.870  0.00  0.00    +0.277 C 
ENDBRANCH  27  33
ENDBRANCH   5  25
BRANCH   4  35
ATOM     35  O   UNL     1      -2.794  -7.181   3.438  0.00  0.00    -0.356 OA
ATOM     36  H   UNL     1      -1.857  -7.381   3.312  0.00  0.00    +0.214 HD
ENDBRANCH   4  35
BRANCH   2  37
ATOM     37  O   UNL     1      -2.462  -3.100   1.962  0.00  0.00    -0.495 OA
ATOM     38  H   UNL     1      -1.512  -3.080   2.139  0.00  0.00    +0.293 HD
ENDBRANCH   2  37
TORSDOF 7
