REMARK  Name = ZINC58850522
REMARK  5 active torsions:
REMARK  status: ('A' for Active; 'I' for Inactive)
REMARK    1  A    between atoms: C_3  and  C_6
REMARK    2  A    between atoms: C_6  and  C_8
REMARK    3  A    between atoms: C_6  and  N_21
REMARK    4  A    between atoms: C_8  and  N_9
REMARK    5  A    between atoms: N_12  and  C_13
REMARK                            x       y       z     vdW  Elec       q    Type
REMARK                         _______ _______ _______ _____ _____    ______ ____
ROOT
ATOM      1  N   UNL     1       3.598   1.808   2.007  0.00  0.00    -0.300 N 
ATOM      2  C   UNL     1       3.946   1.978   3.298  0.00  0.00    +0.304 C 
ATOM      3  O   UNL     1       4.571   1.112   3.879  0.00  0.00    -0.253 OA
ATOM      4  N   UNL     1       3.601   3.109   3.946  0.00  0.00    -0.268 N 
ATOM      5  H   UNL     1       3.099   2.499   1.544  0.00  0.00    +0.150 HD
ATOM      6  H   UNL     1       3.166   3.830   3.464  0.00  0.00    +0.156 HD
ENDROOT
BRANCH   4   7
ATOM      7  C   UNL     1       3.873   3.244   5.313  0.00  0.00    +0.049 A 
ATOM      8  C   UNL     1       5.014   2.669   5.855  0.00  0.00    +0.025 A 
ATOM      9  C   UNL     1       5.279   2.803   7.204  0.00  0.00    +0.017 A 
ATOM     10  C   UNL     1       4.409   3.510   8.015  0.00  0.00    +0.019 A 
ATOM     11  C   UNL     1       3.271   4.085   7.477  0.00  0.00    +0.032 A 
ATOM     12  C   UNL     1       3.003   3.958   6.128  0.00  0.00    +0.040 A 
ATOM     13 BR   UNL     1       1.451   4.749   5.392  0.00  0.00    -0.048 Br
ATOM     14 BR   UNL     1       4.776   3.692   9.861  0.00  0.00    -0.050 Br
ENDBRANCH   4   7
BRANCH   1  15
ATOM     15  C   UNL     1       3.972   0.578   1.304  0.00  0.00    +0.098 C 
BRANCH  15  16
ATOM     16  C   UNL     1       3.568   0.689  -0.167  0.00  0.00    +0.016 C 
BRANCH  16  17
ATOM     17  N   UNL     1       4.054  -0.488  -0.899  0.00  0.00    +0.387 N 
ATOM     18  C   UNL     1       3.830  -0.313  -2.357  0.00  0.00    -0.078 C 
ATOM     19  C   UNL     1       4.851  -1.290  -2.992  0.00  0.00    -0.020 C 
ATOM     20  C   UNL     1       6.077  -1.164  -2.059  0.00  0.00    -0.020 C 
ATOM     21  C   UNL     1       5.517  -0.625  -0.729  0.00  0.00    -0.078 C 
ATOM     22  H   UNL     1       3.586  -1.320  -0.572  0.00  0.00    -0.081 HD
ENDBRANCH  16  17
BRANCH  16  25
ATOM     23  C   UNL     1      -0.016   1.487  -0.488  0.00  0.00    +0.041 A 
ATOM     24  C   UNL     1       1.341   1.880  -0.446  0.00  0.00    +0.043 A 
ATOM     25  C   UNL     1       2.066   0.760  -0.271  0.00  0.00    +0.093 A 
ATOM     26  O   UNL     1       1.224  -0.284  -0.206  0.00  0.00    -0.469 OA
ATOM     27  C   UNL     1      -0.040   0.151  -0.337  0.00  0.00    +0.195 A 
ENDBRANCH  16  25
ENDBRANCH  15  16
ENDBRANCH   1  15
TORSDOF 5
