REMARK  Name = ZINC39537868
REMARK  8 active torsions:
REMARK  status: ('A' for Active; 'I' for Inactive)
REMARK    1  A    between atoms: C_1  and  O_2
REMARK    2  A    between atoms: O_2  and  C_3
REMARK    3  A    between atoms: C_6  and  O_33
REMARK    4  A    between atoms: C_7  and  C_9
REMARK    5  A    between atoms: C_9  and  N_10
REMARK    6  A    between atoms: C_14  and  C_17
REMARK    7  A    between atoms: C_21  and  C_23
REMARK    8  A    between atoms: C_27  and  C_29
REMARK                            x       y       z     vdW  Elec       q    Type
REMARK                         _______ _______ _______ _____ _____    ______ ____
ROOT
ATOM      1  N   UNL     1       2.742  -4.577   1.857  0.00  0.00    +0.383 N 
ATOM      2  C   UNL     1       3.027  -4.219   0.462  0.00  0.00    -0.078 C 
ATOM      3  C   UNL     1       4.466  -4.607   0.116  0.00  0.00    -0.018 C 
ATOM      4  C   UNL     1       4.642  -6.117   0.304  0.00  0.00    +0.006 C 
ATOM      5  C   UNL     1       4.270  -6.489   1.742  0.00  0.00    +0.020 C 
ATOM      6  C   UNL     1       2.838  -6.031   2.028  0.00  0.00    -0.069 C 
ATOM      7  H   UNL     1       3.411  -4.123   2.461  0.00  0.00    -0.081 HD
ENDROOT
BRANCH   5   8
ATOM      8  C   UNL     1       4.367  -7.982   1.916  0.00  0.00    +0.055 C 
ATOM      9  N   UNL     1       3.398  -8.802   2.163  0.00  0.00    -0.158 NA
ATOM     10  N   UNL     1       3.830 -10.120   2.265  0.00  0.00    -0.161 NA
ATOM     11  C   UNL     1       5.105 -10.236   2.090  0.00  0.00    +0.121 C 
ATOM     12  C   UNL     1       5.618  -8.833   1.831  0.00  0.00    +0.108 C 
BRANCH  12  13
ATOM     13  C   UNL     1       6.609  -8.428   2.891  0.00  0.00    -0.033 A 
ATOM     14  C   UNL     1       6.265  -8.513   4.228  0.00  0.00    +0.004 A 
ATOM     15  C   UNL     1       7.174  -8.142   5.200  0.00  0.00    +0.001 A 
ATOM     16  C   UNL     1       8.428  -7.686   4.837  0.00  0.00    +0.012 A 
ATOM     17  C   UNL     1       8.772  -7.602   3.501  0.00  0.00    +0.055 A 
ATOM     18  C   UNL     1       7.864  -7.978   2.528  0.00  0.00    +0.017 A 
BRANCH  17  19
ATOM     19  C   UNL     1      10.139  -7.105   3.105  0.00  0.00    +0.417 C 
ATOM     20  F   UNL     1      10.872  -6.792   4.255  0.00  0.00    -0.166 F 
ATOM     21  F   UNL     1      10.806  -8.100   2.382  0.00  0.00    -0.166 F 
ATOM     22  F   UNL     1      10.006  -5.961   2.311  0.00  0.00    -0.166 F 
ENDBRANCH  17  19
ENDBRANCH  12  13
ENDBRANCH   5   8
BRANCH   1  23
ATOM     23  C   UNL     1       1.387  -4.132   2.207  0.00  0.00    -0.039 C 
BRANCH  23  28
ATOM     24  C   UNL     1       0.626  -0.619   1.042  0.00  0.00    +0.121 A 
ATOM     25  C   UNL     1       1.202   0.139   2.051  0.00  0.00    +0.049 A 
ATOM     26  C   UNL     1       1.837  -0.485   3.107  0.00  0.00    +0.049 A 
ATOM     27  C   UNL     1       1.897  -1.870   3.159  0.00  0.00    +0.118 A 
ATOM     28  C   UNL     1       1.321  -2.628   2.151  0.00  0.00    -0.019 A 
ATOM     29  C   UNL     1       0.682  -2.003   1.097  0.00  0.00    +0.051 A 
BRANCH  24  31
ATOM     30  C   UNL     1      -0.017   1.425   0.010  0.00  0.00    +0.277 C 
ATOM     31  O   UNL     1       0.002  -0.004   0.002  0.00  0.00    -0.495 OA
ENDBRANCH  24  31
BRANCH  27  32
ATOM     32  O   UNL     1       2.522  -2.485   4.199  0.00  0.00    -0.507 OA
ATOM     33  H   UNL     1       1.942  -2.679   4.947  0.00  0.00    +0.292 HD
ENDBRANCH  27  32
ENDBRANCH  23  28
ENDBRANCH   1  23
TORSDOF 7
