REMARK  Name = ZINC63513938
REMARK  9 active torsions:
REMARK  status: ('A' for Active; 'I' for Inactive)
REMARK    1  A    between atoms: C_1  and  C_2
REMARK    2  A    between atoms: C_6  and  C_34
REMARK    3  A    between atoms: C_7  and  N_8
REMARK    4  A    between atoms: C_9  and  C_14
REMARK    5  A    between atoms: C_14  and  N_20
REMARK    6  A    between atoms: N_20  and  C_21
REMARK    7  A    between atoms: C_21  and  C_22
REMARK    8  A    between atoms: C_22  and  C_23
REMARK    9  A    between atoms: C_31  and  C_33
REMARK                            x       y       z     vdW  Elec       q    Type
REMARK                         _______ _______ _______ _____ _____    ______ ____
ROOT
ATOM      1  C   UNL     1       1.685   1.560   2.001  0.00  0.00    -0.036 C 
ATOM      2  C   UNL     1       0.787   2.769   1.730  0.00  0.00    -0.009 C 
ATOM      3  C   UNL     1       1.626   3.907   1.145  0.00  0.00    -0.001 C 
ATOM      4  C   UNL     1       2.720   4.297   2.141  0.00  0.00    -0.000 C 
ATOM      5  C   UNL     1       3.618   3.089   2.412  0.00  0.00    -0.001 C 
ATOM      6  C   UNL     1       2.779   1.951   2.996  0.00  0.00    -0.009 C 
ENDROOT
BRANCH   1   8
ATOM      7  N   UNL     1      -0.208   0.029   1.635  0.00  0.00    -0.265 N 
ATOM      8  C   UNL     1       0.846   0.422   2.585  0.00  0.00    +0.131 C 
ATOM      9  N   UNL     1       0.138   0.880   3.806  0.00  0.00    -0.330 NA
ATOM     10  N   UNL     1      -1.179   0.233   3.677  0.00  0.00    +0.410 N 
ATOM     11  N   UNL     1      -1.423   0.281   2.227  0.00  0.00    -0.266 NA
ATOM     12  H   UNL     1       0.615   0.569   4.639  0.00  0.00    +0.106 HD
ATOM     13  H   UNL     1      -1.142  -0.720   4.006  0.00  0.00    -0.031 HD
ATOM     14  H   UNL     1      -2.109  -0.407   1.953  0.00  0.00    +0.125 HD
ATOM     15  H   UNL     1      -1.885   0.757   4.174  0.00  0.00    -0.031 HD
BRANCH   7  22
ATOM     16  C   UNL     1      -1.030   1.579  -0.604  0.00  0.00    +0.046 C 
ATOM     17  C   UNL     1      -0.396   0.222  -0.763  0.00  0.00    -0.028 A 
ATOM     18  C   UNL     1      -0.193  -0.302  -2.025  0.00  0.00    +0.005 A 
ATOM     19  C   UNL     1       0.389  -1.548  -2.172  0.00  0.00    +0.001 A 
ATOM     20  C   UNL     1       0.770  -2.273  -1.057  0.00  0.00    +0.005 A 
ATOM     21  C   UNL     1       0.570  -1.754   0.207  0.00  0.00    -0.028 A 
ATOM     22  C   UNL     1      -0.009  -0.501   0.358  0.00  0.00    +0.050 A 
ATOM     23  C   UNL     1       0.986  -2.545   1.421  0.00  0.00    +0.046 C 
ENDBRANCH   7  22
ENDBRANCH   1   8
BRANCH   1  24
ATOM     24  N   UNL     1       2.303   1.117   0.743  0.00  0.00    +0.385 N 
ATOM     25  H   UNL     1       1.585   0.796   0.111  0.00  0.00    -0.085 HD
ATOM     26  H   UNL     1       2.801   1.888   0.324  0.00  0.00    -0.085 HD
BRANCH  24  27
ATOM     27  C   UNL     1       3.240   0.020   1.018  0.00  0.00    -0.077 C 
BRANCH  27  28
ATOM     28  C   UNL     1       3.880  -0.444  -0.292  0.00  0.00    +0.014 C 
BRANCH  28  29
ATOM     29  C   UNL     1       4.821  -1.587  -0.014  0.00  0.00    -0.041 C 
ATOM     30  C   UNL     1       5.069  -2.164   1.185  0.00  0.00    -0.001 A 
ATOM     31  C   UNL     1       4.556  -1.908   2.536  0.00  0.00    +0.010 A 
ATOM     32  C   UNL     1       5.002  -2.668   3.562  0.00  0.00    +0.001 A 
ATOM     33  C   UNL     1       5.940  -3.692   3.367  0.00  0.00    +0.002 A 
ATOM     34  C   UNL     1       6.457  -3.986   2.155  0.00  0.00    +0.026 A 
ATOM     35  C   UNL     1       6.058  -3.251   1.006  0.00  0.00    +0.043 A 
ATOM     36  N   UNL     1       6.409  -3.342  -0.254  0.00  0.00    -0.378 N 
ATOM     37  C   UNL     1       5.676  -2.327  -1.019  0.00  0.00    +0.103 C 
ATOM     38  C   UNL     1       6.659  -1.363  -1.686  0.00  0.00    +0.035 C 
ATOM     39  H   UNL     1       7.043  -3.978  -0.620  0.00  0.00    +0.160 HD
ENDBRANCH  28  29
ENDBRANCH  27  28
ENDBRANCH  24  27
ENDBRANCH   1  24
TORSDOF 6
