REMARK  Name = ZINC44118133
REMARK  9 active torsions:
REMARK  status: ('A' for Active; 'I' for Inactive)
REMARK    1  A    between atoms: C_1  and  N_2
REMARK    2  A    between atoms: N_2  and  C_3
REMARK    3  A    between atoms: N_2  and  C_4
REMARK    4  A    between atoms: C_4  and  C_6
REMARK    5  A    between atoms: C_4  and  C_26
REMARK    6  A    between atoms: C_6  and  N_7
REMARK    7  A    between atoms: N_10  and  C_11
REMARK    8  A    between atoms: C_14  and  N_17
REMARK    9  A    between atoms: C_18  and  C_20
REMARK                            x       y       z     vdW  Elec       q    Type
REMARK                         _______ _______ _______ _____ _____    ______ ____
ROOT
ATOM      1  N   UNL     1      -1.785   1.549  -1.142  0.00  0.00    -0.300 N 
ATOM      2  C   UNL     1      -2.275   2.276  -2.166  0.00  0.00    +0.304 C 
ATOM      3  O   UNL     1      -2.963   1.743  -3.015  0.00  0.00    -0.253 OA
ATOM      4  N   UNL     1      -2.002   3.593  -2.248  0.00  0.00    -0.269 N 
ATOM      5  H   UNL     1      -1.236   1.974  -0.465  0.00  0.00    +0.150 HD
ATOM      6  H   UNL     1      -1.392   4.003  -1.615  0.00  0.00    +0.156 HD
ENDROOT
BRANCH   4   7
ATOM      7  C   UNL     1      -2.601   4.371  -3.248  0.00  0.00    +0.035 A 
ATOM      8  C   UNL     1      -1.899   5.421  -3.824  0.00  0.00    +0.025 A 
ATOM      9  C   UNL     1      -2.489   6.188  -4.809  0.00  0.00    +0.025 A 
ATOM     10  C   UNL     1      -3.784   5.909  -5.223  0.00  0.00    +0.034 A 
ATOM     11  C   UNL     1      -4.487   4.859  -4.647  0.00  0.00    +0.025 A 
ATOM     12  C   UNL     1      -3.895   4.089  -3.666  0.00  0.00    +0.025 A 
BRANCH  10  13
ATOM     13  N   UNL     1      -4.383   6.688  -6.222  0.00  0.00    -0.283 N 
ATOM     14  C   UNL     1      -3.636   7.185  -7.228  0.00  0.00    +0.246 C 
ATOM     15  O   UNL     1      -2.465   6.883  -7.320  0.00  0.00    -0.273 OA
ATOM     16  H   UNL     1      -5.336   6.869  -6.190  0.00  0.00    +0.155 HD
BRANCH  14  17
ATOM     17  C   UNL     1      -4.256   8.117  -8.237  0.00  0.00    +0.204 C 
ATOM     18  C   UNL     1      -5.331   7.366  -9.052  0.00  0.00    +0.043 C 
ATOM     19  C   UNL     1      -5.116   7.931 -10.482  0.00  0.00    +0.031 C 
ATOM     20  C   UNL     1      -3.581   8.140 -10.488  0.00  0.00    +0.161 C 
ATOM     21  O   UNL     1      -3.256   8.573  -9.155  0.00  0.00    -0.367 OA
ENDBRANCH  14  17
ENDBRANCH  10  13
ENDBRANCH   4   7
BRANCH   1  22
ATOM     22  C   UNL     1      -2.081   0.117  -1.053  0.00  0.00    +0.095 C 
BRANCH  22  23
ATOM     23  C   UNL     1      -1.311  -0.491   0.121  0.00  0.00    -0.014 C 
BRANCH  23  24
ATOM     24  C   UNL     1      -1.822   0.093   1.413  0.00  0.00    -0.022 A 
ATOM     25  C   UNL     1      -1.293   1.087   2.169  0.00  0.00    +0.009 A 
ATOM     26  C   UNL     1      -1.942   1.463   3.330  0.00  0.00    +0.008 A 
ATOM     27  C   UNL     1      -3.088   0.828   3.679  0.00  0.00    +0.045 A 
ATOM     28  S   UNL     1      -3.285  -0.338   2.341  0.00  0.00    -0.103 S 
ENDBRANCH  23  24
BRANCH  23  30
ATOM     29  C   UNL     1      -0.907  -2.529  -1.077  0.00  0.00    -0.096 C 
ATOM     30  N   UNL     1      -1.504  -1.947   0.132  0.00  0.00    +0.382 N 
ATOM     31  C   UNL     1      -0.857  -2.518   1.321  0.00  0.00    -0.096 C 
ATOM     32  H   UNL     1      -2.491  -2.155   0.154  0.00  0.00    -0.082 HD
ENDBRANCH  23  30
ENDBRANCH  22  23
ENDBRANCH   1  22
TORSDOF 7
