REMARK  Name = ZINC14542489
REMARK  12 active torsions:
REMARK  status: ('A' for Active; 'I' for Inactive)
REMARK    1  A    between atoms: C_1  and  C_2
REMARK    2  A    between atoms: C_2  and  C_3
REMARK    3  A    between atoms: C_2  and  C_4
REMARK    4  A    between atoms: C_4  and  C_5
REMARK    5  A    between atoms: C_5  and  C_7
REMARK    6  A    between atoms: C_5  and  N_68
REMARK    7  A    between atoms: C_10  and  N_68
REMARK    8  A    between atoms: C_16  and  C_26
REMARK    9  A    between atoms: N_18  and  C_19
REMARK   10  A    between atoms: C_19  and  C_20
REMARK   11  A    between atoms: N_28  and  C_29
REMARK   12  A    between atoms: N_28  and  C_30
REMARK                            x       y       z     vdW  Elec       q    Type
REMARK                         _______ _______ _______ _____ _____    ______ ____
ROOT
ATOM      1  C   UNL     1      -3.747  -0.151   0.180  0.00  0.00    -0.066 C 
ATOM      2  C   UNL     1      -4.870  -0.153   1.221  0.00  0.00    -0.009 C 
ATOM      3  C   UNL     1      -5.383  -1.584   1.424  0.00  0.00    +0.054 C 
ATOM      4  C   UNL     1      -5.674  -2.180   0.070  0.00  0.00    +0.043 A 
ATOM      5  C   UNL     1      -5.206  -1.670  -1.096  0.00  0.00    +0.004 A 
ATOM      6  C   UNL     1      -5.703  -2.507  -2.109  0.00  0.00    +0.151 A 
ATOM      7  N   UNL     1      -6.417  -3.444  -1.510  0.00  0.00    -0.166 NA
ATOM      8  N   UNL     1      -6.406  -3.263  -0.235  0.00  0.00    -0.267 N 
ATOM      9  C   UNL     1      -4.333  -0.451  -1.206  0.00  0.00    +0.023 C 
ENDROOT
BRANCH   6  10
ATOM     10  C   UNL     1      -5.472  -2.366  -3.561  0.00  0.00    +0.267 C 
ATOM     11  O   UNL     1      -4.872  -1.400  -3.991  0.00  0.00    -0.268 OA
ATOM     12  N   UNL     1      -5.927  -3.309  -4.410  0.00  0.00    -0.302 N 
ATOM     13  C   UNL     1      -5.619  -3.217  -5.840  0.00  0.00    +0.132 C 
ATOM     14  C   UNL     1      -6.730  -4.425  -3.904  0.00  0.00    +0.132 C 
ENDBRANCH   6  10
BRANCH   1  15
ATOM     15  N   UNL     1      -3.100   1.174   0.156  0.00  0.00    +0.389 N 
ATOM     16  H   UNL     1      -2.625   1.303  -0.745  0.00  0.00    -0.084 HD
ATOM     17  H   UNL     1      -3.815   1.903   0.273  0.00  0.00    -0.084 HD
BRANCH  15  18
ATOM     18  C   UNL     1      -2.113   1.283   1.247  0.00  0.00    +0.016 C 
BRANCH  18  19
ATOM     19  C   UNL     1      -2.695   2.103   2.369  0.00  0.00    +0.196 C 
ATOM     20  O   UNL     1      -3.621   2.855   2.152  0.00  0.00    -0.278 OA
ATOM     21  N   UNL     1      -2.185   2.002   3.612  0.00  0.00    -0.331 N 
ATOM     22  H   UNL     1      -1.444   1.400   3.785  0.00  0.00    +0.145 HD
ATOM     23  H   UNL     1      -2.560   2.530   4.335  0.00  0.00    +0.145 HD
ENDBRANCH  18  19
BRANCH  18  24
ATOM     24  C   UNL     1      -0.850   1.965   0.717  0.00  0.00    -0.004 C 
BRANCH  24  26
ATOM     25  C   UNL     1       0.264  -0.210   0.198  0.00  0.00    +0.007 C 
ATOM     26  C   UNL     1      -0.235   1.110  -0.393  0.00  0.00    -0.018 C 
ATOM     27  C   UNL     1       0.937   1.862  -1.025  0.00  0.00    +0.007 C 
ENDBRANCH  24  26
ENDBRANCH  18  24
ENDBRANCH  15  18
ENDBRANCH   1  15
BRANCH   8  28
ATOM     28  C   UNL     1      -7.093  -4.115   0.740  0.00  0.00    +0.147 C 
BRANCH  28  29
ATOM     29  C   UNL     1      -8.509  -3.585   0.972  0.00  0.00    +0.010 C 
ATOM     30  C   UNL     1      -8.436  -2.202   1.623  0.00  0.00    +0.005 C 
ATOM     31  C   UNL     1      -9.853  -1.672   1.854  0.00  0.00    +0.000 C 
ATOM     32  C   UNL     1     -10.611  -2.630   2.775  0.00  0.00    +0.000 C 
ATOM     33  C   UNL     1     -10.684  -4.013   2.124  0.00  0.00    +0.000 C 
ATOM     34  C   UNL     1      -9.268  -4.542   1.893  0.00  0.00    +0.005 C 
ENDBRANCH  28  29
ENDBRANCH   8  28
TORSDOF 8
