REMARK  Name = ZINC43407023
REMARK  3 active torsions:
REMARK  status: ('A' for Active; 'I' for Inactive)
REMARK    1  A    between atoms: C_3  and  O_9
REMARK    2  A    between atoms: O_9  and  C_10
REMARK    3  A    between atoms: C_11  and  C_19
REMARK                            x       y       z     vdW  Elec       q    Type
REMARK                         _______ _______ _______ _____ _____    ______ ____
ROOT
ATOM      1  C   UNL     1       3.479   3.461  -0.241  0.00  0.00    +0.231 A 
ATOM      2  C   UNL     1       4.667   4.208  -0.238  0.00  0.00    +0.074 A 
ATOM      3  C   UNL     1       4.580   5.603  -0.207  0.00  0.00    +0.022 A 
ATOM      4  C   UNL     1       3.325   6.188  -0.181  0.00  0.00    -0.025 A 
ATOM      5  C   UNL     1       2.197   5.388  -0.186  0.00  0.00    +0.048 A 
ATOM      6  N   UNL     1       2.307   4.069  -0.221  0.00  0.00    -0.217 NA
ATOM      7  C   UNL     1       0.957   6.258  -0.154  0.00  0.00    +0.056 C 
ATOM      8  C   UNL     1       1.448   7.645   0.312  0.00  0.00    +0.011 C 
ATOM      9  C   UNL     1       2.922   7.646  -0.144  0.00  0.00    +0.037 C 
ENDROOT
BRANCH   2  10
ATOM     10  C   UNL     1       5.981   3.535  -0.266  0.00  0.00    +0.099 C 
ATOM     11  N   UNL     1       6.858   3.826  -1.225  0.00  0.00    -0.387 N 
ATOM     12  N   UNL     1       6.288   2.636   0.668  0.00  0.00    -0.344 N 
ATOM     13  H   UNL     1       6.607   4.422  -1.948  0.00  0.00    +0.157 HD
ATOM     14  H   UNL     1       5.650   2.424   1.367  0.00  0.00    +0.144 HD
ATOM     15  H   UNL     1       7.152   2.193   0.650  0.00  0.00    +0.144 HD
ATOM     16  H   UNL     1       7.749   3.442  -1.201  0.00  0.00    +0.157 HD
ENDBRANCH   2  10
BRANCH   1  17
ATOM     17  O   UNL     1       3.535   2.108  -0.271  0.00  0.00    -0.436 OA
BRANCH  17  20
ATOM     18  C   UNL     1       0.534   0.271   0.653  0.00  0.00    +0.005 A 
ATOM     19  C   UNL     1       1.723   0.967   0.763  0.00  0.00    +0.048 A 
ATOM     20  C   UNL     1       2.366   1.423  -0.378  0.00  0.00    +0.150 A 
ATOM     21  C   UNL     1       1.814   1.180  -1.628  0.00  0.00    +0.101 A 
ATOM     22  C   UNL     1       0.624   0.483  -1.733  0.00  0.00    +0.063 A 
ATOM     23  C   UNL     1      -0.015   0.029  -0.592  0.00  0.00    +0.022 A 
ATOM     24 CL   UNL     1      -0.069   0.178  -3.295  0.00  0.00    -0.082 Cl
ATOM     25 CL   UNL     1       2.616   1.751  -3.058  0.00  0.00    -0.078 Cl
ENDBRANCH  17  20
ENDBRANCH   1  17
TORSDOF 3
