REMARK  Name = ZINC44662810
REMARK  7 active torsions:
REMARK  status: ('A' for Active; 'I' for Inactive)
REMARK    1  A    between atoms: C_4  and  C_7
REMARK    2  A    between atoms: C_9  and  C_17
REMARK    3  A    between atoms: C_17  and  C_19
REMARK    4  A    between atoms: C_19  and  O_20
REMARK    5  A    between atoms: O_20  and  C_21
REMARK    6  A    between atoms: C_21  and  C_23
REMARK    7  A    between atoms: C_26  and  N_29
REMARK                            x       y       z     vdW  Elec       q    Type
REMARK                         _______ _______ _______ _____ _____    ______ ____
ROOT
ATOM      1  C   UNL     1       3.793  -0.430  -2.686  0.00  0.00    +0.199 C 
ATOM      2  O   UNL     1       3.562   0.762  -2.652  0.00  0.00    -0.289 OA
ENDROOT
BRANCH   1   4
ATOM      3  C   UNL     1       3.082  -0.760  -0.186  0.00  0.00    +0.144 C 
ATOM      4  C   UNL     1       3.585  -1.222  -1.536  0.00  0.00    +0.034 C 
ATOM      5  C   UNL     1       3.799  -2.582  -1.408  0.00  0.00    +0.007 A 
ATOM      6  C   UNL     1       4.260  -3.573  -2.306  0.00  0.00    +0.010 A 
ATOM      7  C   UNL     1       4.374  -4.858  -1.903  0.00  0.00    +0.001 A 
ATOM      8  C   UNL     1       4.048  -5.272  -0.602  0.00  0.00    +0.002 A 
ATOM      9  C   UNL     1       3.599  -4.406   0.332  0.00  0.00    +0.026 A 
ATOM     10  C   UNL     1       3.446  -2.985  -0.024  0.00  0.00    +0.044 A 
ATOM     11  N   UNL     1       3.042  -1.954   0.664  0.00  0.00    -0.373 N 
ATOM     12  H   UNL     1       2.760  -1.973   1.592  0.00  0.00    +0.161 HD
BRANCH   3  16
ATOM     13  C   UNL     1      -0.834   0.904  -0.569  0.00  0.00    +0.000 A 
ATOM     14  C   UNL     1       0.265   1.737  -0.471  0.00  0.00    +0.000 A 
ATOM     15  C   UNL     1       1.532   1.199  -0.347  0.00  0.00    +0.006 A 
ATOM     16  C   UNL     1       1.700  -0.173  -0.321  0.00  0.00    -0.021 A 
ATOM     17  C   UNL     1       0.602  -1.006  -0.418  0.00  0.00    +0.006 A 
ATOM     18  C   UNL     1      -0.665  -0.468  -0.543  0.00  0.00    +0.000 A 
ENDBRANCH   3  16
ENDBRANCH   1   4
BRANCH   1  19
ATOM     19  C   UNL     1       4.303  -1.063  -3.954  0.00  0.00    +0.311 C 
BRANCH  19  20
ATOM     20  O   UNL     1       4.431  -0.064  -4.968  0.00  0.00    -0.453 OA
BRANCH  20  21
ATOM     21  C   UNL     1       4.878  -0.468  -6.173  0.00  0.00    +0.340 C 
ATOM     22  O   UNL     1       5.153  -1.637  -6.358  0.00  0.00    -0.245 OA
BRANCH  21  23
ATOM     23  C   UNL     1       5.035   0.509  -7.266  0.00  0.00    +0.059 A 
ATOM     24  C   UNL     1       4.725   1.855  -7.053  0.00  0.00    +0.017 A 
ATOM     25  C   UNL     1       4.873   2.764  -8.076  0.00  0.00    +0.024 A 
ATOM     26  C   UNL     1       5.330   2.344  -9.322  0.00  0.00    +0.035 A 
ATOM     27  C   UNL     1       5.639   1.004  -9.538  0.00  0.00    +0.024 A 
ATOM     28  C   UNL     1       5.500   0.091  -8.518  0.00  0.00    +0.017 A 
BRANCH  26  29
ATOM     29  N   UNL     1       5.479   3.267 -10.356  0.00  0.00    -0.270 N 
ATOM     30  C   UNL     1       5.849   4.534 -10.080  0.00  0.00    +0.301 C 
ATOM     31  O   UNL     1       6.147   4.846  -8.944  0.00  0.00    -0.253 OA
ATOM     32  N   UNL     1       5.889   5.453 -11.065  0.00  0.00    -0.313 N 
ATOM     33  H   UNL     1       5.316   2.998 -11.273  0.00  0.00    +0.156 HD
ATOM     34  H   UNL     1       5.651   5.204 -11.971  0.00  0.00    +0.146 HD
ATOM     35  H   UNL     1       6.155   6.365 -10.867  0.00  0.00    +0.146 HD
ENDBRANCH  26  29
ENDBRANCH  21  23
ENDBRANCH  20  21
ENDBRANCH  19  20
ENDBRANCH   1  19
TORSDOF 7
