REMARK  Name = ZINC20436939
REMARK  7 active torsions:
REMARK  status: ('A' for Active; 'I' for Inactive)
REMARK    1  A    between atoms: C_1  and  C_2
REMARK    2  A    between atoms: C_4  and  C_35
REMARK    3  A    between atoms: C_6  and  N_8
REMARK    4  A    between atoms: N_8  and  C_9
REMARK    5  A    between atoms: C_9  and  C_10
REMARK    6  A    between atoms: N_12  and  C_13
REMARK    7  A    between atoms: C_17  and  C_19
REMARK                            x       y       z     vdW  Elec       q    Type
REMARK                         _______ _______ _______ _____ _____    ______ ____
ROOT
ATOM      1  N   UNL     1      -0.631   4.244   8.043  0.00  0.00    -0.273 N 
ATOM      2  C   UNL     1      -0.864   5.601   8.081  0.00  0.00    +0.136 C 
ATOM      3  N   UNL     1      -0.307   6.510   7.344  0.00  0.00    -0.362 N 
ATOM      4  C   UNL     1      -0.618   7.919   7.493  0.00  0.00    +0.117 C 
ATOM      5  C   UNL     1       0.690   8.697   7.767  0.00  0.00    +0.191 C 
ATOM      6  S   UNL     1       0.111  10.040   8.886  0.00  0.00    -0.028 S 
ATOM      7  O   UNL     1      -0.469  11.095   8.131  0.00  0.00    -0.174 OA
ATOM      8  O   UNL     1       1.136  10.327   9.828  0.00  0.00    -0.174 OA
ATOM      9  C   UNL     1      -1.226   9.073   9.714  0.00  0.00    +0.182 C 
ATOM     10  C   UNL     1      -1.696   8.173   8.557  0.00  0.00    +0.099 C 
ATOM     11  S   UNL     1      -1.999   6.466   9.149  0.00  0.00    -0.085 S 
ATOM     12  H   UNL     1       0.427   6.222   6.577  0.00  0.00    +0.162 HD
ENDROOT
BRANCH   1  18
ATOM     13  C   UNL     1      -0.232   1.138  11.832  0.00  0.00    +0.044 C 
ATOM     14  C   UNL     1      -1.071   1.885  10.828  0.00  0.00    -0.048 A 
ATOM     15  C   UNL     1      -2.446   1.740  10.833  0.00  0.00    +0.006 A 
ATOM     16  C   UNL     1      -3.220   2.425   9.914  0.00  0.00    -0.048 A 
ATOM     17  C   UNL     1      -2.621   3.256   8.987  0.00  0.00    +0.027 A 
ATOM     18  C   UNL     1      -1.240   3.404   8.980  0.00  0.00    +0.037 A 
ATOM     19  C   UNL     1      -0.466   2.710   9.901  0.00  0.00    +0.027 A 
ATOM     20  C   UNL     1      -4.718   2.263   9.923  0.00  0.00    +0.044 C 
ENDBRANCH   1  18
BRANCH   1  21
ATOM     21  C   UNL     1       0.256   3.682   7.021  0.00  0.00    +0.208 C 
BRANCH  21  22
ATOM     22  C   UNL     1      -0.550   3.323   5.799  0.00  0.00    +0.235 C 
ATOM     23  O   UNL     1      -1.747   3.518   5.784  0.00  0.00    -0.274 OA
ATOM     24  N   UNL     1       0.059   2.785   4.724  0.00  0.00    -0.284 N 
ATOM     25  H   UNL     1       1.130   2.539   4.764  0.00  0.00    +0.155 HD
BRANCH  24  26
ATOM     26  C   UNL     1      -0.671   2.540   3.556  0.00  0.00    +0.034 A 
ATOM     27  C   UNL     1      -1.999   2.138   3.637  0.00  0.00    +0.023 A 
ATOM     28  C   UNL     1      -2.717   1.897   2.482  0.00  0.00    +0.002 A 
ATOM     29  C   UNL     1      -2.118   2.060   1.246  0.00  0.00    +0.012 A 
ATOM     30  C   UNL     1      -0.795   2.455   1.163  0.00  0.00    +0.057 A 
ATOM     31  C   UNL     1      -0.071   2.698   2.314  0.00  0.00    +0.035 A 
BRANCH  30  32
ATOM     32  C   UNL     1      -0.145   2.627  -0.186  0.00  0.00    +0.417 C 
ATOM     33  F   UNL     1       0.441   1.419  -0.579  0.00  0.00    -0.166 F 
ATOM     34  F   UNL     1       0.840   3.618  -0.106  0.00  0.00    -0.166 F 
ATOM     35  F   UNL     1      -1.111   3.005  -1.125  0.00  0.00    -0.166 F 
ENDBRANCH  30  32
ENDBRANCH  24  26
ENDBRANCH  21  22
ENDBRANCH   1  21
TORSDOF 5
