REMARK  Name = ZINC03112794
REMARK  12 active torsions:
REMARK  status: ('A' for Active; 'I' for Inactive)
REMARK    1  A    between atoms: C_1  and  C_2
REMARK    2  A    between atoms: C_2  and  C_3
REMARK    3  A    between atoms: C_3  and  O_4
REMARK    4  A    between atoms: O_4  and  C_5
REMARK    5  A    between atoms: C_8  and  C_11
REMARK    6  A    between atoms: C_12  and  C_13
REMARK    7  A    between atoms: C_12  and  N_26
REMARK    8  A    between atoms: N_15  and  N_16
REMARK    9  A    between atoms: C_17  and  C_18
REMARK   10  A    between atoms: C_21  and  O_25
REMARK   11  A    between atoms: C_22  and  O_24
REMARK   12  A    between atoms: C_27  and  C_29
REMARK                            x       y       z     vdW  Elec       q    Type
REMARK                         _______ _______ _______ _____ _____    ______ ____
ROOT
ATOM      1  C   UNL     1      -2.241  -2.610  -0.069  0.00  0.00    +0.036 C 
ATOM      2  C   UNL     1      -0.991  -2.089  -0.056  0.00  0.00    +0.098 C 
ENDROOT
BRANCH   1   6
ATOM      3  C   UNL     1      -5.605  -0.043  -0.356  0.00  0.00    +0.121 A 
ATOM      4  C   UNL     1      -5.702  -1.362  -0.784  0.00  0.00    +0.046 A 
ATOM      5  C   UNL     1      -4.613  -2.200  -0.693  0.00  0.00    +0.011 A 
ATOM      6  C   UNL     1      -3.406  -1.721  -0.169  0.00  0.00    -0.023 A 
ATOM      7  C   UNL     1      -3.316  -0.393   0.266  0.00  0.00    +0.011 A 
ATOM      8  C   UNL     1      -4.410   0.437   0.166  0.00  0.00    +0.046 A 
BRANCH   3   9
ATOM      9  O   UNL     1      -6.682   0.778  -0.448  0.00  0.00    -0.492 OA
BRANCH   9  10
ATOM     10  C   UNL     1      -6.514   2.122   0.010  0.00  0.00    +0.229 C 
BRANCH  10  12
ATOM     11  C   UNL     1      -7.645   4.328   0.318  0.00  0.00    +0.007 C 
ATOM     12  C   UNL     1      -7.825   2.890  -0.172  0.00  0.00    +0.038 C 
ENDBRANCH  10  12
ENDBRANCH   9  10
ENDBRANCH   3   9
ENDBRANCH   1   6
BRANCH   2  13
ATOM     13  C   UNL     1       0.164  -2.958   0.204  0.00  0.00    +0.277 C 
ATOM     14  O   UNL     1      -0.005  -4.138   0.449  0.00  0.00    -0.267 OA
ATOM     15  N   UNL     1       1.411  -2.449   0.170  0.00  0.00    -0.202 N 
ATOM     16  H   UNL     1       1.543  -1.496   0.046  0.00  0.00    +0.178 HD
BRANCH  15  17
ATOM     17  N   UNL     1       2.518  -3.296   0.315  0.00  0.00    -0.187 NA
ATOM     18  C   UNL     1       3.720  -2.806   0.283  0.00  0.00    +0.138 C 
BRANCH  18  19
ATOM     19  C   UNL     1       4.884  -3.697   0.435  0.00  0.00    -0.002 A 
ATOM     20  C   UNL     1       4.696  -5.069   0.620  0.00  0.00    +0.013 A 
ATOM     21  C   UNL     1       5.786  -5.902   0.756  0.00  0.00    +0.050 A 
ATOM     22  C   UNL     1       7.071  -5.380   0.722  0.00  0.00    +0.158 A 
ATOM     23  C   UNL     1       7.266  -4.012   0.544  0.00  0.00    +0.159 A 
ATOM     24  C   UNL     1       6.178  -3.171   0.401  0.00  0.00    +0.058 A 
BRANCH  23  25
ATOM     25  O   UNL     1       8.527  -3.503   0.511  0.00  0.00    -0.503 OA
ATOM     26  H   UNL     1       8.867  -3.239   1.377  0.00  0.00    +0.292 HD
ENDBRANCH  23  25
BRANCH  22  27
ATOM     27  O   UNL     1       8.142  -6.205   0.862  0.00  0.00    -0.503 OA
ATOM     28  H   UNL     1       8.427  -6.326   1.778  0.00  0.00    +0.292 HD
ENDBRANCH  22  27
ENDBRANCH  18  19
ENDBRANCH  15  17
ENDBRANCH   2  13
BRANCH   2  29
ATOM     29  N   UNL     1      -0.799  -0.724  -0.291  0.00  0.00    -0.277 N 
ATOM     30  C   UNL     1      -0.198   0.043   0.641  0.00  0.00    +0.248 C 
ATOM     31  O   UNL     1       0.089  -0.430   1.724  0.00  0.00    -0.270 OA
ATOM     32  H   UNL     1      -1.100  -0.328  -1.124  0.00  0.00    +0.155 HD
BRANCH  30  33
ATOM     33  C   UNL     1       0.113   1.457   0.346  0.00  0.00    +0.037 A 
ATOM     34  C   UNL     1      -0.209   2.001  -0.898  0.00  0.00    +0.013 A 
ATOM     35  C   UNL     1       0.078   3.324  -1.165  0.00  0.00    +0.001 A 
ATOM     36  C   UNL     1       0.696   4.107  -0.206  0.00  0.00    +0.000 A 
ATOM     37  C   UNL     1       1.024   3.573   1.027  0.00  0.00    +0.001 A 
ATOM     38  C   UNL     1       0.737   2.253   1.308  0.00  0.00    +0.013 A 
ENDBRANCH  30  33
ENDBRANCH   2  29
TORSDOF 11
