REMARK  Name = ZINC29484026
REMARK  6 active torsions:
REMARK  status: ('A' for Active; 'I' for Inactive)
REMARK    1  A    between atoms: C_1  and  N_2
REMARK    2  A    between atoms: N_2  and  C_3
REMARK    3  A    between atoms: N_2  and  C_15
REMARK    4  A    between atoms: C_3  and  C_4
REMARK    5  A    between atoms: N_6  and  C_7
REMARK    6  A    between atoms: C_8  and  C_12
REMARK                            x       y       z     vdW  Elec       q    Type
REMARK                         _______ _______ _______ _____ _____    ______ ____
ROOT
ATOM      1  C   UNL     1      -3.258  -0.108  -3.431  0.00  0.00    +0.201 C 
ATOM      2  O   UNL     1      -3.323  -1.151  -2.814  0.00  0.00    -0.278 OA
ATOM      3  N   UNL     1      -3.921   0.028  -4.596  0.00  0.00    -0.281 N 
ATOM      4  H   UNL     1      -3.862   0.974  -5.155  0.00  0.00    +0.155 HD
ENDROOT
BRANCH   3   5
ATOM      5  C   UNL     1      -4.677  -1.024  -5.091  0.00  0.00    +0.084 A 
ATOM      6  C   UNL     1      -5.424  -1.075  -6.262  0.00  0.00    +0.065 A 
ATOM      7  C   UNL     1      -6.121  -2.309  -6.534  0.00  0.00    +0.022 A 
ATOM      8  C   UNL     1      -5.988  -3.300  -5.635  0.00  0.00    +0.048 A 
ATOM      9  S   UNL     1      -4.915  -2.595  -4.402  0.00  0.00    -0.081 S 
BRANCH   6  10
ATOM     10  C   UNL     1      -5.500   0.070  -7.176  0.00  0.00    +0.244 C 
ATOM     11  O   UNL     1      -4.901   1.097  -6.916  0.00  0.00    -0.270 OA
ATOM     12  N   UNL     1      -6.234  -0.016  -8.303  0.00  0.00    -0.325 N 
ATOM     13  H   UNL     1      -6.291   0.843  -8.988  0.00  0.00    +0.145 HD
ATOM     14  H   UNL     1      -6.776  -0.944  -8.537  0.00  0.00    +0.145 HD
ENDBRANCH   6  10
ENDBRANCH   3   5
BRANCH   1  15
ATOM     15  C   UNL     1      -2.436   1.035  -2.894  0.00  0.00    +0.019 C 
BRANCH  15  17
ATOM     16  C   UNL     1      -2.838   0.424  -0.585  0.00  0.00    -0.095 C 
ATOM     17  N   UNL     1      -1.818   0.638  -1.621  0.00  0.00    +0.388 N 
ATOM     18  H   UNL     1      -1.294  -0.316  -1.782  0.00  0.00    -0.081 HD
BRANCH  17  19
ATOM     19  C   UNL     1      -0.826   1.630  -1.186  0.00  0.00    -0.037 C 
ATOM     20  C   UNL     1      -0.013   1.086   0.008  0.00  0.00    -0.006 C 
ATOM     21  C   UNL     1      -0.803   1.617   1.223  0.00  0.00    +0.034 C 
ATOM     22  C   UNL     1      -1.505   2.864   0.720  0.00  0.00    -0.046 A 
ATOM     23  C   UNL     1      -1.516   2.872  -0.662  0.00  0.00    -0.058 A 
ATOM     24  C   UNL     1      -2.106   3.924  -1.341  0.00  0.00    +0.002 A 
ATOM     25  C   UNL     1      -2.683   4.966  -0.642  0.00  0.00    +0.000 A 
ATOM     26  C   UNL     1      -2.673   4.958   0.740  0.00  0.00    +0.000 A 
ATOM     27  C   UNL     1      -2.084   3.909   1.420  0.00  0.00    +0.004 A 
ENDBRANCH  17  19
ENDBRANCH  15  17
ENDBRANCH   1  15
TORSDOF 5
