REMARK  Name = ZINC36698866
REMARK  12 active torsions:
REMARK  status: ('A' for Active; 'I' for Inactive)
REMARK    1  A    between atoms: C_1  and  C_2
REMARK    2  A    between atoms: C_2  and  C_3
REMARK    3  A    between atoms: N_9  and  S_10
REMARK    4  A    between atoms: S_10  and  C_13
REMARK    5  A    between atoms: C_16  and  C_19
REMARK    6  A    between atoms: N_21  and  C_22
REMARK    7  A    between atoms: C_22  and  C_23
REMARK    8  A    between atoms: C_23  and  N_24
REMARK    9  A    between atoms: N_24  and  C_25
REMARK   10  A    between atoms: N_24  and  C_26
REMARK   11  A    between atoms: C_31  and  C_37
REMARK   12  A    between atoms: C_32  and  C_36
REMARK                            x       y       z     vdW  Elec       q    Type
REMARK                         _______ _______ _______ _____ _____    ______ ____
ROOT
ATOM      1  C   UNL     1      -6.224  -2.885   1.537  0.00  0.00    +0.252 C 
ATOM      2  O   UNL     1      -6.598  -3.138   0.408  0.00  0.00    -0.270 OA
ATOM      3  N   UNL     1      -6.945  -3.303   2.596  0.00  0.00    -0.248 N 
ATOM      4  C   UNL     1      -8.031  -4.140   2.406  0.00  0.00    +0.168 A 
ATOM      5  N   UNL     1      -8.850  -4.642   3.301  0.00  0.00    -0.224 NA
ATOM      6  C   UNL     1      -9.879  -5.453   2.970  0.00  0.00    +0.081 A 
ATOM      7  C   UNL     1     -10.826  -6.056   3.829  0.00  0.00    +0.032 A 
ATOM      8  C   UNL     1     -11.816  -6.860   3.326  0.00  0.00    -0.045 A 
ATOM      9  C   UNL     1     -11.925  -7.109   1.966  0.00  0.00    -0.046 A 
ATOM     10  C   UNL     1     -11.016  -6.535   1.097  0.00  0.00    +0.021 A 
ATOM     11  C   UNL     1     -10.021  -5.729   1.591  0.00  0.00    +0.041 A 
ATOM     12  S   UNL     1      -8.681  -4.806   0.880  0.00  0.00    -0.052 S 
ATOM     13  C   UNL     1     -13.024  -7.997   1.441  0.00  0.00    +0.044 C 
ATOM     14  C   UNL     1     -12.807  -7.487   4.272  0.00  0.00    +0.044 C 
ENDROOT
BRANCH   1  18
ATOM     15  C   UNL     1      -2.641  -0.686   2.144  0.00  0.00    +0.106 A 
ATOM     16  C   UNL     1      -3.729  -0.471   2.971  0.00  0.00    +0.029 A 
ATOM     17  C   UNL     1      -4.896  -1.182   2.779  0.00  0.00    +0.015 A 
ATOM     18  C   UNL     1      -4.977  -2.120   1.748  0.00  0.00    +0.037 A 
ATOM     19  C   UNL     1      -3.875  -2.332   0.917  0.00  0.00    +0.015 A 
ATOM     20  C   UNL     1      -2.716  -1.610   1.117  0.00  0.00    +0.029 A 
BRANCH  15  21
ATOM     21  S   UNL     1      -1.155   0.226   2.396  0.00  0.00    +0.061 S 
ATOM     22  O   UNL     1      -0.086  -0.623   2.002  0.00  0.00    -0.153 OA
ATOM     23  O   UNL     1      -1.240   0.789   3.698  0.00  0.00    -0.153 OA
BRANCH  21  29
ATOM     24  C   UNL     1      -1.938   2.711   1.626  0.00  0.00    +0.080 C 
ATOM     25  C   UNL     1      -2.872   3.007   0.449  0.00  0.00    +0.021 C 
ATOM     26  C   UNL     1      -2.053   3.079  -0.842  0.00  0.00    +0.003 C 
ATOM     27  C   UNL     1      -1.373   1.730  -1.092  0.00  0.00    +0.017 C 
ATOM     28  C   UNL     1      -0.422   1.419   0.068  0.00  0.00    +0.110 C 
ATOM     29  N   UNL     1      -1.171   1.493   1.330  0.00  0.00    -0.174 NA
BRANCH  24  31
ATOM     30  C   UNL     1      -3.641   3.729   3.144  0.00  0.00    +0.005 C 
ATOM     31  C   UNL     1      -2.764   2.500   2.896  0.00  0.00    +0.017 C 
ENDBRANCH  24  31
ENDBRANCH  21  29
ENDBRANCH  15  21
ENDBRANCH   1  18
BRANCH   3  32
ATOM     32  C   UNL     1      -6.580  -2.871   3.947  0.00  0.00    +0.097 C 
BRANCH  32  33
ATOM     33  C   UNL     1      -7.480  -1.709   4.372  0.00  0.00    -0.060 C 
BRANCH  33  34
ATOM     34  N   UNL     1      -7.024  -1.184   5.666  0.00  0.00    +0.377 N 
ATOM     35  C   UNL     1      -7.811   0.006   6.016  0.00  0.00    -0.097 C 
ATOM     36  C   UNL     1      -7.202  -2.211   6.701  0.00  0.00    -0.097 C 
ATOM     37  H   UNL     1      -6.048  -0.936   5.603  0.00  0.00    -0.083 HD
ENDBRANCH  33  34
ENDBRANCH  32  33
ENDBRANCH   3  32
TORSDOF 7
