REMARK  Name = ZINC20027901
REMARK  8 active torsions:
REMARK  status: ('A' for Active; 'I' for Inactive)
REMARK    1  A    between atoms: C_1  and  C_2
REMARK    2  A    between atoms: C_2  and  C_3
REMARK    3  A    between atoms: C_3  and  C_5
REMARK    4  A    between atoms: C_3  and  C_6
REMARK    5  A    between atoms: C_11  and  O_12
REMARK    6  A    between atoms: O_12  and  C_13
REMARK    7  A    between atoms: C_13  and  C_14
REMARK    8  A    between atoms: C_17  and  C_21
REMARK                            x       y       z     vdW  Elec       q    Type
REMARK                         _______ _______ _______ _____ _____    ______ ____
ROOT
ATOM      1  C   UNL     1       1.177   1.782   0.000  0.00  0.00    +0.025 A 
ATOM      2  C   UNL     1      -0.013   1.076   0.008  0.00  0.00    +0.010 A 
ATOM      3  C   UNL     1      -1.218   1.748   0.017  0.00  0.00    +0.012 A 
ATOM      4  C   UNL     1      -1.236   3.142   0.031  0.00  0.00    +0.015 A 
ATOM      5  C   UNL     1      -0.036   3.851   0.023  0.00  0.00    +0.050 A 
ATOM      6  C   UNL     1       1.166   3.167   0.007  0.00  0.00    +0.130 A 
ATOM      7  F   UNL     1       2.331   3.851   0.000  0.00  0.00    -0.205 F 
ENDROOT
BRANCH   4   8
ATOM      8  C   UNL     1      -2.527   3.868   0.047  0.00  0.00    +0.094 C 
ATOM      9  N   UNL     1      -2.542   5.170   0.054  0.00  0.00    -0.387 N 
ATOM     10  N   UNL     1      -3.712   3.166   0.055  0.00  0.00    -0.345 N 
ATOM     11  H   UNL     1      -3.501   5.709   0.066  0.00  0.00    +0.157 HD
ATOM     12  H   UNL     1      -4.671   3.704   0.067  0.00  0.00    +0.144 HD
ATOM     13  H   UNL     1      -3.700   2.066   0.049  0.00  0.00    +0.144 HD
ATOM     14  H   UNL     1      -1.596   5.731   0.047  0.00  0.00    +0.157 HD
ENDBRANCH   4   8
BRANCH   1  15
ATOM     15  C   UNL     1       2.489   1.042  -0.016  0.00  0.00    +0.267 C 
BRANCH  15  16
ATOM     16  O   UNL     1       2.242  -0.366  -0.021  0.00  0.00    -0.487 OA
BRANCH  16  22
ATOM     17  C   UNL     1       3.162  -2.560  -0.042  0.00  0.00    -0.003 A 
ATOM     18  C   UNL     1       4.267  -3.388  -0.057  0.00  0.00    +0.007 A 
ATOM     19  C   UNL     1       5.539  -2.846  -0.066  0.00  0.00    +0.001 A 
ATOM     20  C   UNL     1       5.708  -1.473  -0.061  0.00  0.00    +0.004 A 
ATOM     21  C   UNL     1       4.605  -0.641  -0.051  0.00  0.00    +0.046 A 
ATOM     22  C   UNL     1       3.328  -1.183  -0.036  0.00  0.00    +0.124 A 
BRANCH  17  23
ATOM     23  C   UNL     1       1.776  -3.152  -0.032  0.00  0.00    +0.019 C 
ATOM     24  C   UNL     1       1.579  -4.009  -1.284  0.00  0.00    +0.012 C 
BRANCH  23  26
ATOM     25  C   UNL     1       0.158  -4.522   1.289  0.00  0.00    +0.004 C 
ATOM     26  C   UNL     1       1.601  -4.022   1.214  0.00  0.00    +0.004 C 
ENDBRANCH  23  26
ENDBRANCH  17  23
ENDBRANCH  16  22
ENDBRANCH  15  16
ENDBRANCH   1  15
TORSDOF 6
