REMARK  Name = ZINC42183355
REMARK  13 active torsions:
REMARK  status: ('A' for Active; 'I' for Inactive)
REMARK    1  A    between atoms: C_1  and  C_2
REMARK    2  A    between atoms: C_2  and  C_3
REMARK    3  A    between atoms: N_5  and  C_6
REMARK    4  A    between atoms: C_9  and  C_12
REMARK    5  A    between atoms: C_12  and  C_14
REMARK    6  A    between atoms: C_12  and  N_15
REMARK    7  A    between atoms: N_15  and  C_16
REMARK    8  A    between atoms: C_16  and  C_18
REMARK    9  A    between atoms: C_16  and  C_19
REMARK   10  A    between atoms: N_21  and  C_22
REMARK   11  A    between atoms: C_27  and  C_28
REMARK   12  A    between atoms: C_28  and  C_29
REMARK   13  A    between atoms: C_28  and  C_30
REMARK                            x       y       z     vdW  Elec       q    Type
REMARK                         _______ _______ _______ _____ _____    ______ ____
ROOT
ATOM      1  N   UNL     1       2.627  -4.677   6.788  0.00  0.00    +0.391 N 
ATOM      2  H   UNL     1       1.640  -4.489   6.884  0.00  0.00    -0.084 HD
ATOM      3  H   UNL     1       2.762  -5.438   6.140  0.00  0.00    -0.084 HD
ENDROOT
BRANCH   1   4
ATOM      4  C   UNL     1       3.307  -3.477   6.282  0.00  0.00    -0.043 C 
ATOM      5  C   UNL     1       4.779  -3.798   6.017  0.00  0.00    -0.009 C 
BRANCH   4   9
ATOM      6  C   UNL     1       1.448  -2.213   2.646  0.00  0.00    +0.033 A 
ATOM      7  C   UNL     1       1.859  -1.272   3.582  0.00  0.00    +0.023 A 
ATOM      8  C   UNL     1       2.459  -1.684   4.755  0.00  0.00    +0.004 A 
ATOM      9  C   UNL     1       2.651  -3.031   5.000  0.00  0.00    -0.062 A 
ATOM     10  C   UNL     1       2.244  -3.970   4.070  0.00  0.00    +0.004 A 
ATOM     11  C   UNL     1       1.638  -3.566   2.897  0.00  0.00    +0.023 A 
BRANCH   6  14
ATOM     12  C   UNL     1      -0.144  -2.541   0.909  0.00  0.00    +0.217 C 
ATOM     13  O   UNL     1      -0.445  -3.607   1.401  0.00  0.00    -0.275 OA
ATOM     14  N   UNL     1       0.840  -1.799   1.456  0.00  0.00    -0.286 N 
ATOM     15  H   UNL     1       1.126  -0.979   1.025  0.00  0.00    +0.155 HD
BRANCH  12  17
ATOM     16  C   UNL     1      -1.930  -3.067  -0.729  0.00  0.00    +0.013 C 
ATOM     17  C   UNL     1      -0.870  -2.044  -0.315  0.00  0.00    +0.093 C 
ENDBRANCH  12  17
ENDBRANCH   6  14
ENDBRANCH   4   9
ENDBRANCH   1   4
BRANCH   1  18
ATOM     18  C   UNL     1       3.187  -5.041   8.096  0.00  0.00    +0.014 C 
ATOM     19  C   UNL     1       2.872  -3.940   9.110  0.00  0.00    -0.004 C 
BRANCH  18  20
ATOM     20  C   UNL     1       2.577  -6.339   8.559  0.00  0.00    +0.203 C 
ATOM     21  O   UNL     1       1.757  -6.905   7.867  0.00  0.00    -0.277 OA
ATOM     22  N   UNL     1       2.943  -6.872   9.742  0.00  0.00    -0.287 N 
ATOM     23  H   UNL     1       3.548  -6.387  10.325  0.00  0.00    +0.155 HD
BRANCH  22  24
ATOM     24  C   UNL     1       2.450  -8.123  10.128  0.00  0.00    +0.037 A 
ATOM     25  C   UNL     1       1.159  -8.500   9.781  0.00  0.00    +0.023 A 
ATOM     26  C   UNL     1       0.676  -9.736  10.164  0.00  0.00    +0.002 A 
ATOM     27  C   UNL     1       1.475 -10.597  10.893  0.00  0.00    +0.000 A 
ATOM     28  C   UNL     1       2.760 -10.224  11.241  0.00  0.00    +0.006 A 
ATOM     29  C   UNL     1       3.252  -8.992  10.855  0.00  0.00    -0.024 A 
BRANCH  29  30
ATOM     30  C   UNL     1       4.655  -8.590  11.229  0.00  0.00    +0.015 C 
ATOM     31  C   UNL     1       4.834  -8.707  12.744  0.00  0.00    +0.012 C 
ATOM     32  C   UNL     1       5.654  -9.510  10.525  0.00  0.00    +0.012 C 
ENDBRANCH  29  30
ENDBRANCH  22  24
ENDBRANCH  18  20
ENDBRANCH   1  18
TORSDOF 8
