REMARK  Name = ZINC62535055
REMARK  2 active torsions:
REMARK  status: ('A' for Active; 'I' for Inactive)
REMARK    1  A    between atoms: C_8  and  C_13
REMARK    2  A    between atoms: C_13  and  N_14
REMARK                            x       y       z     vdW  Elec       q    Type
REMARK                         _______ _______ _______ _____ _____    ______ ____
ROOT
ATOM      1  C   UNL     1      -0.017   1.380   0.010  0.00  0.00    +0.067 A 
ATOM      2  C   UNL     1       1.173   2.087   0.002  0.00  0.00    +0.046 A 
ATOM      3  C   UNL     1       2.382   1.415  -0.015  0.00  0.00    +0.042 A 
ATOM      4  C   UNL     1       2.408   0.031  -0.018  0.00  0.00    +0.067 A 
ATOM      5  C   UNL     1       1.220  -0.682   0.000  0.00  0.00    +0.094 A 
ATOM      6  C   UNL     1       0.002  -0.004   0.002  0.00  0.00    +0.145 A 
ATOM      7  O   UNL     1      -1.161  -0.708  -0.023  0.00  0.00    -0.480 OA
ATOM      8  C   UNL     1      -1.163  -1.981   0.627  0.00  0.00    +0.242 C 
ATOM      9  C   UNL     1       0.077  -2.749   0.242  0.00  0.00    +0.256 C 
ATOM     10  O   UNL     1       0.040  -3.957   0.147  0.00  0.00    -0.271 OA
ATOM     11  N   UNL     1       1.227  -2.084   0.004  0.00  0.00    -0.278 N 
ATOM     12 CL   UNL     1       3.926  -0.811  -0.045  0.00  0.00    -0.081 Cl
ATOM     13 CL   UNL     1       1.149   3.823   0.014  0.00  0.00    -0.083 Cl
ATOM     14  H   UNL     1       2.049  -2.571  -0.163  0.00  0.00    +0.155 HD
ENDROOT
BRANCH   8  15
ATOM     15  C   UNL     1      -1.186  -1.779   2.143  0.00  0.00    -0.032 C 
BRANCH  15  16
ATOM     16  N   UNL     1      -2.451  -1.141   2.533  0.00  0.00    +0.381 N 
ATOM     17  H   UNL     1      -2.532  -0.247   2.073  0.00  0.00    -0.090 HD
ATOM     18  H   UNL     1      -3.223  -1.731   2.261  0.00  0.00    -0.090 HD
ATOM     19  H   UNL     1      -2.466  -1.008   3.533  0.00  0.00    -0.090 HD
ENDBRANCH  15  16
ENDBRANCH   8  15
TORSDOF 2
