REMARK  Name = ZINC13536184
REMARK  7 active torsions:
REMARK  status: ('A' for Active; 'I' for Inactive)
REMARK    1  A    between atoms: C_1  and  C_2
REMARK    2  A    between atoms: C_2  and  C_3
REMARK    3  A    between atoms: C_3  and  C_4
REMARK    4  A    between atoms: C_4  and  N_5
REMARK    5  A    between atoms: N_14  and  C_15
REMARK    6  A    between atoms: C_15  and  C_16
REMARK    7  A    between atoms: C_21  and  O_22
REMARK                            x       y       z     vdW  Elec       q    Type
REMARK                         _______ _______ _______ _____ _____    ______ ____
ROOT
ATOM      1  N   UNL     1       1.425  -2.500  -2.470  0.00  0.00    -0.313 N 
ATOM      2  C   UNL     1       0.839  -2.770  -3.697  0.00  0.00    +0.068 A 
ATOM      3  C   UNL     1      -0.460  -2.701  -4.178  0.00  0.00    +0.028 A 
ATOM      4  C   UNL     1      -0.727  -3.048  -5.486  0.00  0.00    +0.002 A 
ATOM      5  C   UNL     1       0.296  -3.466  -6.324  0.00  0.00    +0.002 A 
ATOM      6  C   UNL     1       1.591  -3.541  -5.863  0.00  0.00    +0.028 A 
ATOM      7  C   UNL     1       1.878  -3.192  -4.541  0.00  0.00    +0.065 A 
ATOM      8  N   UNL     1       3.024  -3.163  -3.811  0.00  0.00    -0.327 N 
ATOM      9  C   UNL     1       2.761  -2.751  -2.596  0.00  0.00    +0.174 A 
ATOM     10  N   UNL     1       3.694  -2.596  -1.593  0.00  0.00    -0.312 N 
ATOM     11  H   UNL     1       3.417  -2.287  -0.716  0.00  0.00    +0.149 HD
ATOM     12  H   UNL     1       3.904  -3.406  -4.141  0.00  0.00    +0.169 HD
ENDROOT
BRANCH   1  13
ATOM     13  C   UNL     1       0.739  -2.027  -1.265  0.00  0.00    +0.125 C 
BRANCH  13  14
ATOM     14  C   UNL     1       0.718  -0.497  -1.257  0.00  0.00    +0.021 C 
BRANCH  14  16
ATOM     15  C   UNL     1      -0.019   1.526   0.010  0.00  0.00    +0.004 C 
ATOM     16  C   UNL     1       0.002  -0.004   0.002  0.00  0.00    -0.002 C 
ENDBRANCH  14  16
ENDBRANCH  13  14
ENDBRANCH   1  13
BRANCH  10  17
ATOM     17  C   UNL     1       5.104  -2.898  -1.850  0.00  0.00    +0.143 C 
BRANCH  17  18
ATOM     18  C   UNL     1       5.908  -2.649  -0.600  0.00  0.00    +0.012 A 
ATOM     19  C   UNL     1       6.622  -1.474  -0.461  0.00  0.00    +0.024 A 
ATOM     20  C   UNL     1       7.360  -1.245   0.686  0.00  0.00    +0.018 A 
ATOM     21  C   UNL     1       7.385  -2.190   1.696  0.00  0.00    +0.019 A 
ATOM     22  C   UNL     1       6.671  -3.365   1.561  0.00  0.00    +0.047 A 
ATOM     23  C   UNL     1       5.926  -3.595   0.413  0.00  0.00    +0.122 A 
ATOM     24 BR   UNL     1       8.338   0.363   0.874  0.00  0.00    -0.050 Br
BRANCH  23  25
ATOM     25  O   UNL     1       5.220  -4.749   0.280  0.00  0.00    -0.506 OA
ATOM     26  H   UNL     1       5.717  -5.469  -0.132  0.00  0.00    +0.292 HD
ENDBRANCH  23  25
ENDBRANCH  17  18
ENDBRANCH  10  17
TORSDOF 6
