REMARK  Name = ZINC50270625
REMARK  7 active torsions:
REMARK  status: ('A' for Active; 'I' for Inactive)
REMARK    1  A    between atoms: C_1  and  C_2
REMARK    2  A    between atoms: C_2  and  C_3
REMARK    3  A    between atoms: C_3  and  N_4
REMARK    4  A    between atoms: N_4  and  C_5
REMARK    5  A    between atoms: C_5  and  C_7
REMARK    6  A    between atoms: C_5  and  C_9
REMARK    7  A    between atoms: C_7  and  N_8
REMARK                            x       y       z     vdW  Elec       q    Type
REMARK                         _______ _______ _______ _____ _____    ______ ____
ROOT
ATOM      1  C   UNL     1       1.631  -2.529   2.575  0.00  0.00    -0.059 C 
ENDROOT
BRANCH   1   2
ATOM      2  C   UNL     1       1.920  -4.004   2.466  0.00  0.00    -0.058 A 
ATOM      3  C   UNL     1       3.039  -4.535   3.083  0.00  0.00    +0.051 A 
ATOM      4  C   UNL     1       3.301  -5.890   2.981  0.00  0.00    +0.163 A 
ATOM      5  C   UNL     1       2.444  -6.712   2.264  0.00  0.00    +0.176 A 
ATOM      6  C   UNL     1       1.325  -6.178   1.647  0.00  0.00    +0.063 A 
ATOM      7  C   UNL     1       1.063  -4.823   1.756  0.00  0.00    +0.021 A 
ATOM      8 BR   UNL     1       0.156  -7.296   0.668  0.00  0.00    -0.046 Br
ATOM      9  O   UNL     1       2.711  -8.047   2.170  0.00  0.00    -0.487 OA
ATOM     10  C   UNL     1       3.863  -8.402   1.402  0.00  0.00    +0.232 C 
ATOM     11  C   UNL     1       5.122  -8.323   2.252  0.00  0.00    +0.082 C 
ATOM     12  C   UNL     1       5.424  -6.905   2.709  0.00  0.00    +0.232 C 
ATOM     13  O   UNL     1       4.401  -6.426   3.585  0.00  0.00    -0.488 OA
ENDBRANCH   1   2
BRANCH   1  14
ATOM     14  N   UNL     1       1.134  -2.030   1.286  0.00  0.00    +0.382 N 
ATOM     15  H   UNL     1       0.854  -1.066   1.383  0.00  0.00    -0.085 HD
ATOM     16  H   UNL     1       0.342  -2.583   0.994  0.00  0.00    -0.085 HD
BRANCH  14  17
ATOM     17  C   UNL     1       2.199  -2.132   0.279  0.00  0.00    -0.082 C 
BRANCH  17  19
ATOM     18  C   UNL     1       2.834  -1.602  -2.079  0.00  0.00    +0.002 C 
ATOM     19  C   UNL     1       1.725  -1.497  -1.030  0.00  0.00    -0.022 C 
ENDBRANCH  17  19
ENDBRANCH  14  17
ENDBRANCH   1  14
BRANCH   1  20
ATOM     20  C   UNL     1       0.572  -2.295   3.655  0.00  0.00    -0.098 C 
BRANCH  20  21
ATOM     21  N   UNL     1       0.241  -0.865   3.714  0.00  0.00    +0.377 N 
ATOM     22  H   UNL     1      -0.209  -0.588   2.854  0.00  0.00    -0.090 HD
ATOM     23  H   UNL     1      -0.382  -0.696   4.489  0.00  0.00    -0.090 HD
ATOM     24  H   UNL     1       1.087  -0.329   3.839  0.00  0.00    -0.090 HD
ENDBRANCH  20  21
ENDBRANCH   1  20
TORSDOF 6
