REMARK  Name = ZINC01823666
REMARK  12 active torsions:
REMARK  status: ('A' for Active; 'I' for Inactive)
REMARK    1  A    between atoms: C_1  and  C_2
REMARK    2  A    between atoms: C_5  and  C_8
REMARK    3  A    between atoms: N_10  and  C_11
REMARK    4  A    between atoms: C_11  and  C_25
REMARK    5  A    between atoms: C_12  and  C_13
REMARK    6  A    between atoms: C_16  and  C_18
REMARK    7  A    between atoms: N_27  and  C_28
REMARK    8  A    between atoms: C_28  and  C_29
REMARK    9  A    between atoms: C_29  and  C_30
REMARK   10  A    between atoms: C_30  and  N_61
REMARK   11  A    between atoms: C_31  and  N_61
REMARK   12  A    between atoms: C_32  and  N_61
REMARK                            x       y       z     vdW  Elec       q    Type
REMARK                         _______ _______ _______ _____ _____    ______ ____
ROOT
ATOM      1  C   UNL     1      -0.102  -0.507   0.602  0.00  0.00    +0.100 C 
ATOM      2  C   UNL     1       1.181  -0.871   0.330  0.00  0.00    +0.074 C 
ENDROOT
BRANCH   2   3
ATOM      3  C   UNL     1       1.472  -2.198  -0.062  0.00  0.00    +0.131 A 
ATOM      4  C   UNL     1       2.732  -2.728  -0.262  0.00  0.00    +0.050 A 
ATOM      5  C   UNL     1       2.553  -4.063  -0.638  0.00  0.00    +0.050 A 
ATOM      6  C   UNL     1       1.208  -4.299  -0.654  0.00  0.00    +0.136 A 
ATOM      7  O   UNL     1       0.567  -3.170  -0.301  0.00  0.00    -0.455 OA
BRANCH   6   8
ATOM      8  C   UNL     1       0.565  -5.582  -0.997  0.00  0.00    +0.017 A 
ATOM      9  C   UNL     1       1.345  -6.715  -1.242  0.00  0.00    +0.012 A 
ATOM     10  C   UNL     1       0.737  -7.912  -1.558  0.00  0.00    +0.016 A 
ATOM     11  C   UNL     1      -0.643  -7.991  -1.641  0.00  0.00    +0.018 A 
ATOM     12  C   UNL     1      -1.422  -6.870  -1.404  0.00  0.00    +0.016 A 
ATOM     13  C   UNL     1      -0.827  -5.668  -1.083  0.00  0.00    +0.012 A 
ATOM     14 BR   UNL     1      -1.467  -9.634  -2.081  0.00  0.00    -0.050 Br
ENDBRANCH   6   8
ENDBRANCH   2   3
BRANCH   1  17
ATOM     15  C   UNL     1      -1.690   1.210   1.040  0.00  0.00    +0.248 C 
ATOM     16  O   UNL     1      -2.573   0.374   1.055  0.00  0.00    -0.270 OA
ATOM     17  N   UNL     1      -0.407   0.831   0.872  0.00  0.00    -0.277 N 
ATOM     18  H   UNL     1       0.304   1.488   0.935  0.00  0.00    +0.155 HD
BRANCH  15  23
ATOM     19  C   UNL     1      -2.986   6.778   1.692  0.00  0.00    +0.044 C 
ATOM     20  C   UNL     1      -2.647   5.320   1.521  0.00  0.00    -0.050 A 
ATOM     21  C   UNL     1      -3.654   4.371   1.537  0.00  0.00    +0.004 A 
ATOM     22  C   UNL     1      -3.350   3.035   1.381  0.00  0.00    +0.013 A 
ATOM     23  C   UNL     1      -2.023   2.640   1.207  0.00  0.00    +0.037 A 
ATOM     24  C   UNL     1      -1.011   3.601   1.197  0.00  0.00    +0.013 A 
ATOM     25  C   UNL     1      -1.329   4.935   1.349  0.00  0.00    +0.004 A 
ENDBRANCH  15  23
ENDBRANCH   1  17
BRANCH   1  26
ATOM     26  C   UNL     1      -1.163  -1.516   0.610  0.00  0.00    +0.258 C 
ATOM     27  O   UNL     1      -1.829  -1.709  -0.391  0.00  0.00    -0.269 OA
ATOM     28  N   UNL     1      -1.403  -2.232   1.727  0.00  0.00    -0.310 N 
ATOM     29  H   UNL     1      -0.922  -2.030   2.545  0.00  0.00    +0.149 HD
BRANCH  28  30
ATOM     30  C   UNL     1      -2.391  -3.314   1.706  0.00  0.00    +0.103 C 
BRANCH  30  31
ATOM     31  C   UNL     1      -2.561  -3.877   3.118  0.00  0.00    +0.000 C 
BRANCH  31  32
ATOM     32  C   UNL     1      -3.498  -5.086   3.075  0.00  0.00    -0.078 C 
BRANCH  32  35
ATOM     33  C   UNL     1      -4.761  -6.625   4.452  0.00  0.00    -0.097 C 
ATOM     34  C   UNL     1      -2.518  -5.984   5.099  0.00  0.00    -0.097 C 
ATOM     35  N   UNL     1      -3.770  -5.529   4.459  0.00  0.00    +0.376 N 
ATOM     36  H   UNL     1      -4.150  -4.739   4.993  0.00  0.00    -0.083 HD
ENDBRANCH  32  35
ENDBRANCH  31  32
ENDBRANCH  30  31
ENDBRANCH  28  30
ENDBRANCH   1  26
TORSDOF 9
