REMARK  Name = ZINC09911318
REMARK  10 active torsions:
REMARK  status: ('A' for Active; 'I' for Inactive)
REMARK    1  A    between atoms: C_1  and  C_2
REMARK    2  A    between atoms: C_2  and  C_3
REMARK    3  A    between atoms: C_2  and  N_57
REMARK    4  A    between atoms: C_9  and  N_14
REMARK    5  A    between atoms: C_10  and  C_11
REMARK    6  A    between atoms: C_15  and  C_17
REMARK    7  A    between atoms: C_17  and  C_18
REMARK    8  A    between atoms: C_18  and  C_19
REMARK    9  A    between atoms: C_19  and  S_20
REMARK   10  A    between atoms: S_20  and  C_23
REMARK                            x       y       z     vdW  Elec       q    Type
REMARK                         _______ _______ _______ _____ _____    ______ ____
ROOT
ATOM      1  C   UNL     1      -0.238 -10.465   6.344  0.00  0.00    -0.073 C 
ATOM      2  C   UNL     1       0.188  -9.102   6.897  0.00  0.00    +0.018 C 
ATOM      3  C   UNL     1       0.166  -8.096   5.752  0.00  0.00    -0.027 A 
ATOM      4  C   UNL     1       0.161  -8.528   4.470  0.00  0.00    -0.021 A 
ATOM      5  S   UNL     1       0.132  -7.051   3.497  0.00  0.00    -0.079 S 
ATOM      6  C   UNL     1       0.127  -5.877   4.772  0.00  0.00    +0.084 A 
ATOM      7  C   UNL     1       0.154  -6.656   5.921  0.00  0.00    +0.068 A 
ATOM      8  C   UNL     1       0.178  -9.953   4.013  0.00  0.00    -0.035 C 
ATOM      9  N   UNL     1       0.587 -10.794   5.164  0.00  0.00    +0.384 N 
ATOM     10  H   UNL     1       1.573 -10.606   5.381  0.00  0.00    -0.081 HD
ENDROOT
BRANCH   7  11
ATOM     11  C   UNL     1       0.166  -6.045   7.254  0.00  0.00    +0.244 C 
ATOM     12  O   UNL     1      -0.883  -5.806   7.823  0.00  0.00    -0.270 OA
ATOM     13  N   UNL     1       1.339  -5.749   7.849  0.00  0.00    -0.325 N 
ATOM     14  H   UNL     1       2.175  -5.940   7.396  0.00  0.00    +0.145 HD
ATOM     15  H   UNL     1       1.347  -5.346   8.731  0.00  0.00    +0.145 HD
ENDBRANCH   7  11
BRANCH   6  16
ATOM     16  N   UNL     1       0.107  -4.494   4.669  0.00  0.00    -0.279 N 
ATOM     17  C   UNL     1       0.088  -3.909   3.455  0.00  0.00    +0.218 C 
ATOM     18  O   UNL     1       0.088  -4.592   2.452  0.00  0.00    -0.275 OA
ATOM     19  H   UNL     1       0.108  -3.948   5.470  0.00  0.00    +0.155 HD
BRANCH  17  20
ATOM     20  C   UNL     1       0.066  -2.406   3.343  0.00  0.00    +0.098 C 
BRANCH  20  21
ATOM     21  C   UNL     1       0.047  -2.005   1.866  0.00  0.00    +0.032 C 
BRANCH  21  22
ATOM     22  C   UNL     1       0.025  -0.480   1.752  0.00  0.00    +0.172 C 
BRANCH  22  23
ATOM     23  S   UNL     1       0.002  -0.004   0.002  0.00  0.00    -0.003 S 
ATOM     24  O   UNL     1      -1.233  -0.380  -0.591  0.00  0.00    -0.169 OA
ATOM     25  O   UNL     1       1.236  -0.347  -0.615  0.00  0.00    -0.169 OA
BRANCH  23  26
ATOM     26  C   UNL     1      -0.022   1.758   0.012  0.00  0.00    +0.088 A 
ATOM     27  C   UNL     1      -1.228   2.433   0.021  0.00  0.00    +0.027 A 
ATOM     28  C   UNL     1      -1.247   3.815   0.034  0.00  0.00    +0.002 A 
ATOM     29  C   UNL     1      -0.059   4.522   0.026  0.00  0.00    +0.000 A 
ATOM     30  C   UNL     1       1.147   3.847   0.011  0.00  0.00    +0.002 A 
ATOM     31  C   UNL     1       1.166   2.465   0.004  0.00  0.00    +0.027 A 
ENDBRANCH  23  26
ENDBRANCH  22  23
ENDBRANCH  21  22
ENDBRANCH  20  21
ENDBRANCH  17  20
ENDBRANCH   6  16
BRANCH   9  33
ATOM     32  C   UNL     1      -1.020 -12.540   4.474  0.00  0.00    -0.014 C 
ATOM     33  C   UNL     1       0.435 -12.225   4.823  0.00  0.00    -0.074 C 
ATOM     34  C   UNL     1       1.329 -12.549   3.624  0.00  0.00    -0.014 C 
ENDBRANCH   9  33
TORSDOF 8
