REMARK  Name = ZINC37969839
REMARK  4 active torsions:
REMARK  status: ('A' for Active; 'I' for Inactive)
REMARK    1  A    between atoms: C_4  and  C_8
REMARK    2  A    between atoms: C_8  and  C_10
REMARK    3  A    between atoms: C_8  and  N_13
REMARK    4  A    between atoms: N_13  and  C_14
REMARK                            x       y       z     vdW  Elec       q    Type
REMARK                         _______ _______ _______ _____ _____    ______ ____
ROOT
ATOM      1  C   UNL     1       3.680  -0.780  -0.078  0.00  0.00    +0.050 C 
ENDROOT
BRANCH   1   5
ATOM      2  C   UNL     1       6.077   2.267   1.719  0.00  0.00    +0.003 A 
ATOM      3  C   UNL     1       6.363   1.827   0.440  0.00  0.00    +0.020 A 
ATOM      4  C   UNL     1       5.588   0.840  -0.142  0.00  0.00    +0.044 A 
ATOM      5  C   UNL     1       4.526   0.294   0.556  0.00  0.00    -0.016 A 
ATOM      6  C   UNL     1       4.240   0.735   1.835  0.00  0.00    +0.044 A 
ATOM      7  C   UNL     1       5.016   1.722   2.417  0.00  0.00    +0.020 A 
ATOM      8 CL   UNL     1       2.907   0.050   2.712  0.00  0.00    -0.083 Cl
ATOM      9 CL   UNL     1       5.947   0.288  -1.748  0.00  0.00    -0.083 Cl
ENDBRANCH   1   5
BRANCH   1  10
ATOM     10  C   UNL     1       2.284  -0.258  -0.296  0.00  0.00    +0.201 C 
ATOM     11  O   UNL     1       1.368  -0.674   0.382  0.00  0.00    -0.277 OA
ATOM     12  N   UNL     1       2.052   0.673  -1.243  0.00  0.00    -0.330 N 
ATOM     13  H   UNL     1       2.785   1.006  -1.785  0.00  0.00    +0.145 HD
ATOM     14  H   UNL     1       1.153   1.009  -1.383  0.00  0.00    +0.145 HD
ENDBRANCH   1  10
BRANCH   1  15
ATOM     15  N   UNL     1       3.632  -1.952   0.807  0.00  0.00    +0.391 N 
ATOM     16  H   UNL     1       3.312  -1.669   1.722  0.00  0.00    -0.084 HD
ATOM     17  H   UNL     1       2.997  -2.636   0.425  0.00  0.00    -0.084 HD
BRANCH  15  18
ATOM     18  C   UNL     1       4.975  -2.537   0.918  0.00  0.00    -0.070 C 
ATOM     19  C   UNL     1       5.393  -3.113  -0.436  0.00  0.00    -0.016 C 
ATOM     20  C   UNL     1       6.792  -3.723  -0.321  0.00  0.00    -0.002 C 
ATOM     21  C   UNL     1       6.777  -4.840   0.725  0.00  0.00    -0.000 C 
ATOM     22  C   UNL     1       6.358  -4.264   2.079  0.00  0.00    -0.002 C 
ATOM     23  C   UNL     1       4.960  -3.654   1.964  0.00  0.00    -0.016 C 
ENDBRANCH  15  18
ENDBRANCH   1  15
TORSDOF 4
