REMARK  Name = ZINC23125520
REMARK  11 active torsions:
REMARK  status: ('A' for Active; 'I' for Inactive)
REMARK    1  A    between atoms: C_1  and  C_2
REMARK    2  A    between atoms: C_2  and  C_3
REMARK    3  A    between atoms: C_8  and  N_9
REMARK    4  A    between atoms: C_10  and  C_12
REMARK    5  A    between atoms: C_12  and  N_13
REMARK    6  A    between atoms: C_14  and  N_34
REMARK    7  A    between atoms: C_15  and  C_22
REMARK    8  A    between atoms: N_18  and  C_19
REMARK    9  A    between atoms: C_19  and  C_20
REMARK   10  A    between atoms: C_19  and  C_21
REMARK   11  A    between atoms: C_24  and  C_27
REMARK                            x       y       z     vdW  Elec       q    Type
REMARK                         _______ _______ _______ _____ _____    ______ ____
ROOT
ATOM      1  N   UNL     1       8.094   1.496  -0.065  0.00  0.00    -0.262 N 
ATOM      2  C   UNL     1       6.795   1.861  -0.048  0.00  0.00    +0.127 A 
ATOM      3  C   UNL     1       6.039   0.694  -0.044  0.00  0.00    +0.117 A 
ATOM      4  C   UNL     1       6.952  -0.392  -0.070  0.00  0.00    +0.127 A 
ATOM      5  N   UNL     1       8.165   0.099  -0.082  0.00  0.00    -0.282 N 
ATOM      6  N   UNL     1       6.615  -1.746  -0.081  0.00  0.00    -0.326 N 
ATOM      7  H   UNL     1       5.558  -2.051  -0.069  0.00  0.00    +0.148 HD
ATOM      8  H   UNL     1       9.144  -0.401  -0.102  0.00  0.00    +0.188 HD
ENDROOT
BRANCH   3   9
ATOM      9  C   UNL     1       4.572   0.602  -0.024  0.00  0.00    +0.265 A 
ATOM     10  N   UNL     1       3.718   1.614  -0.006  0.00  0.00    -0.187 NA
ATOM     11  C   UNL     1       2.493   1.050   0.011  0.00  0.00    +0.202 A 
ATOM     12  N   UNL     1       2.659  -0.248  -0.006  0.00  0.00    -0.056 NA
ATOM     13  O   UNL     1       3.839  -0.524  -0.026  0.00  0.00    -0.332 OA
BRANCH  11  14
ATOM     14  C   UNL     1       1.195   1.769   0.038  0.00  0.00    +0.023 A 
ATOM     15  C   UNL     1      -0.001   1.054   0.048  0.00  0.00    +0.013 A 
ATOM     16  C   UNL     1      -1.205   1.727   0.067  0.00  0.00    +0.021 A 
ATOM     17  C   UNL     1      -1.226   3.111   0.089  0.00  0.00    +0.041 A 
ATOM     18  C   UNL     1      -0.041   3.826   0.080  0.00  0.00    +0.021 A 
ATOM     19  C   UNL     1       1.168   3.162   0.055  0.00  0.00    +0.013 A 
ATOM     20 CL   UNL     1      -2.744   3.953   0.122  0.00  0.00    -0.084 Cl
ENDBRANCH  11  14
ENDBRANCH   3   9
BRANCH   6  21
ATOM     21  C   UNL     1       7.670  -2.763  -0.107  0.00  0.00    +0.066 C 
ATOM     22  C   UNL     1       8.145  -3.043   1.320  0.00  0.00    +0.027 C 
ATOM     23  C   UNL     1       7.121  -4.051  -0.724  0.00  0.00    +0.027 C 
ENDBRANCH   6  21
BRANCH   2  24
ATOM     24  N   UNL     1       6.307   3.155  -0.033  0.00  0.00    -0.343 N 
ATOM     25  H   UNL     1       5.221   3.333  -0.020  0.00  0.00    +0.144 HD
ATOM     26  H   UNL     1       7.004   4.006  -0.035  0.00  0.00    +0.144 HD
ENDBRANCH   2  24
BRANCH   1  27
ATOM     27  C   UNL     1       9.239   2.411  -0.071  0.00  0.00    +0.239 C 
BRANCH  27  29
ATOM     28  N   UNL     1      10.643   3.571  -1.744  0.00  0.00    -0.284 N 
ATOM     29  C   UNL     1       9.611   2.741  -1.493  0.00  0.00    +0.239 C 
ATOM     30  O   UNL     1       8.982   2.260  -2.412  0.00  0.00    -0.273 OA
ATOM     31  H   UNL     1      11.155   4.078  -0.914  0.00  0.00    +0.155 HD
BRANCH  28  37
ATOM     32  C   UNL     1      11.730   4.957  -3.396  0.00  0.00    -0.026 A 
ATOM     33  C   UNL     1      12.142   5.167  -4.698  0.00  0.00    +0.005 A 
ATOM     34  C   UNL     1      11.891   4.213  -5.667  0.00  0.00    +0.000 A 
ATOM     35  C   UNL     1      11.226   3.047  -5.337  0.00  0.00    +0.002 A 
ATOM     36  C   UNL     1      10.816   2.828  -4.036  0.00  0.00    +0.023 A 
ATOM     37  C   UNL     1      11.062   3.787  -3.062  0.00  0.00    +0.037 A 
BRANCH  32  39
ATOM     38  C   UNL     1      13.297   5.644  -1.602  0.00  0.00    +0.009 C 
ATOM     39  C   UNL     1      12.005   5.997  -2.341  0.00  0.00    +0.033 C 
ENDBRANCH  32  39
ENDBRANCH  28  37
ENDBRANCH  27  29
ENDBRANCH   1  27
TORSDOF 8
