REMARK  Name = ZINC39545406
REMARK  7 active torsions:
REMARK  status: ('A' for Active; 'I' for Inactive)
REMARK    1  A    between atoms: C_1  and  O_2
REMARK    2  A    between atoms: O_2  and  C_3
REMARK    3  A    between atoms: C_5  and  C_17
REMARK    4  A    between atoms: N_19  and  C_20
REMARK    5  A    between atoms: N_19  and  C_27
REMARK    6  A    between atoms: C_25  and  O_26
REMARK    7  A    between atoms: C_32  and  O_33
REMARK                            x       y       z     vdW  Elec       q    Type
REMARK                         _______ _______ _______ _____ _____    ______ ____
ROOT
ATOM      1  C   UNL     1      -3.293  -2.981   1.625  0.00  0.00    +0.244 C 
ATOM      2  O   UNL     1      -4.005  -2.403   2.418  0.00  0.00    -0.273 OA
ATOM      3  N   UNL     1      -2.842  -4.221   1.902  0.00  0.00    -0.232 N 
ENDROOT
BRANCH   1   6
ATOM      4  C   UNL     1      -1.196  -0.639   0.116  0.00  0.00    +0.134 C 
ATOM      5  C   UNL     1      -1.384  -2.134   0.242  0.00  0.00    +0.107 C 
ATOM      6  C   UNL     1      -2.912  -2.314   0.328  0.00  0.00    +0.152 C 
ATOM      7  N   UNL     1      -3.439  -0.941   0.278  0.00  0.00    -0.367 NA
ATOM      8  C   UNL     1      -2.366  -0.049   0.138  0.00  0.00    +0.113 C 
ATOM      9  N   UNL     1      -2.603   1.341   0.011  0.00  0.00    -0.301 N 
ATOM     10  C   UNL     1      -3.764   1.679  -0.705  0.00  0.00    +0.037 A 
ATOM     11  C   UNL     1      -4.040   3.010  -0.984  0.00  0.00    +0.023 A 
ATOM     12  C   UNL     1      -5.186   3.342  -1.680  0.00  0.00    +0.002 A 
ATOM     13  C   UNL     1      -6.053   2.347  -2.093  0.00  0.00    +0.000 A 
ATOM     14  C   UNL     1      -5.777   1.022  -1.817  0.00  0.00    +0.007 A 
ATOM     15  C   UNL     1      -4.627   0.677  -1.125  0.00  0.00    -0.010 A 
ATOM     16  C   UNL     1      -4.341  -0.784  -0.868  0.00  0.00    +0.124 C 
ATOM     17  H   UNL     1      -2.010   2.009   0.389  0.00  0.00    +0.153 HD
ATOM     18  H   UNL     1      -3.935  -0.735   1.133  0.00  0.00    +0.129 HD
BRANCH   4  20
ATOM     19  C   UNL     1      -0.017   1.425   0.012  0.00  0.00    +0.276 C 
ATOM     20  O   UNL     1       0.002  -0.004   0.002  0.00  0.00    -0.496 OA
ENDBRANCH   4  20
ENDBRANCH   1   6
BRANCH   3  21
ATOM     21  C   UNL     1      -3.196  -4.841   3.108  0.00  0.00    +0.083 A 
ATOM     22  C   UNL     1      -4.339  -5.625   3.178  0.00  0.00    +0.027 A 
ATOM     23  C   UNL     1      -4.686  -6.237   4.368  0.00  0.00    +0.002 A 
ATOM     24  C   UNL     1      -3.896  -6.069   5.491  0.00  0.00    +0.004 A 
ATOM     25  C   UNL     1      -2.756  -5.290   5.429  0.00  0.00    +0.047 A 
ATOM     26  C   UNL     1      -2.398  -4.678   4.239  0.00  0.00    +0.138 A 
BRANCH  26  27
ATOM     27  O   UNL     1      -1.275  -3.915   4.175  0.00  0.00    -0.505 OA
ATOM     28  H   UNL     1      -1.420  -2.982   4.386  0.00  0.00    +0.292 HD
ENDBRANCH  26  27
ENDBRANCH   3  21
BRANCH   3  29
ATOM     29  C   UNL     1      -2.019  -4.889   0.985  0.00  0.00    +0.083 A 
ATOM     30  C   UNL     1      -0.640  -4.754   1.061  0.00  0.00    +0.027 A 
ATOM     31  C   UNL     1       0.169  -5.414   0.156  0.00  0.00    +0.002 A 
ATOM     32  C   UNL     1      -0.392  -6.210  -0.826  0.00  0.00    +0.004 A 
ATOM     33  C   UNL     1      -1.765  -6.349  -0.908  0.00  0.00    +0.047 A 
ATOM     34  C   UNL     1      -2.583  -5.695  -0.001  0.00  0.00    +0.138 A 
BRANCH  34  35
ATOM     35  O   UNL     1      -3.933  -5.835  -0.077  0.00  0.00    -0.505 OA
ATOM     36  H   UNL     1      -4.365  -5.181  -0.643  0.00  0.00    +0.292 HD
ENDBRANCH  34  35
ENDBRANCH   3  29
TORSDOF 6
