REMARK  Name = ZINC23006208
REMARK  11 active torsions:
REMARK  status: ('A' for Active; 'I' for Inactive)
REMARK    1  A    between atoms: C_1  and  C_2
REMARK    2  A    between atoms: C_5  and  C_8
REMARK    3  A    between atoms: C_11  and  S_14
REMARK    4  A    between atoms: N_12  and  N_13
REMARK    5  A    between atoms: S_14  and  C_15
REMARK    6  A    between atoms: C_15  and  C_16
REMARK    7  A    between atoms: N_21  and  C_24
REMARK    8  A    between atoms: C_24  and  C_25
REMARK    9  A    between atoms: N_27  and  C_28
REMARK   10  A    between atoms: C_29  and  C_35
REMARK   11  A    between atoms: C_33  and  C_34
REMARK                            x       y       z     vdW  Elec       q    Type
REMARK                         _______ _______ _______ _____ _____    ______ ____
ROOT
ATOM      1  C   UNL     1      -4.583  -5.940   2.705  0.00  0.00    +0.226 C 
ATOM      2  O   UNL     1      -4.785  -7.114   2.476  0.00  0.00    -0.275 OA
ATOM      3  N   UNL     1      -4.062  -5.147   1.748  0.00  0.00    -0.304 N 
ATOM      4  C   UNL     1      -3.731  -5.684   0.419  0.00  0.00    +0.089 C 
ATOM      5  C   UNL     1      -2.290  -5.289   0.079  0.00  0.00    -0.059 C 
ATOM      6  N   UNL     1      -2.139  -3.834   0.215  0.00  0.00    +0.387 N 
ATOM      7  C   UNL     1      -2.364  -3.403   1.602  0.00  0.00    -0.059 C 
ATOM      8  C   UNL     1      -3.808  -3.721   2.004  0.00  0.00    +0.089 C 
ATOM      9  H   UNL     1      -2.908  -3.358  -0.412  0.00  0.00    -0.081 HD
ENDROOT
BRANCH   1  10
ATOM     10  C   UNL     1      -4.914  -5.369   4.059  0.00  0.00    +0.173 C 
BRANCH  10  11
ATOM     11  S   UNL     1      -5.592  -6.673   5.115  0.00  0.00    -0.075 S 
BRANCH  11  15
ATOM     12  C   UNL     1      -6.441  -5.163   8.617  0.00  0.00    +0.182 A 
ATOM     13  N   UNL     1      -5.967  -4.128   7.965  0.00  0.00    -0.127 NA
ATOM     14  N   UNL     1      -5.633  -4.476   6.773  0.00  0.00    -0.121 NA
ATOM     15  C   UNL     1      -5.882  -5.753   6.590  0.00  0.00    +0.209 A 
ATOM     16  N   UNL     1      -6.401  -6.236   7.757  0.00  0.00    -0.224 N 
BRANCH  12  21
ATOM     17  C   UNL     1      -8.330  -5.208  14.053  0.00  0.00    +0.044 C 
ATOM     18  C   UNL     1      -7.835  -5.196  12.630  0.00  0.00    -0.050 A 
ATOM     19  C   UNL     1      -7.524  -6.388  11.999  0.00  0.00    +0.004 A 
ATOM     20  C   UNL     1      -7.070  -6.384  10.696  0.00  0.00    +0.012 A 
ATOM     21  C   UNL     1      -6.926  -5.175  10.014  0.00  0.00    +0.021 A 
ATOM     22  C   UNL     1      -7.237  -3.976  10.658  0.00  0.00    +0.012 A 
ATOM     23  C   UNL     1      -7.694  -3.994  11.959  0.00  0.00    +0.004 A 
ENDBRANCH  12  21
BRANCH  16  24
ATOM     24  N   UNL     1      -6.798  -7.517   8.016  0.00  0.00    -0.295 N 
ATOM     25  H   UNL     1      -6.713  -8.288   7.235  0.00  0.00    +0.163 HD
ATOM     26  H   UNL     1      -7.203  -7.778   9.005  0.00  0.00    +0.163 HD
ENDBRANCH  16  24
ENDBRANCH  11  15
ENDBRANCH  10  11
ENDBRANCH   1  10
BRANCH   6  27
ATOM     27  C   UNL     1      -0.824  -3.394  -0.266  0.00  0.00    +0.019 C 
BRANCH  27  28
ATOM     28  C   UNL     1      -0.794  -1.889  -0.342  0.00  0.00    +0.201 C 
ATOM     29  O   UNL     1      -1.773  -1.247  -0.026  0.00  0.00    -0.278 OA
ATOM     30  N   UNL     1       0.320  -1.257  -0.760  0.00  0.00    -0.287 N 
ATOM     31  H   UNL     1       1.178  -1.839  -1.127  0.00  0.00    +0.155 HD
BRANCH  30  32
ATOM     32  C   UNL     1       0.386   0.140  -0.729  0.00  0.00    +0.039 A 
ATOM     33  C   UNL     1      -0.568   0.897  -1.397  0.00  0.00    -0.029 A 
ATOM     34  C   UNL     1      -0.503   2.276  -1.360  0.00  0.00    +0.005 A 
ATOM     35  C   UNL     1       0.515   2.904  -0.666  0.00  0.00    +0.001 A 
ATOM     36  C   UNL     1       1.469   2.153  -0.004  0.00  0.00    +0.005 A 
ATOM     37  C   UNL     1       1.407   0.773  -0.033  0.00  0.00    -0.029 A 
ATOM     38  C   UNL     1       2.447  -0.044   0.690  0.00  0.00    +0.045 C 
ATOM     39  C   UNL     1      -1.675   0.214  -2.158  0.00  0.00    +0.045 C 
ENDBRANCH  30  32
ENDBRANCH  27  28
ENDBRANCH   6  27
TORSDOF 8
