REMARK  Name = ZINC12301983
REMARK  13 active torsions:
REMARK  status: ('A' for Active; 'I' for Inactive)
REMARK    1  A    between atoms: C_1  and  O_2
REMARK    2  A    between atoms: O_2  and  C_3
REMARK    3  A    between atoms: C_6  and  C_19
REMARK    4  A    between atoms: C_7  and  O_9
REMARK    5  A    between atoms: O_9  and  C_10
REMARK    6  A    between atoms: C_10  and  C_11
REMARK    7  A    between atoms: C_11  and  C_13
REMARK    8  A    between atoms: C_11  and  O_18
REMARK    9  A    between atoms: C_13  and  N_62
REMARK   10  A    between atoms: C_19  and  N_64
REMARK   11  A    between atoms: C_20  and  C_21
REMARK   12  A    between atoms: C_20  and  N_64
REMARK   13  A    between atoms: C_21  and  C_22
REMARK                            x       y       z     vdW  Elec       q    Type
REMARK                         _______ _______ _______ _____ _____    ______ ____
ROOT
ATOM      1  C   UNL     1       1.175   2.089   0.002  0.00  0.00    +0.124 A 
ATOM      2  C   UNL     1       2.385   1.408  -0.013  0.00  0.00    +0.046 A 
ATOM      3  C   UNL     1       2.401   0.027  -0.021  0.00  0.00    +0.009 A 
ATOM      4  C   UNL     1       1.214  -0.680  -0.013  0.00  0.00    -0.022 A 
ATOM      5  C   UNL     1       0.002  -0.004   0.002  0.00  0.00    +0.125 A 
ATOM      6  C   UNL     1      -0.017   1.382   0.010  0.00  0.00    +0.091 A 
ENDROOT
BRANCH   1   8
ATOM      7  C   UNL     1       2.426   4.111   0.001  0.00  0.00    +0.277 C 
ATOM      8  O   UNL     1       1.160   3.448   0.009  0.00  0.00    -0.495 OA
ENDBRANCH   1   8
BRANCH   5   9
ATOM      9  O   UNL     1      -1.165  -0.700   0.010  0.00  0.00    -0.489 OA
BRANCH   9  10
ATOM     10  C   UNL     1      -2.374   0.061   0.026  0.00  0.00    +0.258 C 
BRANCH  10  11
ATOM     11  C   UNL     1      -3.574  -0.888   0.033  0.00  0.00    +0.135 C 
BRANCH  11  12
ATOM     12  O   UNL     1      -3.583  -1.636   1.250  0.00  0.00    -0.390 OA
ATOM     13  H   UNL     1      -3.645  -1.091   2.046  0.00  0.00    +0.210 HD
ENDBRANCH  11  12
BRANCH  11  14
ATOM     14  C   UNL     1      -4.867  -0.076  -0.076  0.00  0.00    -0.044 C 
BRANCH  14  19
ATOM     15  C   UNL     1      -5.964  -1.907   1.096  0.00  0.00    -0.079 C 
ATOM     16  C   UNL     1      -7.431  -2.385   1.240  0.00  0.00    -0.020 C 
ATOM     17  C   UNL     1      -8.244  -1.116   0.895  0.00  0.00    -0.020 C 
ATOM     18  C   UNL     1      -7.287  -0.238   0.068  0.00  0.00    -0.079 C 
ATOM     19  N   UNL     1      -6.043  -0.998  -0.058  0.00  0.00    +0.381 N 
ATOM     20  H   UNL     1      -6.056  -1.543  -0.928  0.00  0.00    -0.082 HD
ENDBRANCH  14  19
ENDBRANCH  11  14
ENDBRANCH  10  11
ENDBRANCH   9  10
ENDBRANCH   5   9
BRANCH   4  21
ATOM     21  C   UNL     1       1.235  -2.187  -0.021  0.00  0.00    -0.043 C 
BRANCH  21  22
ATOM     22  N   UNL     1       0.986  -2.667  -1.393  0.00  0.00    +0.382 N 
ATOM     23  H   UNL     1       1.718  -2.305  -2.017  0.00  0.00    -0.085 HD
ATOM     24  H   UNL     1       0.069  -2.329  -1.710  0.00  0.00    -0.085 HD
BRANCH  22  25
ATOM     25  C   UNL     1       1.001  -4.141  -1.431  0.00  0.00    -0.078 C 
BRANCH  25  26
ATOM     26  C   UNL     1       0.741  -4.609  -2.865  0.00  0.00    +0.011 C 
BRANCH  26  27
ATOM     27  C   UNL     1       0.755  -6.115  -2.912  0.00  0.00    -0.075 C 
ATOM     28  C   UNL     1      -0.377  -6.736  -2.820  0.00  0.00    -0.028 C 
ATOM     29  C   UNL     1      -0.522  -8.229  -2.842  0.00  0.00    +0.027 C 
ATOM     30  C   UNL     1       0.748  -8.874  -3.402  0.00  0.00    +0.004 C 
ATOM     31  C   UNL     1       1.958  -8.277  -2.671  0.00  0.00    +0.005 C 
ATOM     32  C   UNL     1       2.080  -6.802  -3.068  0.00  0.00    +0.030 C 
ENDBRANCH  26  27
ENDBRANCH  25  26
ENDBRANCH  22  25
ENDBRANCH  21  22
ENDBRANCH   4  21
TORSDOF 12
