REMARK  Name = ZINC49242214
REMARK  13 active torsions:
REMARK  status: ('A' for Active; 'I' for Inactive)
REMARK    1  A    between atoms: C_1  and  C_2
REMARK    2  A    between atoms: C_2  and  C_3
REMARK    3  A    between atoms: C_2  and  N_4
REMARK    4  A    between atoms: N_4  and  C_5
REMARK    5  A    between atoms: N_4  and  C_23
REMARK    6  A    between atoms: C_5  and  C_6
REMARK    7  A    between atoms: C_6  and  N_7
REMARK    8  A    between atoms: N_10  and  C_11
REMARK    9  A    between atoms: C_11  and  C_12
REMARK   10  A    between atoms: C_12  and  C_14
REMARK   11  A    between atoms: C_12  and  O_22
REMARK   12  A    between atoms: C_23  and  C_24
REMARK   13  A    between atoms: C_23  and  C_25
REMARK                            x       y       z     vdW  Elec       q    Type
REMARK                         _______ _______ _______ _____ _____    ______ ____
ROOT
ATOM      1  N   UNL     1      -4.520   0.820  -1.906  0.00  0.00    -0.301 N 
ATOM      2  C   UNL     1      -5.723   1.403  -1.734  0.00  0.00    +0.300 C 
ATOM      3  O   UNL     1      -6.143   1.614  -0.613  0.00  0.00    -0.253 OA
ATOM      4  N   UNL     1      -6.462   1.752  -2.807  0.00  0.00    -0.297 N 
ATOM      5  H   UNL     1      -4.186   0.652  -2.800  0.00  0.00    +0.150 HD
ATOM      6  H   UNL     1      -6.127   1.584  -3.701  0.00  0.00    +0.150 HD
ENDROOT
BRANCH   1   7
ATOM      7  C   UNL     1      -3.718   0.441  -0.740  0.00  0.00    +0.087 C 
BRANCH   7   8
ATOM      8  C   UNL     1      -2.408  -0.196  -1.208  0.00  0.00    -0.059 C 
BRANCH   8   9
ATOM      9  N   UNL     1      -1.616  -0.603  -0.040  0.00  0.00    +0.384 N 
ATOM     10  H   UNL     1      -1.479   0.191   0.567  0.00  0.00    -0.081 HD
BRANCH   9  12
ATOM     11  C   UNL     1       0.420  -0.018  -1.267  0.00  0.00    -0.014 C 
ATOM     12  C   UNL     1      -0.311  -1.110  -0.485  0.00  0.00    -0.074 C 
ATOM     13  C   UNL     1       0.523  -1.511   0.733  0.00  0.00    -0.014 C 
ENDBRANCH   9  12
BRANCH   9  14
ATOM     14  C   UNL     1      -2.329  -1.660   0.690  0.00  0.00    -0.074 C 
ATOM     15  C   UNL     1      -2.028  -3.016   0.048  0.00  0.00    -0.014 C 
ATOM     16  C   UNL     1      -1.868  -1.673   2.148  0.00  0.00    -0.014 C 
ENDBRANCH   9  14
ENDBRANCH   8   9
ENDBRANCH   7   8
ENDBRANCH   1   7
BRANCH   4  17
ATOM     17  C   UNL     1      -7.770   2.386  -2.621  0.00  0.00    +0.141 C 
BRANCH  17  18
ATOM     18  C   UNL     1      -8.394   2.677  -3.987  0.00  0.00    +0.162 C 
BRANCH  18  19
ATOM     19  C   UNL     1      -9.739   3.329  -3.795  0.00  0.00    -0.015 A 
ATOM     20  C   UNL     1      -9.825   4.697  -3.618  0.00  0.00    +0.009 A 
ATOM     21  C   UNL     1     -11.057   5.297  -3.442  0.00  0.00    +0.041 A 
ATOM     22  C   UNL     1     -12.208   4.528  -3.444  0.00  0.00    +0.158 A 
ATOM     23  C   UNL     1     -12.122   3.156  -3.623  0.00  0.00    +0.159 A 
ATOM     24  C   UNL     1     -10.887   2.559  -3.803  0.00  0.00    +0.047 A 
ATOM     25  F   UNL     1     -13.244   2.403  -3.624  0.00  0.00    -0.202 F 
ATOM     26  F   UNL     1     -13.413   5.114  -3.272  0.00  0.00    -0.202 F 
ENDBRANCH  18  19
BRANCH  18  27
ATOM     27  O   UNL     1      -7.540   3.555  -4.723  0.00  0.00    -0.386 OA
ATOM     28  H   UNL     1      -7.386   4.407  -4.292  0.00  0.00    +0.210 HD
ENDBRANCH  18  27
ENDBRANCH  17  18
ENDBRANCH   4  17
TORSDOF 9
