REMARK  Name = ZINC45300774
REMARK  3 active torsions:
REMARK  status: ('A' for Active; 'I' for Inactive)
REMARK    1  A    between atoms: C_1  and  C_2
REMARK    2  A    between atoms: N_15  and  C_16
REMARK    3  A    between atoms: N_25  and  C_26
REMARK                            x       y       z     vdW  Elec       q    Type
REMARK                         _______ _______ _______ _____ _____    ______ ____
ROOT
ATOM      1  C   UNL     1       0.033   1.593  -0.047  0.00  0.00    -0.012 C 
ATOM      2  C   UNL     1      -0.124   0.072  -0.012  0.00  0.00    -0.057 C 
ATOM      3  C   UNL     1       0.620  -0.546  -1.200  0.00  0.00    +0.092 C 
ATOM      4  N   UNL     1       0.566  -2.011  -1.073  0.00  0.00    -0.303 N 
ATOM      5  C   UNL     1       0.958  -2.610   0.212  0.00  0.00    +0.089 C 
ATOM      6  C   UNL     1       0.197  -1.895   1.334  0.00  0.00    -0.063 C 
ATOM      7  N   UNL     1       0.437  -0.449   1.241  0.00  0.00    +0.383 N 
ATOM      8  C   UNL     1       0.159  -2.800  -2.129  0.00  0.00    +0.224 A 
ATOM      9  N   UNL     1      -0.185  -2.239  -3.284  0.00  0.00    -0.181 NA
ATOM     10  C   UNL     1      -0.577  -2.999  -4.302  0.00  0.00    +0.225 A 
ATOM     11  N   UNL     1      -0.623  -4.321  -4.165  0.00  0.00    -0.181 NA
ATOM     12  C   UNL     1      -0.279  -4.882  -3.010  0.00  0.00    +0.221 A 
ATOM     13  N   UNL     1       0.118  -4.122  -1.994  0.00  0.00    -0.181 NA
ATOM     14  N   UNL     1      -0.327  -6.254  -2.868  0.00  0.00    -0.310 N 
ATOM     15  N   UNL     1      -0.936  -2.416  -5.502  0.00  0.00    -0.283 N 
ATOM     16  H   UNL     1       1.430  -0.272   1.263  0.00  0.00    -0.085 HD
ATOM     17  H   UNL     1      -0.075  -6.664  -2.026  0.00  0.00    +0.149 HD
ATOM     18  H   UNL     1      -0.979  -1.450  -5.578  0.00  0.00    +0.155 HD
ATOM     19  H   UNL     1      -0.002   0.014   2.023  0.00  0.00    -0.085 HD
ENDROOT
BRANCH  14  20
ATOM     20  C   UNL     1      -0.758  -7.092  -3.990  0.00  0.00    +0.082 C 
ATOM     21  C   UNL     1      -2.278  -7.352  -3.927  0.00  0.00    +0.058 C 
ATOM     22  C   UNL     1      -2.460  -8.765  -4.439  0.00  0.00    -0.042 A 
ATOM     23  C   UNL     1      -3.593  -9.415  -4.899  0.00  0.00    +0.004 A 
ATOM     24  C   UNL     1      -3.519 -10.727  -5.323  0.00  0.00    +0.000 A 
ATOM     25  C   UNL     1      -2.309 -11.395  -5.289  0.00  0.00    +0.000 A 
ATOM     26  C   UNL     1      -1.177 -10.749  -4.831  0.00  0.00    +0.004 A 
ATOM     27  C   UNL     1      -1.250  -9.433  -4.406  0.00  0.00    -0.042 A 
ATOM     28  C   UNL     1      -0.173  -8.515  -3.868  0.00  0.00    +0.058 C 
ENDBRANCH  14  20
BRANCH  15  29
ATOM     29  C   UNL     1      -1.235  -3.216  -6.604  0.00  0.00    +0.036 A 
ATOM     30  C   UNL     1      -2.185  -2.814  -7.543  0.00  0.00    +0.041 A 
ATOM     31  C   UNL     1      -2.452  -3.634  -8.619  0.00  0.00    +0.084 A 
ATOM     32  N   UNL     1      -1.823  -4.785  -8.765  0.00  0.00    -0.367 N 
ATOM     33  C   UNL     1      -0.918  -5.200  -7.898  0.00  0.00    +0.084 A 
ATOM     34  C   UNL     1      -0.589  -4.436  -6.799  0.00  0.00    +0.041 A 
ATOM     35  H   UNL     1      -2.032  -5.342  -9.531  0.00  0.00    +0.165 HD
ENDBRANCH  15  29
TORSDOF 2
