REMARK  Name = ZINC39693373
REMARK  14 active torsions:
REMARK  status: ('A' for Active; 'I' for Inactive)
REMARK    1  A    between atoms: C_1  and  C_2
REMARK    2  A    between atoms: C_2  and  C_3
REMARK    3  A    between atoms: C_3  and  C_4
REMARK    4  A    between atoms: C_4  and  C_6
REMARK    5  A    between atoms: C_4  and  C_7
REMARK    6  A    between atoms: C_11  and  C_20
REMARK    7  A    between atoms: N_22  and  C_23
REMARK    8  A    between atoms: C_23  and  C_24
REMARK    9  A    between atoms: C_24  and  N_25
REMARK   10  A    between atoms: C_26  and  O_28
REMARK   11  A    between atoms: O_28  and  C_29
REMARK   12  A    between atoms: C_29  and  C_30
REMARK   13  A    between atoms: C_29  and  C_31
REMARK   14  A    between atoms: C_29  and  C_32
REMARK                            x       y       z     vdW  Elec       q    Type
REMARK                         _______ _______ _______ _____ _____    ______ ____
ROOT
ATOM      1  C   UNL     1       1.432  -2.532  -2.693  0.00  0.00    +0.218 C 
ATOM      2  O   UNL     1       1.761  -1.758  -3.567  0.00  0.00    -0.275 OA
ATOM      3  N   UNL     1       1.505  -3.861  -2.906  0.00  0.00    -0.300 N 
ATOM      4  C   UNL     1       1.145  -4.952  -1.970  0.00  0.00    +0.121 C 
ATOM      5  C   UNL     1       0.462  -6.017  -2.857  0.00  0.00    +0.100 C 
ATOM      6  C   UNL     1       1.005  -5.756  -4.272  0.00  0.00    -0.004 C 
ATOM      7  C   UNL     1       1.958  -4.561  -4.131  0.00  0.00    +0.115 C 
ATOM      8  C   UNL     1      -0.138  -5.404  -5.220  0.00  0.00    -0.010 C 
ATOM      9  C   UNL     1       0.420  -5.205  -6.632  0.00  0.00    -0.082 C 
ATOM     10  N   UNL     1       1.087  -6.436  -7.074  0.00  0.00    +0.379 N 
ATOM     11  C   UNL     1       2.241  -6.717  -6.212  0.00  0.00    -0.082 C 
ATOM     12  C   UNL     1       1.761  -6.979  -4.782  0.00  0.00    -0.010 C 
ATOM     13  H   UNL     1       0.437  -7.206  -7.025  0.00  0.00    -0.086 HD
ATOM     14  H   UNL     1       1.400  -6.324  -8.026  0.00  0.00    -0.086 HD
ENDROOT
BRANCH   5  15
ATOM     15  C   UNL     1       0.836  -7.402  -2.395  0.00  0.00    +0.218 C 
ATOM     16  O   UNL     1       1.917  -7.599  -1.883  0.00  0.00    -0.275 OA
ATOM     17  N   UNL     1      -0.032  -8.421  -2.552  0.00  0.00    -0.314 N 
ATOM     18  H   UNL     1      -0.896  -8.264  -2.962  0.00  0.00    +0.149 HD
BRANCH  17  19
ATOM     19  C   UNL     1       0.332  -9.768  -2.104  0.00  0.00    +0.123 C 
BRANCH  19  20
ATOM     20  C   UNL     1      -0.820 -10.731  -2.397  0.00  0.00    +0.126 C 
BRANCH  20  21
ATOM     21  N   UNL     1      -0.456 -12.078  -1.948  0.00  0.00    -0.280 N 
ATOM     22  C   UNL     1      -1.324 -13.098  -2.105  0.00  0.00    +0.401 C 
ATOM     23  O   UNL     1      -2.407 -12.900  -2.619  0.00  0.00    -0.226 OA
ATOM     24  H   UNL     1       0.408 -12.236  -1.538  0.00  0.00    +0.152 HD
BRANCH  22  25
ATOM     25  O   UNL     1      -0.990 -14.335  -1.693  0.00  0.00    -0.445 OA
BRANCH  25  26
ATOM     26  C   UNL     1      -1.957 -15.368  -1.891  0.00  0.00    +0.107 C 
ATOM     27  C   UNL     1      -2.264 -15.501  -3.384  0.00  0.00    +0.055 C 
ATOM     28  C   UNL     1      -1.403 -16.693  -1.364  0.00  0.00    +0.055 C 
ATOM     29  C   UNL     1      -3.240 -15.016  -1.136  0.00  0.00    +0.055 C 
ENDBRANCH  25  26
ENDBRANCH  22  25
ENDBRANCH  20  21
ENDBRANCH  19  20
ENDBRANCH  17  19
ENDBRANCH   5  15
BRANCH   1  30
ATOM     30  C   UNL     1       0.942  -2.007  -1.368  0.00  0.00    +0.072 C 
ATOM     31  C   UNL     1       1.856  -2.511  -0.250  0.00  0.00    +0.017 C 
BRANCH  30  32
ATOM     32  C   UNL     1       0.956  -0.477  -1.389  0.00  0.00    +0.012 C 
BRANCH  32  34
ATOM     33  C   UNL     1       0.357   1.586  -0.113  0.00  0.00    +0.004 C 
ATOM     34  C   UNL     1       0.342   0.056  -0.093  0.00  0.00    -0.003 C 
ENDBRANCH  32  34
ENDBRANCH  30  32
ENDBRANCH   1  30
TORSDOF 9
