REMARK  Name = ZINC64726072
REMARK  10 active torsions:
REMARK  status: ('A' for Active; 'I' for Inactive)
REMARK    1  A    between atoms: C_1  and  C_2
REMARK    2  A    between atoms: C_2  and  C_4
REMARK    3  A    between atoms: C_2  and  N_17
REMARK    4  A    between atoms: N_6  and  C_7
REMARK    5  A    between atoms: N_17  and  C_18
REMARK    6  A    between atoms: C_18  and  C_19
REMARK    7  A    between atoms: C_19  and  C_21
REMARK    8  A    between atoms: C_19  and  C_29
REMARK    9  A    between atoms: C_24  and  O_27
REMARK   10  A    between atoms: O_27  and  C_28
REMARK                            x       y       z     vdW  Elec       q    Type
REMARK                         _______ _______ _______ _____ _____    ______ ____
ROOT
ATOM      1  C   UNL     1      -2.047  -0.135  -1.240  0.00  0.00    -0.069 C 
ENDROOT
BRANCH   1   2
ATOM      2  N   UNL     1      -1.375  -0.514   0.011  0.00  0.00    +0.387 N 
ATOM      3  H   UNL     1      -1.364  -1.520   0.095  0.00  0.00    -0.085 HD
ATOM      4  H   UNL     1      -1.872  -0.117   0.794  0.00  0.00    -0.085 HD
BRANCH   2   6
ATOM      5  C   UNL     1      -0.013   1.521  -0.004  0.00  0.00    -0.004 C 
ATOM      6  C   UNL     1       0.004  -0.009  -0.002  0.00  0.00    +0.013 C 
BRANCH   6   7
ATOM      7  C   UNL     1       0.730  -0.502   1.224  0.00  0.00    +0.203 C 
ATOM      8  O   UNL     1       0.155  -1.204   2.028  0.00  0.00    -0.277 OA
ATOM      9  N   UNL     1       2.019  -0.161   1.426  0.00  0.00    -0.287 N 
ATOM     10  H   UNL     1       2.498   0.344   0.751  0.00  0.00    +0.155 HD
BRANCH   9  11
ATOM     11  C   UNL     1       2.665  -0.537   2.611  0.00  0.00    +0.037 A 
ATOM     12  C   UNL     1       3.603   0.308   3.189  0.00  0.00    +0.027 A 
ATOM     13  C   UNL     1       4.241  -0.063   4.356  0.00  0.00    +0.051 A 
ATOM     14  C   UNL     1       3.947  -1.279   4.955  0.00  0.00    +0.162 A 
ATOM     15  C   UNL     1       3.007  -2.126   4.380  0.00  0.00    +0.164 A 
ATOM     16  C   UNL     1       2.365  -1.752   3.210  0.00  0.00    +0.072 A 
ATOM     17  O   UNL     1       2.700  -3.320   4.957  0.00  0.00    -0.485 OA
ATOM     18  C   UNL     1       3.627  -3.825   5.924  0.00  0.00    +0.270 C 
ATOM     19  C   UNL     1       3.999  -2.680   6.876  0.00  0.00    +0.270 C 
ATOM     20  O   UNL     1       4.589  -1.629   6.104  0.00  0.00    -0.485 OA
ENDBRANCH   9  11
ENDBRANCH   6   7
ENDBRANCH   2   6
ENDBRANCH   1   2
BRANCH   1  21
ATOM     21  C   UNL     1      -3.483  -0.661  -1.227  0.00  0.00    +0.030 C 
BRANCH  21  22
ATOM     22  C   UNL     1      -4.260   0.025  -0.133  0.00  0.00    -0.036 C 
ATOM     23  C   UNL     1      -4.863  -0.560   0.927  0.00  0.00    -0.001 A 
ATOM     24  C   UNL     1      -4.972  -1.958   1.361  0.00  0.00    +0.010 A 
ATOM     25  C   UNL     1      -5.657  -2.242   2.493  0.00  0.00    +0.001 A 
ATOM     26  C   UNL     1      -6.264  -1.237   3.259  0.00  0.00    +0.002 A 
ATOM     27  C   UNL     1      -6.207   0.070   2.924  0.00  0.00    +0.026 A 
ATOM     28  C   UNL     1      -5.512   0.482   1.754  0.00  0.00    +0.043 A 
ATOM     29  N   UNL     1      -5.318   1.666   1.225  0.00  0.00    -0.380 N 
ATOM     30  C   UNL     1      -4.518   1.509   0.006  0.00  0.00    +0.145 C 
ATOM     31  H   UNL     1      -5.645   2.506   1.583  0.00  0.00    +0.160 HD
ENDBRANCH  21  22
BRANCH  21  32
ATOM     32  C   UNL     1      -4.133  -0.380  -2.557  0.00  0.00    -0.042 A 
ATOM     33  C   UNL     1      -4.253   0.923  -3.005  0.00  0.00    +0.008 A 
ATOM     34  C   UNL     1      -4.849   1.184  -4.223  0.00  0.00    +0.046 A 
ATOM     35  C   UNL     1      -5.327   0.137  -4.998  0.00  0.00    +0.120 A 
ATOM     36  C   UNL     1      -5.205  -1.169  -4.547  0.00  0.00    +0.046 A 
ATOM     37  C   UNL     1      -4.604  -1.425  -3.330  0.00  0.00    +0.008 A 
BRANCH  35  38
ATOM     38  O   UNL     1      -5.914   0.391  -6.198  0.00  0.00    -0.495 OA
ATOM     39  C   UNL     1      -6.383  -0.735  -6.942  0.00  0.00    +0.277 C 
ENDBRANCH  35  38
ENDBRANCH  21  32
ENDBRANCH   1  21
TORSDOF 8
