REMARK  Name = ZINC62241049
REMARK  9 active torsions:
REMARK  status: ('A' for Active; 'I' for Inactive)
REMARK    1  A    between atoms: C_1  and  C_2
REMARK    2  A    between atoms: C_2  and  O_3
REMARK    3  A    between atoms: O_3  and  C_4
REMARK    4  A    between atoms: C_7  and  C_10
REMARK    5  A    between atoms: C_10  and  C_16
REMARK    6  A    between atoms: C_16  and  N_17
REMARK    7  A    between atoms: N_17  and  C_18
REMARK    8  A    between atoms: C_18  and  C_19
REMARK    9  A    between atoms: C_18  and  C_20
REMARK                            x       y       z     vdW  Elec       q    Type
REMARK                         _______ _______ _______ _____ _____    ______ ____
ROOT
ATOM      1  C   UNL     1       1.044  -6.301   1.801  0.00  0.00    -0.015 C 
ATOM      2  C   UNL     1      -0.222  -7.105   2.114  0.00  0.00    +0.038 C 
ATOM      3  C   UNL     1       0.152  -8.577   2.303  0.00  0.00    +0.160 C 
ATOM      4  O   UNL     1       0.802  -9.057   1.125  0.00  0.00    -0.380 OA
ATOM      5  C   UNL     1       2.017  -8.374   0.809  0.00  0.00    +0.160 C 
ATOM      6  C   UNL     1       1.719  -6.894   0.560  0.00  0.00    +0.038 C 
ENDROOT
BRANCH   1  10
ATOM      7  C   UNL     1       0.001  -2.225   1.052  0.00  0.00    +0.121 A 
ATOM      8  C   UNL     1      -0.651  -3.245   0.374  0.00  0.00    +0.046 A 
ATOM      9  C   UNL     1      -0.311  -4.562   0.618  0.00  0.00    +0.008 A 
ATOM     10  C   UNL     1       0.677  -4.864   1.537  0.00  0.00    -0.043 A 
ATOM     11  C   UNL     1       1.327  -3.849   2.214  0.00  0.00    +0.008 A 
ATOM     12  C   UNL     1       0.996  -2.530   1.970  0.00  0.00    +0.046 A 
BRANCH   7  13
ATOM     13  O   UNL     1      -0.330  -0.929   0.814  0.00  0.00    -0.492 OA
BRANCH  13  15
ATOM     14  C   UNL     1      -1.596   0.817  -0.276  0.00  0.00    +0.048 C 
ATOM     15  C   UNL     1      -1.364  -0.689  -0.143  0.00  0.00    +0.225 C 
ENDBRANCH  13  15
ENDBRANCH   7  13
ENDBRANCH   1  10
BRANCH   1  16
ATOM     16  C   UNL     1       2.005  -6.373   2.989  0.00  0.00    -0.070 C 
BRANCH  16  17
ATOM     17  N   UNL     1       1.321  -5.906   4.202  0.00  0.00    +0.387 N 
ATOM     18  H   UNL     1       1.099  -4.926   4.107  0.00  0.00    -0.085 HD
ATOM     19  H   UNL     1       0.470  -6.432   4.332  0.00  0.00    -0.085 HD
BRANCH  17  20
ATOM     20  C   UNL     1       2.198  -6.098   5.365  0.00  0.00    +0.013 C 
ATOM     21  C   UNL     1       3.431  -5.205   5.227  0.00  0.00    -0.004 C 
BRANCH  20  22
ATOM     22  C   UNL     1       1.452  -5.734   6.622  0.00  0.00    +0.206 C 
ATOM     23  O   UNL     1       0.303  -5.352   6.557  0.00  0.00    -0.277 OA
ATOM     24  N   UNL     1       2.061  -5.833   7.820  0.00  0.00    -0.242 N 
ATOM     25  C   UNL     1       1.394  -5.508   8.945  0.00  0.00    +0.303 C 
ATOM     26  O   UNL     1       0.243  -5.125   8.879  0.00  0.00    -0.253 OA
ATOM     27  N   UNL     1       2.004  -5.607  10.143  0.00  0.00    -0.313 N 
ATOM     28  H   UNL     1       2.980  -6.139   7.873  0.00  0.00    +0.159 HD
ATOM     29  H   UNL     1       2.923  -5.913  10.195  0.00  0.00    +0.146 HD
ATOM     30  H   UNL     1       1.524  -5.372  10.953  0.00  0.00    +0.146 HD
ENDBRANCH  20  22
ENDBRANCH  17  20
ENDBRANCH  16  17
ENDBRANCH   1  16
TORSDOF 7
