REMARK  Name = ZINC49297231
REMARK  5 active torsions:
REMARK  status: ('A' for Active; 'I' for Inactive)
REMARK    1  A    between atoms: C_2  and  C_3
REMARK    2  A    between atoms: C_3  and  N_4
REMARK    3  A    between atoms: C_5  and  C_7
REMARK    4  A    between atoms: C_7  and  C_8
REMARK    5  A    between atoms: C_8  and  C_9
REMARK                            x       y       z     vdW  Elec       q    Type
REMARK                         _______ _______ _______ _____ _____    ______ ____
ROOT
ATOM      1  C   UNL     1       4.106  -4.535   4.023  0.00  0.00    +0.080 C 
ATOM      2  C   UNL     1       5.385  -5.369   4.085  0.00  0.00    +0.049 C 
ATOM      3  C   UNL     1       5.572  -5.909   5.480  0.00  0.00    -0.025 A 
ATOM      4  C   UNL     1       6.157  -7.145   5.669  0.00  0.00    +0.005 A 
ATOM      5  C   UNL     1       6.341  -7.636   6.949  0.00  0.00    +0.000 A 
ATOM      6  C   UNL     1       5.939  -6.891   8.042  0.00  0.00    +0.002 A 
ATOM      7  C   UNL     1       5.348  -5.657   7.859  0.00  0.00    +0.023 A 
ATOM      8  C   UNL     1       5.157  -5.163   6.575  0.00  0.00    +0.037 A 
ATOM      9  N   UNL     1       4.528  -3.929   6.388  0.00  0.00    -0.285 N 
ATOM     10  C   UNL     1       4.072  -3.568   5.177  0.00  0.00    +0.221 C 
ATOM     11  O   UNL     1       3.628  -2.451   5.012  0.00  0.00    -0.275 OA
ATOM     12  H   UNL     1       4.421  -3.326   7.140  0.00  0.00    +0.155 HD
ENDROOT
BRANCH   1  13
ATOM     13  C   UNL     1       4.071  -3.756   2.706  0.00  0.00    +0.022 C 
BRANCH  13  14
ATOM     14  C   UNL     1       3.965  -4.737   1.536  0.00  0.00    +0.096 C 
BRANCH  14  16
ATOM     15  N   UNL     1       3.691  -4.630  -0.920  0.00  0.00    -0.311 N 
ATOM     16  C   UNL     1       3.804  -3.969   0.250  0.00  0.00    +0.213 C 
ATOM     17  O   UNL     1       3.777  -2.757   0.266  0.00  0.00    -0.276 OA
ATOM     18  H   UNL     1       3.713  -5.599  -0.933  0.00  0.00    +0.149 HD
BRANCH  15  19
ATOM     19  C   UNL     1       3.535  -3.883  -2.170  0.00  0.00    +0.146 C 
BRANCH  19  21
ATOM     20  C   UNL     1       2.320  -4.926  -4.015  0.00  0.00    +0.021 C 
ATOM     21  C   UNL     1       3.431  -4.849  -3.322  0.00  0.00    +0.005 C 
ATOM     22 BR   UNL     1       4.901  -5.951  -3.768  0.00  0.00    -0.054 Br
ENDBRANCH  19  21
ENDBRANCH  15  19
ENDBRANCH  14  16
ENDBRANCH  13  14
ENDBRANCH   1  13
TORSDOF 5
