REMARK  Name = ZINC11814752
REMARK  10 active torsions:
REMARK  status: ('A' for Active; 'I' for Inactive)
REMARK    1  A    between atoms: C_1  and  C_2
REMARK    2  A    between atoms: C_2  and  C_19
REMARK    3  A    between atoms: N_5  and  C_9
REMARK    4  A    between atoms: C_9  and  C_10
REMARK    5  A    between atoms: C_10  and  C_11
REMARK    6  A    between atoms: C_14  and  O_17
REMARK    7  A    between atoms: O_17  and  C_18
REMARK    8  A    between atoms: C_25  and  C_27
REMARK    9  A    between atoms: C_32  and  C_34
REMARK   10  A    between atoms: C_32  and  C_35
REMARK                            x       y       z     vdW  Elec       q    Type
REMARK                         _______ _______ _______ _____ _____    ______ ____
ROOT
ATOM      1  C   UNL     1       0.097   0.904  -0.184  0.00  0.00    +0.042 C 
ATOM      2  C   UNL     1      -0.059  -0.616  -0.122  0.00  0.00    +0.113 C 
ATOM      3  C   UNL     1       0.653  -1.273  -1.288  0.00  0.00    +0.247 C 
ATOM      4  O   UNL     1       0.420  -1.122  -2.467  0.00  0.00    -0.273 OA
ATOM      5  N   UNL     1       1.600  -2.060  -0.740  0.00  0.00    -0.224 N 
ATOM      6  C   UNL     1       1.586  -1.992   0.596  0.00  0.00    +0.309 C 
ATOM      7  O   UNL     1       2.346  -2.613   1.313  0.00  0.00    -0.252 OA
ATOM      8  N   UNL     1       0.635  -1.160   1.059  0.00  0.00    -0.285 N 
ATOM      9  H   UNL     1       0.444  -0.958   1.988  0.00  0.00    +0.151 HD
ENDROOT
BRANCH   2  10
ATOM     10  C   UNL     1      -1.538  -1.004  -0.102  0.00  0.00    +0.024 C 
ATOM     11  C   UNL     1      -2.185  -0.615  -1.434  0.00  0.00    +0.025 C 
ATOM     12  C   UNL     1      -3.658  -1.036  -1.424  0.00  0.00    +0.108 C 
ATOM     13  N   UNL     1      -4.309  -0.452  -0.243  0.00  0.00    -0.295 N 
ATOM     14  C   UNL     1      -3.716  -0.689   1.080  0.00  0.00    +0.108 C 
ATOM     15  C   UNL     1      -2.243  -0.272   1.042  0.00  0.00    +0.025 C 
ATOM     16  C   UNL     1      -5.428   0.288  -0.372  0.00  0.00    +0.281 C 
ATOM     17  O   UNL     1      -6.008   0.689   0.617  0.00  0.00    -0.267 OA
BRANCH  16  18
ATOM     18  C   UNL     1      -5.952   0.612  -1.721  0.00  0.00    +0.186 C 
ATOM     19  C   UNL     1      -6.803  -0.246  -2.333  0.00  0.00    +0.097 C 
ATOM     20  C   UNL     1      -7.312   0.054  -3.621  0.00  0.00    +0.163 C 
ATOM     21  O   UNL     1      -8.083  -0.707  -4.168  0.00  0.00    -0.292 OA
ATOM     22  C   UNL     1      -6.884   1.331  -4.304  0.00  0.00    +0.126 C 
ATOM     23  C   UNL     1      -6.515   2.358  -3.225  0.00  0.00    +0.112 C 
ATOM     24  O   UNL     1      -5.580   1.762  -2.324  0.00  0.00    -0.480 OA
ATOM     25  C   UNL     1      -7.772   2.768  -2.456  0.00  0.00    +0.056 C 
ATOM     26  C   UNL     1      -5.886   3.588  -3.882  0.00  0.00    +0.056 C 
ENDBRANCH  16  18
ENDBRANCH   2  10
BRANCH   5  27
ATOM     27  C   UNL     1       2.530  -2.888  -1.512  0.00  0.00    +0.122 C 
BRANCH  27  28
ATOM     28  C   UNL     1       3.791  -2.081  -1.827  0.00  0.00    +0.054 C 
BRANCH  28  29
ATOM     29  C   UNL     1       4.747  -2.933  -2.621  0.00  0.00    -0.046 A 
ATOM     30  C   UNL     1       5.683  -3.713  -1.967  0.00  0.00    +0.007 A 
ATOM     31  C   UNL     1       6.561  -4.494  -2.693  0.00  0.00    +0.046 A 
ATOM     32  C   UNL     1       6.504  -4.496  -4.079  0.00  0.00    +0.120 A 
ATOM     33  C   UNL     1       5.564  -3.712  -4.733  0.00  0.00    +0.046 A 
ATOM     34  C   UNL     1       4.684  -2.937  -4.002  0.00  0.00    +0.007 A 
BRANCH  32  35
ATOM     35  O   UNL     1       7.367  -5.263  -4.795  0.00  0.00    -0.495 OA
ATOM     36  C   UNL     1       7.250  -5.215  -6.218  0.00  0.00    +0.277 C 
ENDBRANCH  32  35
ENDBRANCH  28  29
ENDBRANCH  27  28
ENDBRANCH   5  27
TORSDOF 6
