REMARK  Name = ZINC67334930
REMARK  7 active torsions:
REMARK  status: ('A' for Active; 'I' for Inactive)
REMARK    1  A    between atoms: C_1  and  C_2
REMARK    2  A    between atoms: C_2  and  C_3
REMARK    3  A    between atoms: C_3  and  N_4
REMARK    4  A    between atoms: C_5  and  C_7
REMARK    5  A    between atoms: C_8  and  N_26
REMARK    6  A    between atoms: C_9  and  C_12
REMARK    7  A    between atoms: N_17  and  C_20
REMARK                            x       y       z     vdW  Elec       q    Type
REMARK                         _______ _______ _______ _____ _____    ______ ____
ROOT
ATOM      1  C   UNL     1      -2.420  -4.272   0.461  0.00  0.00    +0.156 A 
ATOM      2  C   UNL     1      -3.547  -5.047   0.727  0.00  0.00    +0.076 A 
ATOM      3  C   UNL     1      -3.562  -6.261   0.038  0.00  0.00    +0.115 A 
ATOM      4  S   UNL     1      -2.034  -6.166  -0.872  0.00  0.00    +0.019 S 
ATOM      5  N   UNL     1      -1.509  -4.718  -0.378  0.00  0.00    -0.203 NA
ENDROOT
BRANCH   3   6
ATOM      6  C   UNL     1      -4.565  -7.327   0.059  0.00  0.00    +0.256 C 
ATOM      7  O   UNL     1      -5.750  -7.048   0.064  0.00  0.00    -0.269 OA
ATOM      8  N   UNL     1      -4.177  -8.617   0.073  0.00  0.00    -0.301 N 
ATOM      9  C   UNL     1      -2.756  -8.981  -0.041  0.00  0.00    +0.089 C 
ATOM     10  C   UNL     1      -2.412  -9.955   1.090  0.00  0.00    -0.059 C 
ATOM     11  N   UNL     1      -3.334 -11.097   1.049  0.00  0.00    +0.384 N 
ATOM     12  C   UNL     1      -4.704 -10.643   1.322  0.00  0.00    -0.059 C 
ATOM     13  C   UNL     1      -5.161  -9.702   0.207  0.00  0.00    +0.089 C 
ATOM     14  H   UNL     1      -3.298 -11.524   0.136  0.00  0.00    -0.081 HD
BRANCH  11  15
ATOM     15  C   UNL     1      -2.936 -12.083   2.063  0.00  0.00    -0.068 C 
ATOM     16  C   UNL     1      -1.513 -12.565   1.774  0.00  0.00    -0.015 C 
ATOM     17  C   UNL     1      -1.099 -13.592   2.830  0.00  0.00    -0.002 C 
ATOM     18  C   UNL     1      -2.059 -14.782   2.789  0.00  0.00    -0.000 C 
ATOM     19  C   UNL     1      -3.482 -14.300   3.078  0.00  0.00    -0.002 C 
ATOM     20  C   UNL     1      -3.897 -13.273   2.022  0.00  0.00    -0.015 C 
ENDBRANCH  11  15
ENDBRANCH   3   6
BRANCH   1  22
ATOM     21  N   UNL     1      -1.111  -2.263   0.937  0.00  0.00    -0.310 N 
ATOM     22  C   UNL     1      -2.252  -2.959   1.111  0.00  0.00    +0.265 C 
ATOM     23  O   UNL     1      -3.143  -2.504   1.802  0.00  0.00    -0.268 OA
ATOM     24  H   UNL     1      -0.401  -2.625   0.385  0.00  0.00    +0.149 HD
BRANCH  21  25
ATOM     25  C   UNL     1      -0.944  -0.958   1.582  0.00  0.00    +0.104 C 
BRANCH  25  27
ATOM     26  C   UNL     1       0.604   0.978   1.899  0.00  0.00    +0.005 C 
ATOM     27  C   UNL     1       0.429  -0.385   1.226  0.00  0.00    +0.015 C 
ENDBRANCH  25  27
ENDBRANCH  21  25
ENDBRANCH   1  22
BRANCH   2  28
ATOM     28  N   UNL     1      -4.557  -4.651   1.593  0.00  0.00    -0.355 N 
ATOM     29  H   UNL     1      -4.554  -3.755   1.965  0.00  0.00    +0.142 HD
ATOM     30  H   UNL     1      -5.266  -5.270   1.828  0.00  0.00    +0.142 HD
ENDBRANCH   2  28
TORSDOF 6
