REMARK  Name = ZINC36038140
REMARK  6 active torsions:
REMARK  status: ('A' for Active; 'I' for Inactive)
REMARK    1  A    between atoms: C_3  and  O_36
REMARK    2  A    between atoms: C_6  and  C_7
REMARK    3  A    between atoms: N_8  and  N_9
REMARK    4  A    between atoms: C_10  and  C_12
REMARK    5  A    between atoms: C_12  and  N_13
REMARK    6  A    between atoms: C_20  and  C_30
REMARK                            x       y       z     vdW  Elec       q    Type
REMARK                         _______ _______ _______ _____ _____    ______ ____
ROOT
ATOM      1  N   UNL     1       1.069  -6.237  -0.584  0.00  0.00    +0.392 N 
ATOM      2  C   UNL     1       0.504  -6.412  -1.929  0.00  0.00    -0.055 C 
ATOM      3  C   UNL     1      -0.063  -7.825  -2.115  0.00  0.00    +0.103 C 
ATOM      4  N   UNL     1       0.966  -8.786  -1.690  0.00  0.00    -0.347 N 
ATOM      5  C   UNL     1       1.064 -10.127  -1.906  0.00  0.00    +0.049 A 
ATOM      6  C   UNL     1       0.258 -11.020  -2.608  0.00  0.00    +0.027 A 
ATOM      7  C   UNL     1       0.649 -12.346  -2.629  0.00  0.00    +0.006 A 
ATOM      8  C   UNL     1       1.793 -12.788  -1.984  0.00  0.00    -0.044 A 
ATOM      9  C   UNL     1       2.610 -11.935  -1.285  0.00  0.00    +0.014 A 
ATOM     10  C   UNL     1       2.244 -10.586  -1.246  0.00  0.00    +0.003 A 
ATOM     11  C   UNL     1       2.836  -9.426  -0.637  0.00  0.00    -0.020 A 
ATOM     12  C   UNL     1       2.040  -8.383  -0.946  0.00  0.00    +0.009 A 
ATOM     13  C   UNL     1       2.342  -6.977  -0.481  0.00  0.00    -0.020 C 
ATOM     14  C   UNL     1       2.809  -7.045   0.964  0.00  0.00    -0.009 C 
ATOM     15  C   UNL     1       3.703  -8.206   1.324  0.00  0.00    +0.003 C 
ATOM     16  C   UNL     1       4.053  -9.183   0.211  0.00  0.00    +0.037 C 
ATOM     17  H   UNL     1       0.418  -6.590   0.102  0.00  0.00    -0.080 HD
ENDROOT
BRANCH   8  18
ATOM     18  C   UNL     1       2.151 -14.250  -2.052  0.00  0.00    +0.019 C 
ATOM     19  C   UNL     1       1.020 -15.081  -1.441  0.00  0.00    +0.008 C 
ATOM     20  C   UNL     1       1.384 -16.565  -1.510  0.00  0.00    +0.001 C 
ATOM     21  C   UNL     1       1.585 -16.974  -2.971  0.00  0.00    +0.000 C 
ATOM     22  C   UNL     1       2.715 -16.143  -3.581  0.00  0.00    +0.001 C 
ATOM     23  C   UNL     1       2.352 -14.659  -3.512  0.00  0.00    +0.008 C 
ENDBRANCH   8  18
BRANCH   1  24
ATOM     24  C   UNL     1       1.312  -4.809  -0.338  0.00  0.00    +0.021 C 
BRANCH  24  26
ATOM     25  N   UNL     1      -0.025  -2.740  -0.111  0.00  0.00    -0.209 N 
ATOM     26  C   UNL     1      -0.002  -4.071  -0.321  0.00  0.00    +0.216 C 
ATOM     27  O   UNL     1      -1.039  -4.675  -0.496  0.00  0.00    -0.276 OA
ATOM     28  H   UNL     1       0.804  -2.257   0.029  0.00  0.00    +0.177 HD
BRANCH  25  30
ATOM     29  C   UNL     1      -1.262  -0.759  -0.018  0.00  0.00    +0.138 C 
ATOM     30  N   UNL     1      -1.246  -2.054  -0.095  0.00  0.00    -0.188 NA
BRANCH  29  36
ATOM     31  C   UNL     1       0.865  -0.583  -1.297  0.00  0.00    +0.013 A 
ATOM     32  C   UNL     1       1.944   0.151  -1.741  0.00  0.00    +0.046 A 
ATOM     33  C   UNL     1       2.066   1.490  -1.393  0.00  0.00    +0.117 A 
ATOM     34  C   UNL     1       1.103   2.095  -0.596  0.00  0.00    +0.046 A 
ATOM     35  C   UNL     1       0.021   1.369  -0.148  0.00  0.00    +0.013 A 
ATOM     36  C   UNL     1      -0.106   0.022  -0.495  0.00  0.00    -0.005 A 
BRANCH  33  37
ATOM     37  O   UNL     1       3.131   2.209  -1.832  0.00  0.00    -0.507 OA
ATOM     38  H   UNL     1       2.987   2.647  -2.682  0.00  0.00    +0.292 HD
ENDBRANCH  33  37
ENDBRANCH  29  36
ENDBRANCH  25  30
ENDBRANCH  24  26
ENDBRANCH   1  24
TORSDOF 6
