REMARK  Name = ZINC48488776
REMARK  8 active torsions:
REMARK  status: ('A' for Active; 'I' for Inactive)
REMARK    1  A    between atoms: C_1  and  C_2
REMARK    2  A    between atoms: C_2  and  N_3
REMARK    3  A    between atoms: C_9  and  C_11
REMARK    4  A    between atoms: C_11  and  N_12
REMARK    5  A    between atoms: C_14  and  C_17
REMARK    6  A    between atoms: C_19  and  N_26
REMARK    7  A    between atoms: N_23  and  C_24
REMARK    8  A    between atoms: N_23  and  C_25
REMARK                            x       y       z     vdW  Elec       q    Type
REMARK                         _______ _______ _______ _____ _____    ______ ____
ROOT
ATOM      1  N   UNL     1       4.677  -2.668  -6.404  0.00  0.00    -0.262 N 
ATOM      2  C   UNL     1       5.334  -2.158  -7.463  0.00  0.00    +0.118 A 
ATOM      3  C   UNL     1       4.863  -2.784  -8.582  0.00  0.00    +0.036 A 
ATOM      4  C   UNL     1       3.881  -3.708  -8.169  0.00  0.00    +0.144 A 
ATOM      5  N   UNL     1       3.780  -3.637  -6.869  0.00  0.00    -0.179 NA
ENDROOT
BRANCH   3   6
ATOM      6  C   UNL     1       5.303  -2.536  -9.975  0.00  0.00    +0.055 A 
ATOM      7  C   UNL     1       6.292  -1.592 -10.247  0.00  0.00    +0.069 A 
ATOM      8  C   UNL     1       6.672  -1.394 -11.572  0.00  0.00    +0.122 A 
ATOM      9  N   UNL     1       6.083  -2.107 -12.528  0.00  0.00    -0.201 NA
ATOM     10  C   UNL     1       5.146  -2.996 -12.234  0.00  0.00    +0.197 A 
ATOM     11  N   UNL     1       4.762  -3.216 -10.986  0.00  0.00    -0.327 N 
ATOM     12  N   UNL     1       4.558  -3.717 -13.257  0.00  0.00    -0.307 N 
ATOM     13  C   UNL     1       4.883  -3.410 -14.652  0.00  0.00    +0.132 C 
ATOM     14  C   UNL     1       3.608  -4.789 -12.946  0.00  0.00    +0.132 C 
ATOM     15  H   UNL     1       4.076  -3.877 -10.806  0.00  0.00    +0.169 HD
BRANCH   8  16
ATOM     16  N   UNL     1       7.651  -0.466 -11.890  0.00  0.00    -0.343 N 
ATOM     17  H   UNL     1       8.076   0.051 -11.188  0.00  0.00    +0.144 HD
ATOM     18  H   UNL     1       7.912  -0.333 -12.815  0.00  0.00    +0.144 HD
ENDBRANCH   8  16
ENDBRANCH   3   6
BRANCH   1  19
ATOM     19  C   UNL     1       4.872  -2.281  -5.005  0.00  0.00    +0.239 C 
BRANCH  19  26
ATOM     20  N   UNL     1       0.669  -0.415  -1.226  0.00  0.00    -0.182 N 
ATOM     21  N   UNL     1       0.113  -0.660  -2.361  0.00  0.00    -0.159 NA
ATOM     22  C   UNL     1       1.016  -1.074  -3.214  0.00  0.00    +0.180 A 
ATOM     23  C   UNL     1       2.255  -1.093  -2.566  0.00  0.00    +0.167 A 
ATOM     24  N   UNL     1       2.042  -0.679  -1.333  0.00  0.00    -0.137 NA
ATOM     25  N   UNL     1       3.485  -1.474  -3.122  0.00  0.00    -0.266 N 
ATOM     26  C   UNL     1       3.550  -1.872  -4.408  0.00  0.00    +0.240 C 
ATOM     27  O   UNL     1       2.544  -1.902  -5.085  0.00  0.00    -0.273 OA
ATOM     28  H   UNL     1       4.290  -1.450  -2.580  0.00  0.00    +0.156 HD
BRANCH  20  30
ATOM     29  C   UNL     1      -0.027   1.596  -0.020  0.00  0.00    +0.031 C 
ATOM     30  C   UNL     1      -0.017   0.066  -0.024  0.00  0.00    +0.163 C 
ENDBRANCH  20  30
ENDBRANCH  19  26
ENDBRANCH   1  19
TORSDOF 5
