REMARK  Name = ZINC66243963
REMARK  9 active torsions:
REMARK  status: ('A' for Active; 'I' for Inactive)
REMARK    1  A    between atoms: C_1  and  O_2
REMARK    2  A    between atoms: O_2  and  C_3
REMARK    3  A    between atoms: C_6  and  C_9
REMARK    4  A    between atoms: C_9  and  C_10
REMARK    5  A    between atoms: C_10  and  N_11
REMARK    6  A    between atoms: N_14  and  C_15
REMARK    7  A    between atoms: C_15  and  C_16
REMARK    8  A    between atoms: C_19  and  C_22
REMARK    9  A    between atoms: C_22  and  N_23
REMARK                            x       y       z     vdW  Elec       q    Type
REMARK                         _______ _______ _______ _____ _____    ______ ____
ROOT
ATOM      1  N   UNL     1       2.249  -3.470   6.551  0.00  0.00    -0.357 N 
ATOM      2  C   UNL     1       1.538  -3.803   7.680  0.00  0.00    +0.169 C 
ATOM      3  N   UNL     1       0.266  -3.530   7.753  0.00  0.00    -0.371 N 
ATOM      4  N   UNL     1       2.169  -4.424   8.731  0.00  0.00    -0.354 N 
ATOM      5  H   UNL     1       3.196  -3.673   6.497  0.00  0.00    +0.162 HD
ATOM      6  H   UNL     1      -0.236  -3.764   8.549  0.00  0.00    +0.159 HD
ATOM      7  H   UNL     1       3.116  -4.628   8.677  0.00  0.00    +0.163 HD
ATOM      8  H   UNL     1      -0.179  -3.091   7.011  0.00  0.00    +0.159 HD
ENDROOT
BRANCH   1   9
ATOM      9  C   UNL     1       1.577  -2.808   5.431  0.00  0.00    +0.120 C 
BRANCH   9  10
ATOM     10  C   UNL     1       2.587  -2.550   4.310  0.00  0.00    +0.056 C 
BRANCH  10  14
ATOM     11  C   UNL     1       0.626  -0.618   1.042  0.00  0.00    +0.120 A 
ATOM     12  C   UNL     1       1.202   0.138   2.051  0.00  0.00    +0.046 A 
ATOM     13  C   UNL     1       1.835  -0.488   3.107  0.00  0.00    +0.007 A 
ATOM     14  C   UNL     1       1.895  -1.869   3.158  0.00  0.00    -0.045 A 
ATOM     15  C   UNL     1       1.322  -2.625   2.152  0.00  0.00    +0.007 A 
ATOM     16  C   UNL     1       0.682  -2.003   1.098  0.00  0.00    +0.046 A 
BRANCH  11  18
ATOM     17  C   UNL     1      -0.017   1.425   0.010  0.00  0.00    +0.277 C 
ATOM     18  O   UNL     1       0.002  -0.004   0.002  0.00  0.00    -0.495 OA
ENDBRANCH  11  18
ENDBRANCH  10  14
ENDBRANCH   9  10
ENDBRANCH   1   9
BRANCH   4  19
ATOM     19  C   UNL     1       1.412  -4.779   9.934  0.00  0.00    +0.151 C 
BRANCH  19  20
ATOM     20  C   UNL     1       2.329  -5.444  10.928  0.00  0.00    -0.028 A 
ATOM     21  C   UNL     1       2.498  -6.816  10.903  0.00  0.00    +0.006 A 
ATOM     22  C   UNL     1       3.339  -7.425  11.815  0.00  0.00    +0.006 A 
ATOM     23  C   UNL     1       4.013  -6.663  12.751  0.00  0.00    -0.028 A 
ATOM     24  C   UNL     1       3.845  -5.291  12.775  0.00  0.00    +0.006 A 
ATOM     25  C   UNL     1       3.007  -4.681  11.861  0.00  0.00    +0.006 A 
BRANCH  23  26
ATOM     26  C   UNL     1       4.929  -7.328  13.745  0.00  0.00    +0.160 C 
BRANCH  26  27
ATOM     27  N   UNL     1       6.283  -7.399  13.190  0.00  0.00    -0.311 N 
ATOM     28  C   UNL     1       6.652  -8.481  12.458  0.00  0.00    +0.089 A 
ATOM     29  C   UNL     1       7.897  -8.570  11.935  0.00  0.00    +0.018 A 
ATOM     30  C   UNL     1       8.820  -7.537  12.147  0.00  0.00    +0.007 A 
ATOM     31  C   UNL     1       8.448  -6.450  12.883  0.00  0.00    +0.070 A 
ATOM     32  C   UNL     1       7.146  -6.388  13.407  0.00  0.00    +0.252 A 
ATOM     33  O   UNL     1       6.798  -5.419  14.063  0.00  0.00    -0.268 OA
ENDBRANCH  26  27
ENDBRANCH  23  26
ENDBRANCH  19  20
ENDBRANCH   4  19
TORSDOF 8
