REMARK  Name = ZINC39669882
REMARK  7 active torsions:
REMARK  status: ('A' for Active; 'I' for Inactive)
REMARK    1  A    between atoms: C_1  and  O_2
REMARK    2  A    between atoms: O_2  and  C_3
REMARK    3  A    between atoms: C_8  and  C_13
REMARK    4  A    between atoms: C_13  and  C_14
REMARK    5  A    between atoms: C_14  and  N_15
REMARK    6  A    between atoms: C_16  and  C_18
REMARK    7  A    between atoms: C_29  and  C_31
REMARK                            x       y       z     vdW  Elec       q    Type
REMARK                         _______ _______ _______ _____ _____    ______ ____
ROOT
ATOM      1  N   UNL     1      -6.557  -6.625   2.740  0.00  0.00    -0.315 N 
ATOM      2  C   UNL     1      -7.788  -6.607   2.192  0.00  0.00    +0.218 C 
ATOM      3  O   UNL     1      -8.216  -5.587   1.695  0.00  0.00    -0.275 OA
ATOM      4  H   UNL     1      -6.215  -7.441   3.138  0.00  0.00    +0.149 HD
ENDROOT
BRANCH   2   5
ATOM      5  C   UNL     1      -8.634  -7.854   2.198  0.00  0.00    +0.100 C 
ATOM      6  C   UNL     1      -9.598  -7.856   0.990  0.00  0.00    +0.121 C 
ATOM      7  N   UNL     1     -10.850  -8.453   1.511  0.00  0.00    -0.300 N 
ATOM      8  C   UNL     1     -10.987  -7.889   2.875  0.00  0.00    +0.115 C 
ATOM      9  C   UNL     1      -9.550  -7.875   3.433  0.00  0.00    -0.004 C 
ATOM     10  C   UNL     1      -9.325  -6.625   4.279  0.00  0.00    -0.010 C 
ATOM     11  C   UNL     1     -10.203  -6.697   5.531  0.00  0.00    -0.082 C 
ATOM     12  N   UNL     1      -9.864  -7.900   6.301  0.00  0.00    +0.379 N 
ATOM     13  C   UNL     1     -10.172  -9.100   5.514  0.00  0.00    -0.082 C 
ATOM     14  C   UNL     1      -9.292  -9.131   4.261  0.00  0.00    -0.010 C 
ATOM     15  C   UNL     1     -11.678  -9.313   0.886  0.00  0.00    +0.219 C 
ATOM     16  O   UNL     1     -12.674  -9.715   1.450  0.00  0.00    -0.275 OA
ATOM     17  H   UNL     1      -8.881  -7.888   6.524  0.00  0.00    -0.086 HD
ATOM     18  H   UNL     1     -10.401  -7.913   7.155  0.00  0.00    -0.086 HD
BRANCH  15  19
ATOM     19  C   UNL     1     -11.366  -9.777  -0.514  0.00  0.00    +0.075 C 
ATOM     20  C   UNL     1     -11.813  -8.788  -1.604  0.00  0.00    +0.013 C 
ATOM     21  C   UNL     1     -12.254 -10.012  -2.423  0.00  0.00    +0.001 C 
ATOM     22  C   UNL     1     -12.406 -10.755  -1.085  0.00  0.00    +0.013 C 
ENDBRANCH  15  19
ENDBRANCH   2   5
BRANCH   1  23
ATOM     23  C   UNL     1      -5.735  -5.413   2.735  0.00  0.00    +0.112 C 
BRANCH  23  24
ATOM     24  C   UNL     1      -4.394  -5.703   3.413  0.00  0.00    +0.093 C 
BRANCH  24  30
ATOM     25  C   UNL     1      -0.968  -0.778   4.007  0.00  0.00    +0.122 A 
ATOM     26  C   UNL     1      -1.132  -0.724   2.625  0.00  0.00    +0.048 A 
ATOM     27  C   UNL     1      -1.869  -1.672   1.975  0.00  0.00    +0.033 A 
ATOM     28  C   UNL     1      -2.467  -2.708   2.698  0.00  0.00    +0.089 A 
ATOM     29  N   UNL     1      -3.238  -3.770   2.346  0.00  0.00    -0.232 NA
ATOM     30  C   UNL     1      -3.549  -4.455   3.408  0.00  0.00    +0.110 A 
ATOM     31  H   UNL     1      -3.079  -4.198   5.426  0.00  0.00    +0.167 HD
ATOM     32  N   UNL     1      -2.998  -3.881   4.513  0.00  0.00    -0.342 N 
ATOM     33  C   UNL     1      -2.303  -2.765   4.092  0.00  0.00    +0.070 A 
ATOM     34  C   UNL     1      -1.546  -1.798   4.740  0.00  0.00    +0.073 A 
BRANCH  25  36
ATOM     35  C   UNL     1       0.339   1.200   3.822  0.00  0.00    +0.277 C 
ATOM     36  O   UNL     1      -0.230   0.174   4.638  0.00  0.00    -0.495 OA
ENDBRANCH  25  36
ENDBRANCH  24  30
ENDBRANCH  23  24
ENDBRANCH   1  23
TORSDOF 6
