REMARK  Name = ZINC19961938
REMARK  8 active torsions:
REMARK  status: ('A' for Active; 'I' for Inactive)
REMARK    1  A    between atoms: C_1  and  C_2
REMARK    2  A    between atoms: C_2  and  O_3
REMARK    3  A    between atoms: O_3  and  C_4
REMARK    4  A    between atoms: N_9  and  C_12
REMARK    5  A    between atoms: C_12  and  C_13
REMARK    6  A    between atoms: C_21  and  C_23
REMARK    7  A    between atoms: C_23  and  C_24
REMARK    8  A    between atoms: N_26  and  C_27
REMARK                            x       y       z     vdW  Elec       q    Type
REMARK                         _______ _______ _______ _____ _____    ______ ____
ROOT
ATOM      1  C   UNL     1      -0.461   1.026   1.102  0.00  0.00    +0.200 C 
ATOM      2  O   UNL     1      -1.394   1.772   0.890  0.00  0.00    -0.278 OA
ATOM      3  N   UNL     1      -0.047   0.807   2.366  0.00  0.00    -0.289 N 
ATOM      4  C   UNL     1       1.077  -0.098   2.658  0.00  0.00    +0.127 C 
ATOM      5  C   UNL     1       2.182   0.725   3.336  0.00  0.00    +0.123 C 
ATOM      6  N   UNL     1       1.627   1.560   4.393  0.00  0.00    -0.312 N 
ATOM      7  C   UNL     1       0.350   1.935   4.470  0.00  0.00    +0.234 C 
ATOM      8  O   UNL     1       0.023   2.697   5.356  0.00  0.00    -0.274 OA
ATOM      9  C   UNL     1      -0.705   1.457   3.510  0.00  0.00    +0.170 C 
ATOM     10  H   UNL     1       2.277   1.925   5.202  0.00  0.00    +0.149 HD
ENDROOT
BRANCH   1  11
ATOM     11  C   UNL     1       0.235   0.344  -0.047  0.00  0.00    +0.019 C 
BRANCH  11  17
ATOM     12  C   UNL     1      -2.164  -0.031  -4.900  0.00  0.00    +0.403 C 
ATOM     13  O   UNL     1      -1.462  -0.270  -5.863  0.00  0.00    -0.226 OA
ATOM     14  N   UNL     1      -1.631   0.540  -3.802  0.00  0.00    -0.271 N 
ATOM     15  C   UNL     1      -0.201   0.882  -3.748  0.00  0.00    +0.092 C 
ATOM     16  C   UNL     1       0.392   0.293  -2.463  0.00  0.00    -0.059 C 
ATOM     17  N   UNL     1      -0.400   0.745  -1.310  0.00  0.00    +0.387 N 
ATOM     18  C   UNL     1      -1.781   0.250  -1.386  0.00  0.00    -0.059 C 
ATOM     19  C   UNL     1      -2.463   0.837  -2.626  0.00  0.00    +0.092 C 
ATOM     20  H   UNL     1      -0.435   1.844  -1.339  0.00  0.00    -0.081 HD
BRANCH  12  21
ATOM     21  O   UNL     1      -3.475  -0.337  -4.931  0.00  0.00    -0.451 OA
BRANCH  21  23
ATOM     22  C   UNL     1      -5.478  -1.223  -5.995  0.00  0.00    +0.048 C 
ATOM     23  C   UNL     1      -3.980  -0.950  -6.146  0.00  0.00    +0.230 C 
ENDBRANCH  21  23
ENDBRANCH  12  21
ENDBRANCH  11  17
ENDBRANCH   1  11
BRANCH   9  24
ATOM     24  C   UNL     1      -1.620   0.453   4.213  0.00  0.00    +0.128 C 
BRANCH  24  25
ATOM     25  C   UNL     1      -2.739   0.057   3.284  0.00  0.00    +0.219 C 
ATOM     26  O   UNL     1      -2.798   0.531   2.169  0.00  0.00    -0.275 OA
ATOM     27  N   UNL     1      -3.674  -0.824   3.692  0.00  0.00    -0.285 N 
ATOM     28  H   UNL     1      -3.573  -1.320   4.668  0.00  0.00    +0.155 HD
BRANCH  27  29
ATOM     29  C   UNL     1      -4.772  -1.108   2.873  0.00  0.00    +0.036 A 
ATOM     30  C   UNL     1      -5.309  -0.117   2.061  0.00  0.00    +0.043 A 
ATOM     31  C   UNL     1      -6.391  -0.402   1.249  0.00  0.00    +0.044 A 
ATOM     32  C   UNL     1      -6.945  -1.670   1.252  0.00  0.00    +0.040 A 
ATOM     33  C   UNL     1      -6.415  -2.658   2.063  0.00  0.00    +0.044 A 
ATOM     34  C   UNL     1      -5.330  -2.380   2.874  0.00  0.00    +0.043 A 
ATOM     35 CL   UNL     1      -7.113  -4.247   2.064  0.00  0.00    -0.083 Cl
ATOM     36 CL   UNL     1      -7.059   0.834   0.229  0.00  0.00    -0.083 Cl
ENDBRANCH  27  29
ENDBRANCH  24  25
ENDBRANCH   9  24
TORSDOF 7
