REMARK  Name = ZINC41583996
REMARK  11 active torsions:
REMARK  status: ('A' for Active; 'I' for Inactive)
REMARK    1  A    between atoms: C_1  and  C_2
REMARK    2  A    between atoms: C_5  and  C_38
REMARK    3  A    between atoms: N_8  and  C_10
REMARK    4  A    between atoms: C_10  and  C_11
REMARK    5  A    between atoms: C_12  and  O_37
REMARK    6  A    between atoms: C_18  and  C_33
REMARK    7  A    between atoms: C_19  and  O_22
REMARK    8  A    between atoms: O_22  and  C_23
REMARK    9  A    between atoms: C_26  and  C_29
REMARK   10  A    between atoms: C_29  and  O_31
REMARK   11  A    between atoms: O_31  and  C_32
REMARK                            x       y       z     vdW  Elec       q    Type
REMARK                         _______ _______ _______ _____ _____    ______ ____
ROOT
ATOM      1  C   UNL     1       2.732  -2.156   2.546  0.00  0.00    +0.020 A 
ATOM      2  C   UNL     1       3.544  -3.079   1.909  0.00  0.00    +0.122 A 
ATOM      3  C   UNL     1       4.889  -2.800   1.678  0.00  0.00    +0.046 A 
ATOM      4  C   UNL     1       5.426  -1.610   2.078  0.00  0.00    +0.019 A 
ATOM      5  C   UNL     1       4.621  -0.669   2.721  0.00  0.00    +0.068 A 
ATOM      6  C   UNL     1       3.260  -0.939   2.953  0.00  0.00    +0.144 A 
ATOM      7  O   UNL     1       2.491  -0.021   3.570  0.00  0.00    -0.447 OA
ATOM      8  C   UNL     1       2.970   1.162   3.976  0.00  0.00    +0.254 A 
ATOM      9  C   UNL     1       4.256   1.527   3.799  0.00  0.00    +0.222 A 
ATOM     10  C   UNL     1       5.161   0.626   3.168  0.00  0.00    +0.235 A 
ATOM     11  O   UNL     1       6.332   0.921   2.992  0.00  0.00    -0.283 OA
ENDROOT
BRANCH   8  12
ATOM     12  C   UNL     1       2.034   2.126   4.658  0.00  0.00    +0.454 C 
ATOM     13  F   UNL     1       2.756   3.232   5.118  0.00  0.00    -0.163 F 
ATOM     14  F   UNL     1       1.059   2.551   3.749  0.00  0.00    -0.163 F 
ATOM     15  F   UNL     1       1.416   1.489   5.740  0.00  0.00    -0.163 F 
ENDBRANCH   8  12
BRANCH   2  16
ATOM     16  O   UNL     1       3.025  -4.267   1.506  0.00  0.00    -0.506 OA
ATOM     17  H   UNL     1       2.666  -4.255   0.608  0.00  0.00    +0.292 HD
ENDBRANCH   2  16
BRANCH   1  18
ATOM     18  C   UNL     1       1.278  -2.469   2.790  0.00  0.00    -0.036 C 
BRANCH  18  24
ATOM     19  C   UNL     1      -0.121   1.435   0.189  0.00  0.00    +0.005 C 
ATOM     20  C   UNL     1      -0.203  -0.089   0.295  0.00  0.00    -0.031 C 
ATOM     21  C   UNL     1      -1.669  -0.515   0.412  0.00  0.00    +0.003 C 
ATOM     22  C   UNL     1      -1.736  -2.034   0.596  0.00  0.00    -0.031 C 
ATOM     23  C   UNL     1      -0.917  -2.429   1.826  0.00  0.00    -0.075 C 
ATOM     24  N   UNL     1       0.480  -2.018   1.642  0.00  0.00    +0.383 N 
ATOM     25  C   UNL     1       0.560  -0.556   1.536  0.00  0.00    -0.075 C 
ATOM     26  C   UNL     1      -3.192  -2.462   0.791  0.00  0.00    +0.005 C 
ATOM     27  H   UNL     1       0.844  -2.435   0.798  0.00  0.00    -0.081 HD
ENDBRANCH  18  24
ENDBRANCH   1  18
BRANCH   9  28
ATOM     28  O   UNL     1       4.689   2.743   4.231  0.00  0.00    -0.448 OA
BRANCH  28  29
ATOM     29  C   UNL     1       5.067   3.653   3.298  0.00  0.00    +0.129 A 
ATOM     30  C   UNL     1       4.893   3.373   1.947  0.00  0.00    +0.047 A 
ATOM     31  C   UNL     1       5.276   4.294   0.997  0.00  0.00    +0.018 A 
ATOM     32  C   UNL     1       5.840   5.510   1.393  0.00  0.00    +0.059 A 
ATOM     33  C   UNL     1       6.013   5.787   2.752  0.00  0.00    +0.018 A 
ATOM     34  C   UNL     1       5.623   4.864   3.696  0.00  0.00    +0.047 A 
BRANCH  32  35
ATOM     35  C   UNL     1       6.252   6.498   0.379  0.00  0.00    +0.339 C 
ATOM     36  O   UNL     1       6.101   6.256  -0.802  0.00  0.00    -0.245 OA
BRANCH  35  37
ATOM     37  O   UNL     1       6.796   7.670   0.762  0.00  0.00    -0.464 OA
ATOM     38  C   UNL     1       7.171   8.581  -0.274  0.00  0.00    +0.280 C 
ENDBRANCH  35  37
ENDBRANCH  32  35
ENDBRANCH  28  29
ENDBRANCH   9  28
TORSDOF 8
