REMARK  Name = ZINC41076645
REMARK  7 active torsions:
REMARK  status: ('A' for Active; 'I' for Inactive)
REMARK    1  A    between atoms: C_1  and  C_2
REMARK    2  A    between atoms: C_2  and  C_3
REMARK    3  A    between atoms: C_3  and  C_4
REMARK    4  A    between atoms: C_10  and  C_14
REMARK    5  A    between atoms: C_14  and  O_15
REMARK    6  A    between atoms: O_15  and  C_16
REMARK    7  A    between atoms: C_19  and  C_22
REMARK                            x       y       z     vdW  Elec       q    Type
REMARK                         _______ _______ _______ _____ _____    ______ ____
ROOT
ATOM      1  C   UNL     1       3.271  -9.688   2.362  0.00  0.00    +0.121 A 
ATOM      2  C   UNL     1       2.188 -10.562   2.357  0.00  0.00    +0.046 A 
ATOM      3  C   UNL     1       2.394 -11.910   2.426  0.00  0.00    +0.011 A 
ATOM      4  C   UNL     1       3.701 -12.414   2.501  0.00  0.00    -0.024 A 
ATOM      5  C   UNL     1       4.788 -11.528   2.505  0.00  0.00    +0.011 A 
ATOM      6  C   UNL     1       4.570 -10.182   2.431  0.00  0.00    +0.046 A 
ENDROOT
BRANCH   4   7
ATOM      7  C   UNL     1       3.929 -13.859   2.576  0.00  0.00    +0.024 C 
ATOM      8  C   UNL     1       5.009 -14.419   1.932  0.00  0.00    +0.081 C 
ATOM      9  C   UNL     1       5.385 -15.848   2.127  0.00  0.00    +0.152 C 
ATOM     10  N   UNL     1       4.513 -16.796   2.345  0.00  0.00    -0.283 NA
ATOM     11  N   UNL     1       6.776 -16.077   2.054  0.00  0.00    -0.152 N 
ATOM     12  C   UNL     1       7.535 -15.161   1.358  0.00  0.00    +0.180 C 
ATOM     13  N   UNL     1       7.136 -14.034   0.824  0.00  0.00    -0.152 NA
ATOM     14  C   UNL     1       5.859 -13.635   1.002  0.00  0.00    +0.273 C 
ATOM     15  O   UNL     1       5.416 -12.658   0.419  0.00  0.00    -0.268 OA
ATOM     16  S   UNL     1       9.146 -15.900   1.407  0.00  0.00    -0.041 S 
ATOM     17  C   UNL     1       8.726 -17.309   2.424  0.00  0.00    +0.179 C 
ATOM     18  N   UNL     1       7.447 -17.146   2.608  0.00  0.00    -0.173 NA
ATOM     19  H   UNL     1       4.811 -17.711   2.466  0.00  0.00    +0.188 HD
ENDBRANCH   4   7
BRANCH   1  20
ATOM     20  O   UNL     1       3.060  -8.350   2.294  0.00  0.00    -0.486 OA
BRANCH  20  21
ATOM     21  C   UNL     1       1.702  -7.910   2.225  0.00  0.00    +0.284 C 
BRANCH  21  28
ATOM     22  C   UNL     1       2.099  -1.683   3.243  0.00  0.00    +0.102 A 
ATOM     23  N   UNL     1       1.647  -2.262   2.172  0.00  0.00    -0.159 NA
ATOM     24  N   UNL     1       1.605  -3.648   2.054  0.00  0.00    -0.171 N 
ATOM     25  C   UNL     1       1.157  -4.372   0.987  0.00  0.00    +0.275 A 
ATOM     26  O   UNL     1       0.733  -3.801  -0.006  0.00  0.00    -0.266 OA
ATOM     27  C   UNL     1       1.184  -5.766   1.032  0.00  0.00    +0.099 A 
ATOM     28  C   UNL     1       1.664  -6.405   2.155  0.00  0.00    +0.087 A 
ATOM     29  N   UNL     1       2.093  -5.669   3.178  0.00  0.00    -0.223 NA
ATOM     30  C   UNL     1       2.064  -4.361   3.127  0.00  0.00    +0.199 A 
ATOM     31  S   UNL     1       2.547  -3.079   4.263  0.00  0.00    -0.033 S 
BRANCH  22  32
ATOM     32  C   UNL     1       2.219  -0.212   3.546  0.00  0.00    +0.064 C 
BRANCH  32  34
ATOM     33  C   UNL     1       1.824   2.091   2.662  0.00  0.00    +0.004 C 
ATOM     34  C   UNL     1       1.702   0.598   2.355  0.00  0.00    +0.003 C 
ENDBRANCH  32  34
ENDBRANCH  22  32
ENDBRANCH  21  28
ENDBRANCH  20  21
ENDBRANCH   1  20
TORSDOF 6
