REMARK  Name = ZINC34792183
REMARK  8 active torsions:
REMARK  status: ('A' for Active; 'I' for Inactive)
REMARK    1  A    between atoms: C_2  and  C_3
REMARK    2  A    between atoms: C_3  and  N_4
REMARK    3  A    between atoms: C_7  and  C_12
REMARK    4  A    between atoms: N_21  and  C_23
REMARK    5  A    between atoms: C_23  and  C_24
REMARK    6  A    between atoms: N_26  and  C_27
REMARK    7  A    between atoms: C_32  and  C_33
REMARK    8  A    between atoms: C_33  and  C_34
REMARK                            x       y       z     vdW  Elec       q    Type
REMARK                         _______ _______ _______ _____ _____    ______ ____
ROOT
ATOM      1  N   UNL     1       1.379  -1.655   1.086  0.00  0.00    -0.253 N 
ATOM      2  C   UNL     1       1.878  -1.211   2.277  0.00  0.00    +0.043 C 
ATOM      3  C   UNL     1       1.942  -2.021   3.353  0.00  0.00    +0.058 C 
ATOM      4  C   UNL     1       1.440  -3.442   3.196  0.00  0.00    +0.142 C 
ATOM      5  N   UNL     1       0.920  -3.823   1.872  0.00  0.00    -0.288 N 
ATOM      6  C   UNL     1       0.917  -2.897   0.892  0.00  0.00    +0.307 C 
ATOM      7  O   UNL     1       0.486  -3.201  -0.203  0.00  0.00    -0.252 OA
ATOM      8  C   UNL     1       2.494  -1.333   4.453  0.00  0.00    +0.247 C 
ATOM      9  O   UNL     1       2.668  -1.822   5.554  0.00  0.00    -0.270 OA
ATOM     10  N   UNL     1       2.802  -0.065   4.127  0.00  0.00    -0.283 N 
ATOM     11  C   UNL     1       2.438   0.123   2.715  0.00  0.00    +0.160 C 
ATOM     12  H   UNL     1       0.584  -4.718   1.709  0.00  0.00    +0.151 HD
ENDROOT
BRANCH   4  13
ATOM     13  C   UNL     1       0.342  -3.661   4.206  0.00  0.00    -0.021 A 
ATOM     14  C   UNL     1      -0.936  -3.203   3.948  0.00  0.00    +0.006 A 
ATOM     15  C   UNL     1      -1.943  -3.403   4.873  0.00  0.00    +0.002 A 
ATOM     16  C   UNL     1      -1.672  -4.062   6.058  0.00  0.00    +0.020 A 
ATOM     17  C   UNL     1      -0.393  -4.521   6.317  0.00  0.00    +0.041 A 
ATOM     18  C   UNL     1       0.613  -4.325   5.387  0.00  0.00    +0.025 A 
ATOM     19 CL   UNL     1      -0.052  -5.349   7.804  0.00  0.00    -0.084 Cl
ENDBRANCH   4  13
BRANCH   1  20
ATOM     20  C   UNL     1       1.340  -0.719  -0.041  0.00  0.00    +0.141 C 
BRANCH  20  22
ATOM     21  C   UNL     1       0.017   1.333  -0.025  0.00  0.00    +0.005 C 
ATOM     22  C   UNL     1       0.028   0.024  -0.032  0.00  0.00    -0.015 C 
ENDBRANCH  20  22
ENDBRANCH   1  20
BRANCH  10  23
ATOM     23  C   UNL     1       3.391   0.942   5.014  0.00  0.00    +0.204 C 
BRANCH  23  24
ATOM     24  C   UNL     1       4.894   0.870   4.927  0.00  0.00    +0.235 C 
ATOM     25  O   UNL     1       5.421   0.058   4.196  0.00  0.00    -0.274 OA
ATOM     26  N   UNL     1       5.652   1.708   5.662  0.00  0.00    -0.284 N 
ATOM     27  H   UNL     1       5.232   2.400   6.196  0.00  0.00    +0.155 HD
BRANCH  26  28
ATOM     28  C   UNL     1       7.046   1.580   5.653  0.00  0.00    +0.037 A 
ATOM     29  C   UNL     1       7.702   1.186   4.494  0.00  0.00    +0.023 A 
ATOM     30  C   UNL     1       9.077   1.061   4.489  0.00  0.00    +0.002 A 
ATOM     31  C   UNL     1       9.801   1.326   5.637  0.00  0.00    +0.000 A 
ATOM     32  C   UNL     1       9.151   1.718   6.793  0.00  0.00    +0.006 A 
ATOM     33  C   UNL     1       7.776   1.852   6.802  0.00  0.00    -0.022 A 
BRANCH  33  34
ATOM     34  C   UNL     1       7.070   2.286   8.061  0.00  0.00    +0.072 C 
BRANCH  34  35
ATOM     35  C   UNL     1       6.603   1.070   8.819  0.00  0.00    -0.043 A 
ATOM     36  C   UNL     1       5.351   0.538   8.569  0.00  0.00    +0.004 A 
ATOM     37  C   UNL     1       4.923  -0.577   9.265  0.00  0.00    +0.000 A 
ATOM     38  C   UNL     1       5.746  -1.160  10.211  0.00  0.00    +0.000 A 
ATOM     39  C   UNL     1       6.997  -0.629  10.460  0.00  0.00    +0.000 A 
ATOM     40  C   UNL     1       7.428   0.484   9.761  0.00  0.00    +0.004 A 
ENDBRANCH  34  35
ENDBRANCH  33  34
ENDBRANCH  26  28
ENDBRANCH  23  24
ENDBRANCH  10  23
TORSDOF 8
