REMARK  Name = ZINC59200036
REMARK  13 active torsions:
REMARK  status: ('A' for Active; 'I' for Inactive)
REMARK    1  A    between atoms: C_1  and  C_2
REMARK    2  A    between atoms: C_2  and  O_3
REMARK    3  A    between atoms: O_3  and  C_4
REMARK    4  A    between atoms: C_9  and  C_10
REMARK    5  A    between atoms: C_10  and  N_11
REMARK    6  A    between atoms: N_11  and  C_12
REMARK    7  A    between atoms: N_11  and  C_22
REMARK    8  A    between atoms: C_14  and  C_20
REMARK    9  A    between atoms: C_14  and  C_21
REMARK   10  A    between atoms: C_16  and  C_18
REMARK   11  A    between atoms: C_16  and  C_19
REMARK   12  A    between atoms: C_22  and  N_24
REMARK   13  A    between atoms: N_24  and  C_25
REMARK                            x       y       z     vdW  Elec       q    Type
REMARK                         _______ _______ _______ _____ _____    ______ ____
ROOT
ATOM      1  N   UNL     1       3.545  -0.383  -3.278  0.00  0.00    -0.305 N 
ENDROOT
BRANCH   1   2
ATOM      2  C   UNL     1       4.670  -1.324  -3.200  0.00  0.00    +0.073 C 
ATOM      3  C   UNL     1       5.981  -0.552  -3.359  0.00  0.00    +0.009 C 
ATOM      4  C   UNL     1       7.163  -1.516  -3.268  0.00  0.00    -0.072 C 
ATOM      5  N   UNL     1       7.128  -2.313  -2.051  0.00  0.00    +0.386 N 
ATOM      6  C   UNL     1       5.865  -2.934  -1.685  0.00  0.00    -0.072 C 
ATOM      7  C   UNL     1       4.671  -1.996  -1.827  0.00  0.00    +0.009 C 
ATOM      8  C   UNL     1       5.958  -3.334  -0.193  0.00  0.00    -0.010 C 
ATOM      9  C   UNL     1       5.615  -4.220  -2.477  0.00  0.00    -0.010 C 
ATOM     10  C   UNL     1       7.234  -2.385  -4.523  0.00  0.00    -0.010 C 
ATOM     11  C   UNL     1       8.451  -0.661  -3.229  0.00  0.00    -0.010 C 
ATOM     12  H   UNL     1       7.838  -3.047  -2.126  0.00  0.00    -0.084 HD
ATOM     13  H   UNL     1       7.434  -1.724  -1.272  0.00  0.00    -0.084 HD
ENDBRANCH   1   2
BRANCH   1  14
ATOM     14  C   UNL     1       3.472   0.653  -2.419  0.00  0.00    +0.138 C 
ATOM     15  S   UNL     1       2.253   1.840  -2.611  0.00  0.00    -0.018 S 
BRANCH  14  16
ATOM     16  N   UNL     1       4.359   0.755  -1.410  0.00  0.00    -0.297 N 
ATOM     17  H   UNL     1       5.097   0.128  -1.347  0.00  0.00    +0.154 HD
BRANCH  16  18
ATOM     18  C   UNL     1       4.216   1.765  -0.452  0.00  0.00    +0.034 A 
ATOM     19  C   UNL     1       2.949   2.199  -0.083  0.00  0.00    +0.025 A 
ATOM     20  C   UNL     1       2.810   3.196   0.863  0.00  0.00    +0.023 A 
ATOM     21  C   UNL     1       3.932   3.764   1.442  0.00  0.00    +0.059 A 
ATOM     22  C   UNL     1       5.196   3.334   1.076  0.00  0.00    +0.061 A 
ATOM     23  C   UNL     1       5.340   2.332   0.134  0.00  0.00    +0.044 A 
ATOM     24 CL   UNL     1       6.600   4.049   1.804  0.00  0.00    -0.082 Cl
ATOM     25 CL   UNL     1       3.753   5.017   2.630  0.00  0.00    -0.082 Cl
ENDBRANCH  16  18
ENDBRANCH  14  16
ENDBRANCH   1  14
BRANCH   1  26
ATOM     26  C   UNL     1       2.501  -0.572  -4.288  0.00  0.00    +0.145 C 
BRANCH  26  32
ATOM     27  C   UNL     1       0.480  -1.336  -3.016  0.00  0.00    +0.125 A 
ATOM     28  C   UNL     1      -0.394  -2.333  -2.605  0.00  0.00    +0.046 A 
ATOM     29  C   UNL     1      -0.191  -3.637  -3.010  0.00  0.00    +0.004 A 
ATOM     30  C   UNL     1       0.882  -3.951  -3.824  0.00  0.00    +0.001 A 
ATOM     31  C   UNL     1       1.755  -2.960  -4.234  0.00  0.00    +0.009 A 
ATOM     32  C   UNL     1       1.553  -1.653  -3.836  0.00  0.00    +0.011 A 
BRANCH  27  33
ATOM     33  O   UNL     1       0.282  -0.051  -2.619  0.00  0.00    -0.492 OA
BRANCH  33  35
ATOM     34  C   UNL     1      -0.901   1.692  -1.435  0.00  0.00    +0.048 C 
ATOM     35  C   UNL     1      -0.843   0.201  -1.775  0.00  0.00    +0.225 C 
ENDBRANCH  33  35
ENDBRANCH  27  33
ENDBRANCH  26  32
ENDBRANCH   1  26
TORSDOF 8
