REMARK  Name = ZINC40825033
REMARK  8 active torsions:
REMARK  status: ('A' for Active; 'I' for Inactive)
REMARK    1  A    between atoms: C_1  and  C_2
REMARK    2  A    between atoms: C_6  and  C_7
REMARK    3  A    between atoms: N_9  and  N_10
REMARK    4  A    between atoms: N_10  and  C_11
REMARK    5  A    between atoms: C_11  and  C_12
REMARK    6  A    between atoms: C_11  and  C_13
REMARK    7  A    between atoms: C_11  and  C_14
REMARK    8  A    between atoms: N_19  and  N_20
REMARK                            x       y       z     vdW  Elec       q    Type
REMARK                         _______ _______ _______ _____ _____    ______ ____
ROOT
ATOM      1  C   UNL     1      -0.018   1.503   0.010  0.00  0.00    +0.048 C 
ATOM      2  C   UNL     1       0.002  -0.004   0.002  0.00  0.00    +0.009 A 
ATOM      3  C   UNL     1       0.009  -0.838  -1.123  0.00  0.00    +0.042 A 
ATOM      4  C   UNL     1       0.027  -2.137  -0.673  0.00  0.00    +0.115 A 
ATOM      5  O   UNL     1       0.035  -2.112   0.658  0.00  0.00    -0.454 OA
ATOM      6  C   UNL     1       0.024  -0.830   1.091  0.00  0.00    +0.194 A 
ATOM      7  C   UNL     1       0.034  -3.326  -1.600  0.00  0.00    +0.075 C 
ATOM      8  C   UNL     1      -0.492  -2.902  -2.974  0.00  0.00    +0.014 C 
ATOM      9  C   UNL     1       0.279  -1.685  -3.495  0.00  0.00    +0.058 C 
ATOM     10  C   UNL     1       0.000  -0.512  -2.566  0.00  0.00    +0.072 C 
ATOM     11  N   UNL     1      -0.228   0.686  -3.007  0.00  0.00    -0.175 NA
ENDROOT
BRANCH  11  12
ATOM     12  N   UNL     1      -0.224   0.938  -4.386  0.00  0.00    -0.248 N 
ATOM     13  C   UNL     1      -0.465   2.202  -4.852  0.00  0.00    +0.187 C 
ATOM     14  N   UNL     1      -0.460   2.442  -6.163  0.00  0.00    -0.370 N 
ATOM     15  N   UNL     1      -0.704   3.194  -3.994  0.00  0.00    -0.370 N 
ATOM     16  H   UNL     1      -0.050   0.216  -5.010  0.00  0.00    +0.192 HD
ATOM     17  H   UNL     1      -0.631   3.338  -6.493  0.00  0.00    +0.159 HD
ATOM     18  H   UNL     1      -0.707   3.020  -3.040  0.00  0.00    +0.159 HD
ATOM     19  H   UNL     1      -0.874   4.090  -4.324  0.00  0.00    +0.159 HD
ATOM     20  H   UNL     1      -0.286   1.720  -6.787  0.00  0.00    +0.159 HD
ENDBRANCH  11  12
BRANCH   6  21
ATOM     21  C   UNL     1       0.032  -0.400   2.494  0.00  0.00    +0.293 C 
ATOM     22  O   UNL     1       0.018   0.786   2.766  0.00  0.00    -0.266 OA
ATOM     23  N   UNL     1       0.054  -1.317   3.480  0.00  0.00    -0.244 N 
ATOM     24  H   UNL     1       0.065  -2.263   3.263  0.00  0.00    +0.169 HD
BRANCH  23  25
ATOM     25  N   UNL     1       0.061  -0.916   4.786  0.00  0.00    -0.235 NA
ATOM     26  H   UNL     1      -0.727  -0.318   4.985  0.00  0.00    +0.145 HD
BRANCH  25  27
ATOM     27  C   UNL     1       0.086  -2.073   5.692  0.00  0.00    +0.028 C 
ATOM     28  C   UNL     1       1.344  -2.901   5.426  0.00  0.00    +0.029 C 
ATOM     29  C   UNL     1       0.093  -1.585   7.142  0.00  0.00    +0.029 C 
ATOM     30  C   UNL     1      -1.154  -2.936   5.450  0.00  0.00    +0.029 C 
ENDBRANCH  25  27
ENDBRANCH  23  25
ENDBRANCH   6  21
TORSDOF 4
