REMARK  Name = ZINC66876835
REMARK  9 active torsions:
REMARK  status: ('A' for Active; 'I' for Inactive)
REMARK    1  A    between atoms: C_1  and  C_2
REMARK    2  A    between atoms: C_7  and  N_12
REMARK    3  A    between atoms: C_9  and  C_11
REMARK    4  A    between atoms: C_13  and  C_15
REMARK    5  A    between atoms: C_15  and  C_17
REMARK    6  A    between atoms: C_15  and  N_18
REMARK    7  A    between atoms: C_21  and  N_24
REMARK    8  A    between atoms: C_25  and  C_27
REMARK    9  A    between atoms: C_27  and  C_28
REMARK                            x       y       z     vdW  Elec       q    Type
REMARK                         _______ _______ _______ _____ _____    ______ ____
ROOT
ATOM      1  N   UNL     1       3.226  -5.622   3.403  0.00  0.00    +0.387 N 
ATOM      2  C   UNL     1       4.210  -5.650   2.314  0.00  0.00    -0.076 C 
ATOM      3  C   UNL     1       4.613  -7.097   2.022  0.00  0.00    +0.004 C 
ATOM      4  C   UNL     1       5.225  -7.716   3.282  0.00  0.00    +0.069 C 
ATOM      5  C   UNL     1       4.217  -7.614   4.430  0.00  0.00    +0.004 C 
ATOM      6  C   UNL     1       3.830  -6.148   4.633  0.00  0.00    -0.076 C 
ATOM      7  H   UNL     1       2.432  -6.191   3.150  0.00  0.00    -0.081 HD
ENDROOT
BRANCH   4   8
ATOM      8  N   UNL     1       5.543  -9.124   3.032  0.00  0.00    -0.313 N 
ATOM      9  C   UNL     1       6.506  -9.735   3.749  0.00  0.00    +0.213 C 
ATOM     10  O   UNL     1       7.111  -9.119   4.601  0.00  0.00    -0.276 OA
ATOM     11  H   UNL     1       5.059  -9.616   2.350  0.00  0.00    +0.149 HD
BRANCH   9  12
ATOM     12  C   UNL     1       6.833 -11.183   3.492  0.00  0.00    +0.099 C 
BRANCH  12  13
ATOM     13  C   UNL     1       7.954 -11.628   4.433  0.00  0.00    -0.002 C 
ATOM     14  C   UNL     1       9.270 -10.913   4.063  0.00  0.00    +0.004 C 
ATOM     15  C   UNL     1      10.364 -11.985   4.295  0.00  0.00    +0.000 C 
ATOM     16  C   UNL     1       9.677 -13.284   3.806  0.00  0.00    +0.000 C 
ATOM     17  C   UNL     1       8.213 -13.136   4.269  0.00  0.00    +0.004 C 
ENDBRANCH  12  13
ENDBRANCH   9  12
ENDBRANCH   4   8
BRANCH   1  18
ATOM     18  C   UNL     1       2.785  -4.239   3.627  0.00  0.00    +0.016 C 
ATOM     19  C   UNL     1       1.796  -4.202   4.794  0.00  0.00    -0.004 C 
BRANCH  18  21
ATOM     20  N   UNL     1       2.117  -2.396   2.119  0.00  0.00    -0.314 N 
ATOM     21  C   UNL     1       2.114  -3.718   2.382  0.00  0.00    +0.199 C 
ATOM     22  O   UNL     1       1.572  -4.488   1.618  0.00  0.00    -0.278 OA
ATOM     23  H   UNL     1       2.551  -1.781   2.730  0.00  0.00    +0.149 HD
BRANCH  20  29
ATOM     24  C   UNL     1       2.052   1.307  -1.157  0.00  0.00    +0.008 C 
ATOM     25  C   UNL     1       1.418  -0.027  -0.756  0.00  0.00    -0.009 C 
ATOM     26  C   UNL     1      -0.074   0.180  -0.482  0.00  0.00    +0.003 C 
ATOM     27  C   UNL     1      -0.708  -1.153  -0.081  0.00  0.00    +0.002 C 
ATOM     28  C   UNL     1      -0.027  -1.683   1.182  0.00  0.00    +0.022 C 
ATOM     29  C   UNL     1       1.464  -1.889   0.909  0.00  0.00    +0.076 C 
ATOM     30  C   UNL     1       2.099  -0.556   0.508  0.00  0.00    +0.009 C 
ATOM     31  C   UNL     1       1.924   0.454   1.643  0.00  0.00    +0.009 C 
ENDBRANCH  20  29
ENDBRANCH  18  21
ENDBRANCH   1  18
TORSDOF 6
