REMARK  Name = ZINC12506239
REMARK  6 active torsions:
REMARK  status: ('A' for Active; 'I' for Inactive)
REMARK    1  A    between atoms: C_1  and  C_2
REMARK    2  A    between atoms: C_2  and  O_3
REMARK    3  A    between atoms: O_3  and  C_4
REMARK    4  A    between atoms: C_8  and  C_14
REMARK    5  A    between atoms: C_9  and  O_10
REMARK    6  A    between atoms: O_10  and  C_11
REMARK                            x       y       z     vdW  Elec       q    Type
REMARK                         _______ _______ _______ _____ _____    ______ ____
ROOT
ATOM      1  C   UNL     1      -4.099  -4.869   0.117  0.00  0.00    +0.212 C 
ATOM      2  N   UNL     1      -3.762  -6.177   0.708  0.00  0.00    -0.294 N 
ATOM      3  C   UNL     1      -3.195  -7.136  -0.119  0.00  0.00    +0.159 C 
ATOM      4  N   UNL     1      -3.866  -7.405  -1.312  0.00  0.00    -0.259 N 
ATOM      5  C   UNL     1      -4.497  -6.307  -1.895  0.00  0.00    +0.205 A 
ATOM      6  N   UNL     1      -4.621  -5.109  -1.232  0.00  0.00    -0.288 N 
ATOM      7  C   UNL     1      -5.293  -4.241  -2.067  0.00  0.00    +0.076 A 
ATOM      8  C   UNL     1      -5.711  -2.922  -1.956  0.00  0.00    +0.077 A 
ATOM      9  C   UNL     1      -6.377  -2.323  -3.008  0.00  0.00    +0.164 A 
ATOM     10  C   UNL     1      -6.633  -3.033  -4.178  0.00  0.00    +0.164 A 
ATOM     11  C   UNL     1      -6.229  -4.345  -4.301  0.00  0.00    +0.079 A 
ATOM     12  C   UNL     1      -5.553  -4.964  -3.245  0.00  0.00    +0.095 A 
ATOM     13  N   UNL     1      -5.041  -6.218  -3.072  0.00  0.00    -0.214 NA
ATOM     14  O   UNL     1      -7.288  -2.420  -5.208  0.00  0.00    -0.488 OA
ATOM     15  C   UNL     1      -8.662  -2.104  -4.975  0.00  0.00    +0.232 C 
ATOM     16  C   UNL     1      -8.795  -0.775  -4.249  0.00  0.00    +0.082 C 
ATOM     17  C   UNL     1      -8.200  -0.817  -2.851  0.00  0.00    +0.232 C 
ATOM     18  O   UNL     1      -6.787  -1.024  -2.906  0.00  0.00    -0.488 OA
ATOM     19  N   UNL     1      -2.092  -7.752   0.202  0.00  0.00    -0.375 N 
ATOM     20  H   UNL     1      -3.932  -6.362   1.645  0.00  0.00    +0.151 HD
ATOM     21  H   UNL     1      -1.646  -7.544   1.037  0.00  0.00    +0.158 HD
ATOM     22  H   UNL     1      -3.893  -8.291  -1.706  0.00  0.00    +0.158 HD
ATOM     23  H   UNL     1      -1.717  -8.418  -0.396  0.00  0.00    +0.158 HD
ENDROOT
BRANCH   1  28
ATOM     24  C   UNL     1      -1.246  -2.586   1.106  0.00  0.00    +0.163 A 
ATOM     25  C   UNL     1      -0.591  -2.430  -0.105  0.00  0.00    +0.049 A 
ATOM     26  C   UNL     1      -1.071  -3.063  -1.237  0.00  0.00    +0.004 A 
ATOM     27  C   UNL     1      -2.204  -3.851  -1.164  0.00  0.00    +0.011 A 
ATOM     28  C   UNL     1      -2.863  -4.010   0.041  0.00  0.00    +0.039 A 
ATOM     29  C   UNL     1      -2.384  -3.383   1.181  0.00  0.00    +0.175 A 
BRANCH  24  30
ATOM     30  O   UNL     1      -0.775  -1.964   2.220  0.00  0.00    -0.489 OA
BRANCH  30  32
ATOM     31  C   UNL     1       0.773  -0.548   3.419  0.00  0.00    +0.048 C 
ATOM     32  C   UNL     1       0.397  -1.161   2.069  0.00  0.00    +0.226 C 
ENDBRANCH  30  32
ENDBRANCH  24  30
BRANCH  29  33
ATOM     33  O   UNL     1      -3.027  -3.543   2.368  0.00  0.00    -0.430 OA
BRANCH  33  34
ATOM     34  C   UNL     1      -3.969  -2.534   2.737  0.00  0.00    +0.541 C 
ATOM     35  F   UNL     1      -3.337  -1.286   2.743  0.00  0.00    -0.166 F 
ATOM     36  F   UNL     1      -5.021  -2.519   1.815  0.00  0.00    -0.166 F 
ENDBRANCH  33  34
ENDBRANCH  29  33
ENDBRANCH   1  28
TORSDOF 5
