REMARK  Name = ZINC44339568
REMARK  10 active torsions:
REMARK  status: ('A' for Active; 'I' for Inactive)
REMARK    1  A    between atoms: C_1  and  C_2
REMARK    2  A    between atoms: C_2  and  O_3
REMARK    3  A    between atoms: O_3  and  C_4
REMARK    4  A    between atoms: C_4  and  C_6
REMARK    5  A    between atoms: C_6  and  C_8
REMARK    6  A    between atoms: C_6  and  N_19
REMARK    7  A    between atoms: C_8  and  C_9
REMARK    8  A    between atoms: C_11  and  O_17
REMARK    9  A    between atoms: C_12  and  O_16
REMARK   10  A    between atoms: O_17  and  C_18
REMARK                            x       y       z     vdW  Elec       q    Type
REMARK                         _______ _______ _______ _____ _____    ______ ____
ROOT
ATOM      1  C   UNL     1       2.983  -2.297  -2.345  0.00  0.00    +0.030 C 
ENDROOT
BRANCH   1   2
ATOM      2  C   UNL     1       3.678  -2.742  -3.606  0.00  0.00    -0.044 A 
ATOM      3  C   UNL     1       3.979  -4.079  -3.793  0.00  0.00    +0.053 A 
ATOM      4  C   UNL     1       4.617  -4.490  -4.952  0.00  0.00    +0.163 A 
ATOM      5  C   UNL     1       4.953  -3.555  -5.927  0.00  0.00    +0.172 A 
ATOM      6  C   UNL     1       4.648  -2.217  -5.733  0.00  0.00    +0.059 A 
ATOM      7  C   UNL     1       4.007  -1.814  -4.576  0.00  0.00    +0.021 A 
ATOM      8  I   UNL     1       5.153  -0.805  -7.197  0.00  0.00    -0.040 I 
BRANCH   5   9
ATOM      9  O   UNL     1       5.580  -3.953  -7.066  0.00  0.00    -0.503 OA
ATOM     10  H   UNL     1       4.977  -4.191  -7.784  0.00  0.00    +0.292 HD
ENDBRANCH   5   9
BRANCH   4  11
ATOM     11  O   UNL     1       4.914  -5.804  -5.137  0.00  0.00    -0.491 OA
ATOM     12  C   UNL     1       4.540  -6.707  -4.095  0.00  0.00    +0.277 C 
ENDBRANCH   4  11
ENDBRANCH   1   2
BRANCH   1  13
ATOM     13  C   UNL     1       1.468  -2.353  -2.550  0.00  0.00    +0.040 C 
BRANCH  13  14
ATOM     14  N   UNL     1       1.052  -3.748  -2.751  0.00  0.00    +0.387 N 
ATOM     15  H   UNL     1       1.302  -4.294  -1.940  0.00  0.00    -0.089 HD
ATOM     16  H   UNL     1       0.053  -3.785  -2.886  0.00  0.00    -0.089 HD
ATOM     17  H   UNL     1       1.516  -4.123  -3.565  0.00  0.00    -0.089 HD
ENDBRANCH  13  14
BRANCH  13  18
ATOM     18  C   UNL     1       0.775  -1.794  -1.334  0.00  0.00    +0.293 C 
ATOM     19  O   UNL     1       0.314  -2.540  -0.504  0.00  0.00    -0.253 OA
BRANCH  18  20
ATOM     20  O   UNL     1       0.671  -0.465  -1.174  0.00  0.00    -0.466 OA
BRANCH  20  22
ATOM     21  C   UNL     1      -0.019   1.526   0.010  0.00  0.00    +0.048 C 
ATOM     22  C   UNL     1       0.002  -0.004   0.002  0.00  0.00    +0.228 C 
ENDBRANCH  20  22
ENDBRANCH  18  20
ENDBRANCH  13  18
ENDBRANCH   1  13
TORSDOF 8
