REMARK  Name = ZINC31983170
REMARK  17 active torsions:
REMARK  status: ('A' for Active; 'I' for Inactive)
REMARK    1  A    between atoms: C_1  and  C_2
REMARK    2  A    between atoms: C_2  and  N_3
REMARK    3  A    between atoms: N_3  and  C_4
REMARK    4  A    between atoms: N_3  and  C_6
REMARK    5  A    between atoms: C_4  and  C_5
REMARK    6  A    between atoms: C_6  and  C_7
REMARK    7  A    between atoms: C_7  and  S_8
REMARK    8  A    between atoms: S_8  and  C_9
REMARK    9  A    between atoms: C_9  and  C_10
REMARK   10  A    between atoms: C_10  and  O_12
REMARK   11  A    between atoms: O_12  and  C_13
REMARK   12  A    between atoms: C_16  and  C_37
REMARK   13  A    between atoms: C_16  and  C_38
REMARK   14  A    between atoms: C_17  and  O_36
REMARK   15  A    between atoms: C_19  and  C_35
REMARK   16  A    between atoms: C_24  and  C_34
REMARK   17  A    between atoms: C_26  and  C_33
REMARK                            x       y       z     vdW  Elec       q    Type
REMARK                         _______ _______ _______ _____ _____    ______ ____
ROOT
ATOM      1  C   UNL     1      -1.329   1.900   3.434  0.00  0.00    +0.184 C 
ATOM      2  C   UNL     1      -0.270   2.599   4.189  0.00  0.00    +0.058 C 
ATOM      3  C   UNL     1       0.880   2.379   5.045  0.00  0.00    +0.015 C 
ATOM      4  C   UNL     1       2.083   2.008   4.077  0.00  0.00    +0.128 C 
ATOM      5  C   UNL     1       1.320   1.124   3.066  0.00  0.00    +0.022 C 
ATOM      6  C   UNL     1       1.059   1.879   1.789  0.00  0.00    -0.014 C 
ATOM      7  C   UNL     1       1.326   3.376   1.846  0.00  0.00    +0.008 C 
ATOM      8  C   UNL     1       0.183   4.202   1.270  0.00  0.00    +0.004 C 
ATOM      9  C   UNL     1      -1.164   3.882   1.909  0.00  0.00    -0.004 C 
ATOM     10  C   UNL     1      -1.417   2.388   1.963  0.00  0.00    +0.018 C 
ATOM     11  C   UNL     1      -0.317   1.608   1.203  0.00  0.00    +0.071 C 
ATOM     12  C   UNL     1      -0.241   1.992  -0.245  0.00  0.00    +0.138 C 
ATOM     13  O   UNL     1      -1.142   2.346  -0.970  0.00  0.00    -0.297 OA
ATOM     14  C   UNL     1       1.209   1.822  -0.651  0.00  0.00    +0.075 C 
ATOM     15  C   UNL     1       1.947   1.331   0.624  0.00  0.00    +0.015 C 
ATOM     16  C   UNL     1      -2.796   2.057   1.403  0.00  0.00    +0.016 C 
ATOM     17  C   UNL     1      -2.288   4.532   1.083  0.00  0.00    +0.008 C 
ATOM     18  C   UNL     1       2.163  -0.150   2.841  0.00  0.00    +0.011 C 
ATOM     19  C   UNL     1       1.256   3.645   5.821  0.00  0.00    +0.018 C 
ENDROOT
BRANCH   4  20
ATOM     20  O   UNL     1       3.055   1.216   4.790  0.00  0.00    -0.391 OA
ATOM     21  H   UNL     1       3.962   0.866   4.277  0.00  0.00    +0.210 HD
ENDBRANCH   4  20
BRANCH   3  22
ATOM     22  C   UNL     1       0.654   1.258   6.026  0.00  0.00    -0.025 C 
ATOM     23  C   UNL     1       0.590   1.513   7.309  0.00  0.00    +0.004 C 
ENDBRANCH   3  22
BRANCH   1  24
ATOM     24  O   UNL     1      -2.619   2.197   4.055  0.00  0.00    -0.460 OA
BRANCH  24  25
ATOM     25  C   UNL     1      -3.058   1.338   4.988  0.00  0.00    +0.317 C 
ATOM     26  O   UNL     1      -2.442   0.323   5.212  0.00  0.00    -0.250 OA
BRANCH  25  27
ATOM     27  C   UNL     1      -4.319   1.639   5.756  0.00  0.00    +0.189 C 
BRANCH  27  28
ATOM     28  S   UNL     1      -4.645   0.298   6.933  0.00  0.00    -0.151 S 
BRANCH  28  29
ATOM     29  C   UNL     1      -6.175   0.808   7.766  0.00  0.00    +0.051 C 
BRANCH  29  30
ATOM     30  C   UNL     1      -6.569  -0.249   8.800  0.00  0.00    -0.068 C 
BRANCH  30  31
ATOM     31  N   UNL     1      -7.807   0.163   9.473  0.00  0.00    +0.380 N 
ATOM     32  H   UNL     1      -7.665   1.189   9.843  0.00  0.00    -0.082 HD
BRANCH  31  34
ATOM     33  C   UNL     1      -9.228  -1.254   8.070  0.00  0.00    -0.017 C 
ATOM     34  C   UNL     1      -8.938   0.174   8.536  0.00  0.00    -0.082 C 
ENDBRANCH  31  34
BRANCH  31  35
ATOM     35  C   UNL     1      -8.090  -0.698  10.629  0.00  0.00    -0.082 C 
ATOM     36  C   UNL     1      -9.274  -0.129  11.413  0.00  0.00    -0.017 C 
ENDBRANCH  31  35
ENDBRANCH  30  31
ENDBRANCH  29  30
ENDBRANCH  28  29
ENDBRANCH  27  28
ENDBRANCH  25  27
ENDBRANCH  24  25
ENDBRANCH   1  24
TORSDOF 11
