REMARK  Name = ZINC00036887
REMARK  7 active torsions:
REMARK  status: ('A' for Active; 'I' for Inactive)
REMARK    1  A    between atoms: C_1  and  C_2
REMARK    2  A    between atoms: C_2  and  C_17
REMARK    3  A    between atoms: C_6  and  C_7
REMARK    4  A    between atoms: C_6  and  C_8
REMARK    5  A    between atoms: C_9  and  C_15
REMARK    6  A    between atoms: C_9  and  O_16
REMARK    7  A    between atoms: N_10  and  C_14
REMARK                            x       y       z     vdW  Elec       q    Type
REMARK                         _______ _______ _______ _____ _____    ______ ____
ROOT
ATOM      1  C   UNL     1      -2.133   0.459  -1.022  0.00  0.00    -0.010 C 
ATOM      2  C   UNL     1      -1.055   1.552  -0.832  0.00  0.00    -0.070 C 
ATOM      3  C   UNL     1      -0.566   1.952  -2.220  0.00  0.00    +0.040 C 
ATOM      4  C   UNL     1       0.733   2.748  -2.158  0.00  0.00    +0.158 C 
ATOM      5  C   UNL     1       1.792   1.962  -1.405  0.00  0.00    +0.040 C 
ATOM      6  C   UNL     1       1.315   1.581  -0.002  0.00  0.00    -0.070 C 
ATOM      7  C   UNL     1       1.407   2.792   0.932  0.00  0.00    -0.010 C 
ATOM      8  C   UNL     1       2.300   0.518   0.540  0.00  0.00    -0.010 C 
ATOM      9  C   UNL     1       1.185   3.091  -3.587  0.00  0.00    +0.175 C 
ATOM     10  N   UNL     1       1.159   4.564  -3.623  0.00  0.00    -0.239 N 
ATOM     11  C   UNL     1       0.771   5.018  -2.424  0.00  0.00    +0.406 C 
ATOM     12  O   UNL     1       0.668   6.201  -2.163  0.00  0.00    -0.226 OA
ATOM     13  O   UNL     1       0.510   4.047  -1.543  0.00  0.00    -0.439 OA
ATOM     14  C   UNL     1       1.505   5.392  -4.781  0.00  0.00    +0.138 C 
ATOM     15  C   UNL     1       2.591   2.583  -3.898  0.00  0.00    +0.068 C 
ATOM     16  C   UNL     1      -1.744   2.743  -0.155  0.00  0.00    -0.010 C 
ATOM     17  N   UNL     1      -0.027   0.944   0.054  0.00  0.00    +0.386 N 
ATOM     18  H   UNL     1       0.078  -0.042  -0.213  0.00  0.00    -0.084 HD
ATOM     19  H   UNL     1      -0.366   1.003   1.021  0.00  0.00    -0.084 HD
ENDROOT
BRANCH   9  20
ATOM     20  O   UNL     1       0.253   2.568  -4.542  0.00  0.00    -0.368 OA
ATOM     21  H   UNL     1       0.486   2.753  -5.462  0.00  0.00    +0.212 HD
ENDBRANCH   9  20
TORSDOF 1
