REMARK  Name = ZINC59805467
REMARK  12 active torsions:
REMARK  status: ('A' for Active; 'I' for Inactive)
REMARK    1  A    between atoms: C_1  and  C_2
REMARK    2  A    between atoms: C_2  and  C_29
REMARK    3  A    between atoms: C_4  and  N_10
REMARK    4  A    between atoms: C_6  and  C_8
REMARK    5  A    between atoms: C_6  and  C_9
REMARK    6  A    between atoms: C_11  and  C_13
REMARK    7  A    between atoms: C_13  and  S_14
REMARK    8  A    between atoms: S_14  and  C_15
REMARK    9  A    between atoms: C_18  and  C_21
REMARK   10  A    between atoms: N_19  and  N_20
REMARK   11  A    between atoms: C_25  and  O_27
REMARK   12  A    between atoms: O_27  and  C_28
REMARK                            x       y       z     vdW  Elec       q    Type
REMARK                         _______ _______ _______ _____ _____    ______ ____
ROOT
ATOM      1  C   UNL     1       4.312  -0.866  -4.426  0.00  0.00    +0.173 C 
ENDROOT
BRANCH   1   3
ATOM      2  N   UNL     1       2.615  -0.819  -2.626  0.00  0.00    -0.312 N 
ATOM      3  C   UNL     1       3.770  -0.334  -3.123  0.00  0.00    +0.224 C 
ATOM      4  O   UNL     1       4.374   0.530  -2.523  0.00  0.00    -0.275 OA
ATOM      5  H   UNL     1       2.133  -1.510  -3.106  0.00  0.00    +0.149 HD
BRANCH   2   9
ATOM      6  C   UNL     1      -0.019   1.528   0.010  0.00  0.00    -0.010 C 
ATOM      7  C   UNL     1       0.002  -0.004   0.002  0.00  0.00    -0.072 C 
ATOM      8  C   UNL     1       0.573  -0.505  -1.321  0.00  0.00    +0.009 C 
ATOM      9  C   UNL     1       2.088  -0.301  -1.357  0.00  0.00    +0.070 C 
ATOM     10  C   UNL     1       2.703  -1.086  -0.198  0.00  0.00    +0.009 C 
ATOM     11  C   UNL     1       2.147  -0.590   1.133  0.00  0.00    -0.072 C 
ATOM     12  N   UNL     1       0.697  -0.529   1.164  0.00  0.00    +0.386 N 
ATOM     13  C   UNL     1       2.769   0.766   1.481  0.00  0.00    -0.010 C 
ATOM     14  C   UNL     1       2.600  -1.589   2.223  0.00  0.00    -0.010 C 
ATOM     15  C   UNL     1      -1.468  -0.478   0.079  0.00  0.00    -0.010 C 
ATOM     16  H   UNL     1       0.416   0.021   1.982  0.00  0.00    -0.084 HD
ATOM     17  H   UNL     1       0.341  -1.472   1.351  0.00  0.00    -0.084 HD
ENDBRANCH   2   9
ENDBRANCH   1   3
BRANCH   1  18
ATOM     18  S   UNL     1       5.867  -0.020  -4.824  0.00  0.00    -0.075 S 
BRANCH  18  19
ATOM     19  C   UNL     1       6.365  -0.743  -6.352  0.00  0.00    +0.209 A 
ATOM     20  N   UNL     1       5.723  -1.675  -7.020  0.00  0.00    -0.121 NA
ATOM     21  N   UNL     1       6.366  -1.972  -8.092  0.00  0.00    -0.127 NA
ATOM     22  C   UNL     1       7.458  -1.248  -8.175  0.00  0.00    +0.182 A 
ATOM     23  N   UNL     1       7.488  -0.435  -7.065  0.00  0.00    -0.224 N 
BRANCH  22  24
ATOM     24  C   UNL     1       8.463  -1.294  -9.258  0.00  0.00    +0.024 A 
ATOM     25  C   UNL     1       9.720  -0.716  -9.073  0.00  0.00    +0.012 A 
ATOM     26  C   UNL     1      10.655  -0.760 -10.086  0.00  0.00    +0.004 A 
ATOM     27  C   UNL     1      10.352  -1.377 -11.286  0.00  0.00    +0.045 A 
ATOM     28  C   UNL     1       9.105  -1.955 -11.479  0.00  0.00    +0.121 A 
ATOM     29  C   UNL     1       8.161  -1.921 -10.467  0.00  0.00    +0.057 A 
BRANCH  28  30
ATOM     30  O   UNL     1       8.812  -2.559 -12.661  0.00  0.00    -0.495 OA
ATOM     31  C   UNL     1       9.835  -2.561 -13.659  0.00  0.00    +0.277 C 
ENDBRANCH  28  30
ENDBRANCH  22  24
BRANCH  23  32
ATOM     32  N   UNL     1       8.443   0.487  -6.744  0.00  0.00    -0.295 N 
ATOM     33  H   UNL     1       9.176   0.071  -6.189  0.00  0.00    +0.163 HD
ATOM     34  H   UNL     1       8.820   0.922  -7.573  0.00  0.00    +0.163 HD
ENDBRANCH  23  32
ENDBRANCH  18  19
ENDBRANCH   1  18
TORSDOF 7
