REMARK  Name = ZINC22190003
REMARK  10 active torsions:
REMARK  status: ('A' for Active; 'I' for Inactive)
REMARK    1  A    between atoms: C_1  and  C_2
REMARK    2  A    between atoms: C_3  and  C_35
REMARK    3  A    between atoms: N_4  and  C_27
REMARK    4  A    between atoms: C_5  and  N_9
REMARK    5  A    between atoms: C_6  and  C_7
REMARK    6  A    between atoms: C_10  and  C_12
REMARK    7  A    between atoms: C_12  and  N_13
REMARK    8  A    between atoms: C_22  and  C_24
REMARK    9  A    between atoms: C_30  and  O_33
REMARK   10  A    between atoms: O_33  and  C_34
REMARK                            x       y       z     vdW  Elec       q    Type
REMARK                         _______ _______ _______ _____ _____    ______ ____
ROOT
ATOM      1  N   UNL     1       4.511   1.935  -2.907  0.00  0.00    -0.272 N 
ATOM      2  C   UNL     1       3.970   1.838  -1.677  0.00  0.00    +0.202 C 
ATOM      3  O   UNL     1       2.796   2.093  -1.509  0.00  0.00    -0.278 OA
ATOM      4  H   UNL     1       5.562   1.653  -3.070  0.00  0.00    +0.156 HD
ENDROOT
BRANCH   1   9
ATOM      5  C   UNL     1       1.856   4.860  -6.060  0.00  0.00    +0.047 C 
ATOM      6  C   UNL     1       2.539   3.682  -5.413  0.00  0.00    -0.010 A 
ATOM      7  C   UNL     1       2.557   2.418  -5.867  0.00  0.00    +0.027 A 
ATOM      8  N   UNL     1       3.280   1.637  -5.003  0.00  0.00    -0.300 N 
ATOM      9  C   UNL     1       3.743   2.390  -3.969  0.00  0.00    +0.128 A 
ATOM     10  C   UNL     1       3.307   3.693  -4.162  0.00  0.00    +0.095 A 
ATOM     11  C   UNL     1       1.888   1.934  -7.128  0.00  0.00    +0.064 C 
BRANCH   8  12
ATOM     12  C   UNL     1       3.508   0.262  -5.161  0.00  0.00    +0.048 A 
ATOM     13  C   UNL     1       4.779  -0.200  -5.473  0.00  0.00    +0.030 A 
ATOM     14  C   UNL     1       5.004  -1.554  -5.623  0.00  0.00    +0.047 A 
ATOM     15  C   UNL     1       3.957  -2.452  -5.473  0.00  0.00    +0.120 A 
ATOM     16  C   UNL     1       2.685  -1.991  -5.167  0.00  0.00    +0.047 A 
ATOM     17  C   UNL     1       2.460  -0.637  -5.011  0.00  0.00    +0.030 A 
BRANCH  15  18
ATOM     18  O   UNL     1       4.178  -3.785  -5.626  0.00  0.00    -0.495 OA
ATOM     19  C   UNL     1       5.512  -4.190  -5.941  0.00  0.00    +0.277 C 
ENDBRANCH  15  18
ENDBRANCH   8  12
BRANCH  10  20
ATOM     20  C   UNL     1       3.556   4.820  -3.314  0.00  0.00    +0.103 C 
ATOM     21  N   UNL     1       3.754   5.714  -2.642  0.00  0.00    -0.191 NA
ENDBRANCH  10  20
ENDBRANCH   1   9
BRANCH   2  22
ATOM     22  C   UNL     1       4.823   1.412  -0.510  0.00  0.00    +0.020 C 
BRANCH  22  23
ATOM     23  N   UNL     1       4.005   1.385   0.710  0.00  0.00    +0.396 N 
ATOM     24  C   UNL     1       3.454   2.711   1.003  0.00  0.00    -0.041 C 
ATOM     25  C   UNL     1       2.699   2.692   2.306  0.00  0.00    -0.061 A 
ATOM     26  C   UNL     1       1.812   3.726   2.571  0.00  0.00    +0.002 A 
ATOM     27  C   UNL     1       1.105   3.753   3.756  0.00  0.00    +0.000 A 
ATOM     28  C   UNL     1       1.281   2.745   4.686  0.00  0.00    +0.000 A 
ATOM     29  C   UNL     1       2.162   1.715   4.423  0.00  0.00    +0.004 A 
ATOM     30  C   UNL     1       2.871   1.686   3.232  0.00  0.00    -0.047 A 
ATOM     31  C   UNL     1       3.818   0.539   2.987  0.00  0.00    +0.029 C 
ATOM     32  C   UNL     1       4.786   0.893   1.857  0.00  0.00    +0.024 C 
ATOM     33  H   UNL     1       3.168   0.694   0.534  0.00  0.00    -0.080 HD
BRANCH  32  34
ATOM     34  C   UNL     1       5.562  -0.333   1.453  0.00  0.00    +0.197 C 
ATOM     35  O   UNL     1       5.178  -1.017   0.528  0.00  0.00    -0.278 OA
ATOM     36  N   UNL     1       6.685  -0.670   2.119  0.00  0.00    -0.331 N 
ATOM     37  H   UNL     1       7.252  -1.565   1.824  0.00  0.00    +0.145 HD
ATOM     38  H   UNL     1       7.034  -0.049   2.958  0.00  0.00    +0.145 HD
ENDBRANCH  32  34
ENDBRANCH  22  23
ENDBRANCH   2  22
TORSDOF 7
