REMARK  Name = ZINC20504200
REMARK  4 active torsions:
REMARK  status: ('A' for Active; 'I' for Inactive)
REMARK    1  A    between atoms: C_1  and  C_2
REMARK    2  A    between atoms: C_5  and  N_9
REMARK    3  A    between atoms: C_10  and  C_12
REMARK    4  A    between atoms: C_15  and  O_19
REMARK                            x       y       z     vdW  Elec       q    Type
REMARK                         _______ _______ _______ _____ _____    ______ ____
ROOT
ATOM      1  N   UNL     1       3.586   2.124  -0.022  0.00  0.00    -0.285 N 
ATOM      2  C   UNL     1       3.601   3.413  -0.415  0.00  0.00    +0.203 C 
ATOM      3  O   UNL     1       2.561   3.981  -0.674  0.00  0.00    -0.277 OA
ATOM      4  H   UNL     1       4.519   1.633   0.291  0.00  0.00    +0.155 HD
ENDROOT
BRANCH   1   9
ATOM      5  C   UNL     1      -1.295  -0.771   0.014  0.00  0.00    +0.044 C 
ATOM      6  C   UNL     1       0.001  -0.003   0.004  0.00  0.00    -0.048 A 
ATOM      7  C   UNL     1       0.409   0.676   1.138  0.00  0.00    +0.020 A 
ATOM      8  C   UNL     1       1.597   1.382   1.133  0.00  0.00    +0.040 A 
ATOM      9  C   UNL     1       2.382   1.409  -0.013  0.00  0.00    +0.062 A 
ATOM     10  C   UNL     1       1.969   0.726  -1.150  0.00  0.00    +0.040 A 
ATOM     11  C   UNL     1       0.780   0.022  -1.138  0.00  0.00    +0.020 A 
ATOM     12 BR   UNL     1       3.034   0.759  -2.713  0.00  0.00    -0.048 Br
ATOM     13 BR   UNL     1       2.154   2.309   2.684  0.00  0.00    -0.048 Br
ENDBRANCH   1   9
BRANCH   2  14
ATOM     14  C   UNL     1       4.911   4.149  -0.532  0.00  0.00    +0.019 C 
ATOM     15  C   UNL     1       5.390   4.621   0.858  0.00  0.00    +0.023 C 
ATOM     16  C   UNL     1       6.028   6.004   0.613  0.00  0.00    +0.097 C 
ATOM     17  C   UNL     1       5.881   6.252  -0.903  0.00  0.00    -0.050 C 
ATOM     18  N   UNL     1       4.733   5.402  -1.312  0.00  0.00    +0.388 N 
ATOM     19  H   UNL     1       4.754   5.170  -2.387  0.00  0.00    -0.085 HD
ATOM     20  H   UNL     1       3.767   5.860  -1.054  0.00  0.00    -0.085 HD
BRANCH  16  21
ATOM     21  O   UNL     1       5.330   7.010   1.350  0.00  0.00    -0.394 OA
ATOM     22  H   UNL     1       5.654   8.060   1.291  0.00  0.00    +0.210 HD
ENDBRANCH  16  21
ENDBRANCH   2  14
TORSDOF 3
