REMARK  Name = ZINC36534597
REMARK  17 active torsions:
REMARK  status: ('A' for Active; 'I' for Inactive)
REMARK    1  A    between atoms: C_1  and  C_2
REMARK    2  A    between atoms: C_7  and  C_8
REMARK    3  A    between atoms: C_8  and  C_10
REMARK    4  A    between atoms: C_8  and  N_21
REMARK    5  A    between atoms: N_12  and  C_13
REMARK    6  A    between atoms: C_13  and  C_14
REMARK    7  A    between atoms: C_13  and  C_15
REMARK    8  A    between atoms: C_13  and  C_16
REMARK    9  A    between atoms: C_16  and  C_17
REMARK   10  A    between atoms: C_17  and  C_18
REMARK   11  A    between atoms: C_17  and  C_19
REMARK   12  A    between atoms: C_17  and  C_20
REMARK   13  A    between atoms: N_21  and  C_22
REMARK   14  A    between atoms: C_23  and  C_25
REMARK   15  A    between atoms: C_25  and  C_26
REMARK   16  A    between atoms: C_25  and  C_32
REMARK   17  A    between atoms: C_25  and  O_38
REMARK                            x       y       z     vdW  Elec       q    Type
REMARK                         _______ _______ _______ _____ _____    ______ ____
ROOT
ATOM      1  C   UNL     1      -1.117   0.478   2.761  0.00  0.00    +0.192 C 
ENDROOT
BRANCH   1   8
ATOM      2  C   UNL     1       1.437   1.590   1.994  0.00  0.00    +0.044 C 
ATOM      3  C   UNL     1       0.604   0.847   0.982  0.00  0.00    -0.045 A 
ATOM      4  C   UNL     1       1.065   0.692  -0.313  0.00  0.00    +0.004 A 
ATOM      5  C   UNL     1       0.301   0.010  -1.241  0.00  0.00    +0.000 A 
ATOM      6  C   UNL     1      -0.923  -0.518  -0.875  0.00  0.00    +0.000 A 
ATOM      7  C   UNL     1      -1.384  -0.364   0.419  0.00  0.00    +0.006 A 
ATOM      8  C   UNL     1      -0.618   0.315   1.349  0.00  0.00    -0.015 A 
ENDBRANCH   1   8
BRANCH   1   9
ATOM      9  C   UNL     1      -2.602   0.227   2.801  0.00  0.00    +0.238 C 
ATOM     10  O   UNL     1      -3.048  -0.665   3.491  0.00  0.00    -0.273 OA
ATOM     11  N   UNL     1      -3.435   0.994   2.070  0.00  0.00    -0.308 N 
ATOM     12  H   UNL     1      -3.075   1.660   1.464  0.00  0.00    +0.149 HD
BRANCH  11  13
ATOM     13  C   UNL     1      -4.885   0.823   2.192  0.00  0.00    +0.030 C 
ATOM     14  C   UNL     1      -5.282  -0.554   1.656  0.00  0.00    +0.031 C 
ATOM     15  C   UNL     1      -5.290   0.934   3.663  0.00  0.00    +0.031 C 
BRANCH  13  16
ATOM     16  C   UNL     1      -5.597   1.909   1.383  0.00  0.00    +0.031 C 
BRANCH  16  17
ATOM     17  C   UNL     1      -4.740   3.177   1.368  0.00  0.00    -0.036 C 
ATOM     18  C   UNL     1      -3.657   3.048   0.295  0.00  0.00    +0.010 C 
ATOM     19  C   UNL     1      -5.625   4.387   1.058  0.00  0.00    +0.010 C 
ATOM     20  C   UNL     1      -4.082   3.365   2.736  0.00  0.00    +0.010 C 
ENDBRANCH  16  17
ENDBRANCH  13  16
ENDBRANCH  11  13
ENDBRANCH   1   9
BRANCH   1  21
ATOM     21  N   UNL     1      -0.436  -0.481   3.634  0.00  0.00    -0.286 N 
ATOM     22  C   UNL     1      -0.539  -1.918   3.365  0.00  0.00    +0.133 C 
ATOM     23  C   UNL     1       0.286  -0.043   4.684  0.00  0.00    +0.257 C 
ATOM     24  O   UNL     1       0.431   1.147   4.865  0.00  0.00    -0.272 OA
BRANCH  23  25
ATOM     25  C   UNL     1       0.912  -1.032   5.633  0.00  0.00    +0.192 C 
BRANCH  25  26
ATOM     26  C   UNL     1       2.014  -0.356   6.408  0.00  0.00    -0.003 A 
ATOM     27  C   UNL     1       1.713   0.383   7.537  0.00  0.00    +0.007 A 
ATOM     28  C   UNL     1       2.724   1.003   8.247  0.00  0.00    +0.000 A 
ATOM     29  C   UNL     1       4.036   0.884   7.829  0.00  0.00    +0.000 A 
ATOM     30  C   UNL     1       4.337   0.145   6.700  0.00  0.00    +0.000 A 
ATOM     31  C   UNL     1       3.327  -0.479   5.992  0.00  0.00    +0.007 A 
ENDBRANCH  25  26
BRANCH  25  32
ATOM     32  C   UNL     1      -0.134  -1.542   6.590  0.00  0.00    -0.003 A 
ATOM     33  C   UNL     1      -1.230  -0.757   6.898  0.00  0.00    +0.007 A 
ATOM     34  C   UNL     1      -2.190  -1.225   7.776  0.00  0.00    +0.000 A 
ATOM     35  C   UNL     1      -2.055  -2.477   8.345  0.00  0.00    +0.000 A 
ATOM     36  C   UNL     1      -0.959  -3.262   8.037  0.00  0.00    +0.000 A 
ATOM     37  C   UNL     1      -0.001  -2.796   7.156  0.00  0.00    +0.007 A 
ENDBRANCH  25  32
BRANCH  25  38
ATOM     38  O   UNL     1       1.454  -2.127   4.892  0.00  0.00    -0.371 OA
ATOM     39  H   UNL     1       2.135  -1.872   4.255  0.00  0.00    +0.212 HD
ENDBRANCH  25  38
ENDBRANCH  23  25
ENDBRANCH   1  21
TORSDOF 10
