REMARK  Name = ZINC39634682
REMARK  14 active torsions:
REMARK  status: ('A' for Active; 'I' for Inactive)
REMARK    1  A    between atoms: C_1  and  C_2
REMARK    2  A    between atoms: C_2  and  C_3
REMARK    3  A    between atoms: C_3  and  C_4
REMARK    4  A    between atoms: C_4  and  C_5
REMARK    5  A    between atoms: C_9  and  C_18
REMARK    6  A    between atoms: N_20  and  C_21
REMARK    7  A    between atoms: C_21  and  C_22
REMARK    8  A    between atoms: C_22  and  N_23
REMARK    9  A    between atoms: N_23  and  C_24
REMARK   10  A    between atoms: N_23  and  C_27
REMARK   11  A    between atoms: C_24  and  C_25
REMARK   12  A    between atoms: C_24  and  C_26
REMARK   13  A    between atoms: C_27  and  C_28
REMARK   14  A    between atoms: C_27  and  C_29
REMARK                            x       y       z     vdW  Elec       q    Type
REMARK                         _______ _______ _______ _____ _____    ______ ____
ROOT
ATOM      1  C   UNL     1       0.837  -1.105   1.552  0.00  0.00    +0.216 C 
ATOM      2  O   UNL     1       0.076  -0.169   1.430  0.00  0.00    -0.276 OA
ATOM      3  N   UNL     1       0.482  -2.326   1.105  0.00  0.00    -0.300 N 
ATOM      4  C   UNL     1       1.266  -3.581   1.169  0.00  0.00    +0.121 C 
ATOM      5  C   UNL     1       0.227  -4.674   1.504  0.00  0.00    +0.100 C 
ATOM      6  C   UNL     1      -1.115  -4.101   1.019  0.00  0.00    -0.004 C 
ATOM      7  C   UNL     1      -0.785  -2.717   0.442  0.00  0.00    +0.115 C 
ATOM      8  C   UNL     1      -1.712  -4.997  -0.062  0.00  0.00    -0.010 C 
ATOM      9  C   UNL     1      -3.073  -4.438  -0.487  0.00  0.00    -0.082 C 
ATOM     10  N   UNL     1      -3.966  -4.381   0.676  0.00  0.00    +0.379 N 
ATOM     11  C   UNL     1      -3.430  -3.445   1.673  0.00  0.00    -0.082 C 
ATOM     12  C   UNL     1      -2.084  -3.962   2.189  0.00  0.00    -0.010 C 
ATOM     13  H   UNL     1      -4.880  -4.070   0.383  0.00  0.00    -0.086 HD
ATOM     14  H   UNL     1      -4.041  -5.300   1.086  0.00  0.00    -0.086 HD
ENDROOT
BRANCH   5  15
ATOM     15  C   UNL     1       0.187  -4.924   2.990  0.00  0.00    +0.218 C 
ATOM     16  O   UNL     1       0.529  -4.051   3.760  0.00  0.00    -0.275 OA
ATOM     17  N   UNL     1      -0.227  -6.116   3.462  0.00  0.00    -0.317 N 
ATOM     18  H   UNL     1      -0.500  -6.813   2.846  0.00  0.00    +0.149 HD
BRANCH  17  19
ATOM     19  C   UNL     1      -0.266  -6.358   4.906  0.00  0.00    +0.085 C 
BRANCH  19  20
ATOM     20  C   UNL     1      -0.770  -7.778   5.172  0.00  0.00    -0.059 C 
BRANCH  20  21
ATOM     21  N   UNL     1      -0.918  -7.982   6.619  0.00  0.00    +0.384 N 
ATOM     22  H   UNL     1      -0.050  -7.757   7.081  0.00  0.00    -0.081 HD
BRANCH  21  23
ATOM     23  C   UNL     1      -1.985  -7.111   7.130  0.00  0.00    -0.074 C 
ATOM     24  C   UNL     1      -3.339  -7.796   6.935  0.00  0.00    -0.014 C 
ATOM     25  C   UNL     1      -1.757  -6.846   8.620  0.00  0.00    -0.014 C 
ENDBRANCH  21  23
BRANCH  21  26
ATOM     26  C   UNL     1      -1.263  -9.386   6.883  0.00  0.00    -0.074 C 
ATOM     27  C   UNL     1      -0.224 -10.298   6.229  0.00  0.00    -0.014 C 
ATOM     28  C   UNL     1      -1.280  -9.632   8.393  0.00  0.00    -0.014 C 
ENDBRANCH  21  26
ENDBRANCH  20  21
ENDBRANCH  19  20
ENDBRANCH  17  19
ENDBRANCH   5  15
BRANCH   1  29
ATOM     29  C   UNL     1       2.181  -0.904   2.205  0.00  0.00    +0.096 C 
BRANCH  29  30
ATOM     30  C   UNL     1       2.333   0.561   2.618  0.00  0.00    +0.009 C 
BRANCH  30  32
ATOM     31  C   UNL     1       3.848   2.231   3.694  0.00  0.00    +0.004 C 
ATOM     32  C   UNL     1       3.696   0.766   3.281  0.00  0.00    -0.003 C 
ENDBRANCH  30  32
ENDBRANCH  29  30
ENDBRANCH   1  29
TORSDOF 9
