REMARK  Name = ZINC66607223
REMARK  3 active torsions:
REMARK  status: ('A' for Active; 'I' for Inactive)
REMARK    1  A    between atoms: C_3  and  C_6
REMARK    2  A    between atoms: C_9  and  C_11
REMARK    3  A    between atoms: C_17  and  C_19
REMARK                            x       y       z     vdW  Elec       q    Type
REMARK                         _______ _______ _______ _____ _____    ______ ____
ROOT
ATOM      1  C   UNL     1       7.840   2.311  -0.067  0.00  0.00    +0.255 C 
ATOM      2  O   UNL     1       8.425   3.378  -0.063  0.00  0.00    -0.269 OA
ATOM      3  N   UNL     1       8.539   1.159  -0.087  0.00  0.00    -0.287 N 
ATOM      4  C   UNL     1       7.960  -0.197  -0.101  0.00  0.00    +0.109 C 
ATOM      5  C   UNL     1       9.057  -1.090  -0.733  0.00  0.00    +0.021 C 
ATOM      6  C   UNL     1      10.348  -0.457  -0.150  0.00  0.00    +0.032 C 
ATOM      7  C   UNL     1      10.005   1.046  -0.106  0.00  0.00    +0.144 C 
ENDROOT
BRANCH   7   8
ATOM      8  C   UNL     1      10.582   1.665   1.141  0.00  0.00    +0.154 A 
ATOM      9  N   UNL     1      10.135   1.514   2.360  0.00  0.00    -0.132 NA
ATOM     10  N   UNL     1      10.875   2.179   3.178  0.00  0.00    -0.134 NA
ATOM     11  C   UNL     1      11.825   2.778   2.519  0.00  0.00    +0.134 A 
ATOM     12  N   UNL     1      11.662   2.474   1.210  0.00  0.00    -0.313 N 
ATOM     13  C   UNL     1      12.485   2.947   0.097  0.00  0.00    +0.125 C 
ATOM     14  C   UNL     1      13.904   3.230   0.598  0.00  0.00    +0.022 C 
ATOM     15  C   UNL     1      14.000   4.676   1.084  0.00  0.00    +0.002 C 
ATOM     16  C   UNL     1      13.042   4.914   2.246  0.00  0.00    +0.008 C 
ATOM     17  C   UNL     1      12.921   3.643   3.084  0.00  0.00    +0.076 C 
ENDBRANCH   7   8
BRANCH   1  21
ATOM     18  C   UNL     1       3.738   1.809  -0.024  0.00  0.00    +0.115 A 
ATOM     19  N   UNL     1       4.189   3.062  -0.017  0.00  0.00    -0.246 NA
ATOM     20  C   UNL     1       5.465   3.328  -0.029  0.00  0.00    +0.132 A 
ATOM     21  C   UNL     1       6.376   2.279  -0.050  0.00  0.00    +0.094 A 
ATOM     22  S   UNL     1       5.264   0.878  -0.044  0.00  0.00    -0.062 S 
BRANCH  18  25
ATOM     23  C   UNL     1      -0.016   1.355   0.009  0.00  0.00    +0.008 A 
ATOM     24  C   UNL     1       1.173   2.044   0.002  0.00  0.00    +0.018 A 
ATOM     25  C   UNL     1       2.353   1.321  -0.013  0.00  0.00    +0.044 A 
ATOM     26  S   UNL     1       1.751  -0.360  -0.017  0.00  0.00    -0.095 S 
ATOM     27  C   UNL     1       0.002  -0.004   0.002  0.00  0.00    +0.046 A 
ENDBRANCH  18  25
ENDBRANCH   1  21
TORSDOF 3
