REMARK  Name = ZINC12561486
REMARK  13 active torsions:
REMARK  status: ('A' for Active; 'I' for Inactive)
REMARK    1  A    between atoms: C_1  and  C_2
REMARK    2  A    between atoms: C_2  and  C_32
REMARK    3  A    between atoms: C_4  and  N_10
REMARK    4  A    between atoms: C_6  and  C_8
REMARK    5  A    between atoms: C_6  and  C_9
REMARK    6  A    between atoms: N_10  and  C_11
REMARK    7  A    between atoms: C_11  and  C_12
REMARK    8  A    between atoms: C_12  and  C_14
REMARK    9  A    between atoms: C_12  and  O_31
REMARK   10  A    between atoms: C_14  and  O_15
REMARK   11  A    between atoms: O_15  and  C_16
REMARK   12  A    between atoms: C_16  and  C_17
REMARK   13  A    between atoms: C_16  and  C_24
REMARK                            x       y       z     vdW  Elec       q    Type
REMARK                         _______ _______ _______ _____ _____    ______ ____
ROOT
ATOM      1  C   UNL     1       4.601  -1.059  -4.044  0.00  0.00    +0.123 C 
ENDROOT
BRANCH   1   2
ATOM      2  O   UNL     1       3.997  -0.358  -5.133  0.00  0.00    -0.391 OA
ATOM      3  H   UNL     1       4.159   0.595  -5.125  0.00  0.00    +0.210 HD
ENDBRANCH   1   2
BRANCH   1   4
ATOM      4  C   UNL     1       4.052  -0.520  -2.722  0.00  0.00    -0.048 C 
BRANCH   4   5
ATOM      5  N   UNL     1       2.617  -0.820  -2.629  0.00  0.00    +0.383 N 
ATOM      6  H   UNL     1       2.479  -1.819  -2.668  0.00  0.00    -0.085 HD
ATOM      7  H   UNL     1       2.131  -0.384  -3.399  0.00  0.00    -0.085 HD
BRANCH   5  11
ATOM      8  C   UNL     1      -0.019   1.528   0.010  0.00  0.00    -0.010 C 
ATOM      9  C   UNL     1       0.002  -0.004   0.002  0.00  0.00    -0.075 C 
ATOM     10  C   UNL     1       0.573  -0.505  -1.321  0.00  0.00    -0.029 C 
ATOM     11  C   UNL     1       2.088  -0.301  -1.357  0.00  0.00    -0.074 C 
ATOM     12  C   UNL     1       2.703  -1.086  -0.198  0.00  0.00    -0.029 C 
ATOM     13  C   UNL     1       2.147  -0.590   1.133  0.00  0.00    -0.075 C 
ATOM     14  N   UNL     1       0.697  -0.529   1.164  0.00  0.00    +0.386 N 
ATOM     15  C   UNL     1       2.769   0.766   1.481  0.00  0.00    -0.010 C 
ATOM     16  C   UNL     1       2.600  -1.589   2.223  0.00  0.00    -0.010 C 
ATOM     17  C   UNL     1      -1.468  -0.478   0.079  0.00  0.00    -0.010 C 
ATOM     18  H   UNL     1       0.416   0.021   1.982  0.00  0.00    -0.084 HD
ATOM     19  H   UNL     1       0.341  -1.472   1.351  0.00  0.00    -0.084 HD
ENDBRANCH   5  11
ENDBRANCH   4   5
ENDBRANCH   1   4
BRANCH   1  20
ATOM     20  C   UNL     1       6.118  -0.858  -4.086  0.00  0.00    +0.190 C 
BRANCH  20  21
ATOM     21  O   UNL     1       6.646  -1.465  -5.267  0.00  0.00    -0.365 OA
BRANCH  21  22
ATOM     22  C   UNL     1       8.062  -1.334  -5.404  0.00  0.00    +0.178 C 
BRANCH  22  23
ATOM     23  C   UNL     1       8.742  -2.506  -4.744  0.00  0.00    -0.014 A 
ATOM     24  C   UNL     1       8.210  -3.776  -4.875  0.00  0.00    +0.008 A 
ATOM     25  C   UNL     1       8.833  -4.851  -4.270  0.00  0.00    +0.020 A 
ATOM     26  C   UNL     1       9.989  -4.657  -3.534  0.00  0.00    +0.041 A 
ATOM     27  C   UNL     1      10.520  -3.386  -3.404  0.00  0.00    +0.020 A 
ATOM     28  C   UNL     1       9.899  -2.312  -4.014  0.00  0.00    +0.008 A 
ATOM     29 CL   UNL     1      10.771  -6.007  -2.774  0.00  0.00    -0.084 Cl
ENDBRANCH  22  23
BRANCH  22  30
ATOM     30  C   UNL     1       8.425  -1.301  -6.867  0.00  0.00    -0.014 A 
ATOM     31  C   UNL     1       7.703  -2.054  -7.774  0.00  0.00    +0.008 A 
ATOM     32  C   UNL     1       8.035  -2.024  -9.116  0.00  0.00    +0.020 A 
ATOM     33  C   UNL     1       9.089  -1.241  -9.550  0.00  0.00    +0.041 A 
ATOM     34  C   UNL     1       9.811  -0.488  -8.641  0.00  0.00    +0.020 A 
ATOM     35  C   UNL     1       9.475  -0.514  -7.301  0.00  0.00    +0.008 A 
ATOM     36 CL   UNL     1       9.507  -1.204 -11.235  0.00  0.00    -0.084 Cl
ENDBRANCH  22  30
ENDBRANCH  21  22
ENDBRANCH  20  21
ENDBRANCH   1  20
TORSDOF 9
