REMARK  Name = ZINC11859990
REMARK  9 active torsions:
REMARK  status: ('A' for Active; 'I' for Inactive)
REMARK    1  A    between atoms: C_3  and  O_19
REMARK    2  A    between atoms: C_6  and  C_7
REMARK    3  A    between atoms: C_7  and  N_8
REMARK    4  A    between atoms: N_8  and  S_9
REMARK    5  A    between atoms: S_9  and  C_12
REMARK    6  A    between atoms: C_15  and  N_18
REMARK    7  A    between atoms: O_19  and  C_20
REMARK    8  A    between atoms: C_20  and  C_21
REMARK    9  A    between atoms: C_21  and  N_54
REMARK                            x       y       z     vdW  Elec       q    Type
REMARK                         _______ _______ _______ _____ _____    ______ ____
ROOT
ATOM      1  C   UNL     1      -0.053   0.027  -0.307  0.00  0.00    +0.008 A 
ATOM      2  C   UNL     1      -0.056   1.408  -0.274  0.00  0.00    +0.046 A 
ATOM      3  C   UNL     1       1.140   2.101  -0.160  0.00  0.00    +0.120 A 
ATOM      4  C   UNL     1       2.337   1.404  -0.079  0.00  0.00    +0.046 A 
ATOM      5  C   UNL     1       2.336   0.023  -0.113  0.00  0.00    +0.008 A 
ATOM      6  C   UNL     1       1.142  -0.665  -0.227  0.00  0.00    -0.032 A 
ENDROOT
BRANCH   6   7
ATOM      7  C   UNL     1       1.143  -2.171  -0.263  0.00  0.00    +0.141 C 
BRANCH   7   8
ATOM      8  N   UNL     1       1.254  -2.627  -1.651  0.00  0.00    -0.186 NA
ATOM      9  H   UNL     1       1.096  -2.006  -2.379  0.00  0.00    +0.148 HD
BRANCH   8  10
ATOM     10  S   UNL     1       1.651  -4.202  -1.976  0.00  0.00    +0.059 S 
ATOM     11  O   UNL     1       1.654  -4.336  -3.390  0.00  0.00    -0.153 OA
ATOM     12  O   UNL     1       2.788  -4.507  -1.179  0.00  0.00    -0.153 OA
BRANCH  10  13
ATOM     13  C   UNL     1       0.332  -5.205  -1.377  0.00  0.00    +0.105 A 
ATOM     14  C   UNL     1       0.364  -5.685  -0.081  0.00  0.00    +0.030 A 
ATOM     15  C   UNL     1      -0.670  -6.468   0.393  0.00  0.00    +0.024 A 
ATOM     16  C   UNL     1      -1.739  -6.781  -0.438  0.00  0.00    +0.025 A 
ATOM     17  C   UNL     1      -1.765  -6.302  -1.741  0.00  0.00    +0.024 A 
ATOM     18  C   UNL     1      -0.730  -5.516  -2.207  0.00  0.00    +0.030 A 
BRANCH  16  19
ATOM     19  N   UNL     1      -2.784  -7.577   0.037  0.00  0.00    -0.358 N 
ATOM     20  H   UNL     1      -3.530  -7.795  -0.544  0.00  0.00    +0.142 HD
ATOM     21  H   UNL     1      -2.765  -7.911   0.948  0.00  0.00    +0.142 HD
ENDBRANCH  16  19
ENDBRANCH  10  13
ENDBRANCH   8  10
ENDBRANCH   7   8
ENDBRANCH   6   7
BRANCH   3  22
ATOM     22  O   UNL     1       1.139   3.459  -0.128  0.00  0.00    -0.494 OA
BRANCH  22  23
ATOM     23  C   UNL     1       2.408   4.106  -0.009  0.00  0.00    +0.210 C 
BRANCH  23  24
ATOM     24  C   UNL     1       2.208   5.623   0.010  0.00  0.00    -0.037 C 
BRANCH  24  30
ATOM     25  C   UNL     1       0.845   7.325   1.062  0.00  0.00    -0.079 C 
ATOM     26  C   UNL     1      -0.038   7.624   2.275  0.00  0.00    -0.019 C 
ATOM     27  C   UNL     1       0.818   7.588   3.544  0.00  0.00    -0.004 C 
ATOM     28  C   UNL     1       1.490   6.217   3.659  0.00  0.00    -0.019 C 
ATOM     29  C   UNL     1       2.329   5.959   2.405  0.00  0.00    -0.079 C 
ATOM     30  N   UNL     1       1.442   5.982   1.222  0.00  0.00    +0.382 N 
ATOM     31  H   UNL     1       0.690   5.297   1.356  0.00  0.00    -0.082 HD
ENDBRANCH  24  30
ENDBRANCH  23  24
ENDBRANCH  22  23
ENDBRANCH   3  22
TORSDOF 9
