REMARK  Name = ZINC67478533
REMARK  9 active torsions:
REMARK  status: ('A' for Active; 'I' for Inactive)
REMARK    1  A    between atoms: C_1  and  C_2
REMARK    2  A    between atoms: C_2  and  C_4
REMARK    3  A    between atoms: C_2  and  N_13
REMARK    4  A    between atoms: N_6  and  C_7
REMARK    5  A    between atoms: C_7  and  C_8
REMARK    6  A    between atoms: N_16  and  C_17
REMARK    7  A    between atoms: C_17  and  C_18
REMARK    8  A    between atoms: N_23  and  C_24
REMARK    9  A    between atoms: C_24  and  C_25
REMARK                            x       y       z     vdW  Elec       q    Type
REMARK                         _______ _______ _______ _____ _____    ______ ____
ROOT
ATOM      1  N   UNL     1      -1.290  -0.742   0.483  0.00  0.00    -0.288 N 
ATOM      2  C   UNL     1      -1.885  -0.781  -0.725  0.00  0.00    +0.300 C 
ATOM      3  O   UNL     1      -1.266  -0.450  -1.718  0.00  0.00    -0.253 OA
ATOM      4  N   UNL     1      -3.166  -1.187  -0.834  0.00  0.00    -0.301 N 
ATOM      5  H   UNL     1      -1.784  -1.006   1.276  0.00  0.00    +0.151 HD
ATOM      6  H   UNL     1      -3.659  -1.451  -0.041  0.00  0.00    +0.150 HD
ENDROOT
BRANCH   1   8
ATOM      7  C   UNL     1       0.147   1.226   0.692  0.00  0.00    +0.038 C 
ATOM      8  C   UNL     1       0.102  -0.300   0.601  0.00  0.00    +0.157 C 
BRANCH   8   9
ATOM      9  C   UNL     1       0.714  -0.896   1.842  0.00  0.00    +0.233 C 
ATOM     10  O   UNL     1       0.053  -1.618   2.558  0.00  0.00    -0.274 OA
ATOM     11  N   UNL     1       1.997  -0.627   2.157  0.00  0.00    -0.307 N 
ATOM     12  H   UNL     1       2.526  -0.049   1.584  0.00  0.00    +0.149 HD
BRANCH  11  13
ATOM     13  C   UNL     1       2.592  -1.206   3.363  0.00  0.00    +0.178 C 
BRANCH  13  14
ATOM     14  C   UNL     1       4.024  -0.752   3.484  0.00  0.00    +0.122 A 
ATOM     15  C   UNL     1       4.449   0.350   4.128  0.00  0.00    +0.046 A 
ATOM     16  C   UNL     1       5.855   0.389   3.991  0.00  0.00    +0.041 A 
ATOM     17  C   UNL     1       6.207  -0.692   3.272  0.00  0.00    +0.195 A 
ATOM     18  O   UNL     1       5.094  -1.382   2.972  0.00  0.00    -0.466 OA
ENDBRANCH  13  14
ENDBRANCH  11  13
ENDBRANCH   8   9
ENDBRANCH   1   8
BRANCH   4  19
ATOM     19  C   UNL     1      -3.812  -1.229  -2.147  0.00  0.00    +0.090 C 
BRANCH  19  20
ATOM     20  C   UNL     1      -5.252  -1.722  -1.992  0.00  0.00    -0.051 C 
ATOM     21  C   UNL     1      -5.889  -1.931  -3.382  0.00  0.00    -0.016 C 
ATOM     22  C   UNL     1      -5.708  -3.453  -3.622  0.00  0.00    -0.020 C 
ATOM     23  C   UNL     1      -5.900  -4.021  -2.194  0.00  0.00    -0.078 C 
ATOM     24  N   UNL     1      -5.265  -3.024  -1.300  0.00  0.00    +0.383 N 
ATOM     25  H   UNL     1      -4.320  -3.307  -1.091  0.00  0.00    -0.081 HD
BRANCH  24  26
ATOM     26  C   UNL     1      -6.033  -2.914  -0.053  0.00  0.00    -0.075 C 
BRANCH  26  27
ATOM     27  C   UNL     1      -5.928  -4.225   0.729  0.00  0.00    -0.028 C 
ATOM     28  C   UNL     1      -6.838  -4.162   1.956  0.00  0.00    +0.002 C 
ATOM     29  C   UNL     1      -6.733  -5.473   2.738  0.00  0.00    +0.000 C 
ATOM     30  C   UNL     1      -5.285  -5.684   3.186  0.00  0.00    +0.000 C 
ATOM     31  C   UNL     1      -4.375  -5.747   1.958  0.00  0.00    +0.000 C 
ATOM     32  C   UNL     1      -4.480  -4.436   1.177  0.00  0.00    +0.002 C 
ENDBRANCH  26  27
ENDBRANCH  24  26
ENDBRANCH  19  20
ENDBRANCH   4  19
TORSDOF 8
