REMARK  Name = ZINC39675163
REMARK  10 active torsions:
REMARK  status: ('A' for Active; 'I' for Inactive)
REMARK    1  A    between atoms: C_1  and  C_2
REMARK    2  A    between atoms: C_6  and  C_8
REMARK    3  A    between atoms: C_12  and  C_21
REMARK    4  A    between atoms: N_23  and  C_24
REMARK    5  A    between atoms: C_24  and  C_26
REMARK    6  A    between atoms: C_24  and  C_27
REMARK    7  A    between atoms: C_27  and  C_28
REMARK    8  A    between atoms: C_28  and  C_29
REMARK    9  A    between atoms: C_32  and  O_35
REMARK   10  A    between atoms: O_35  and  C_36
REMARK                            x       y       z     vdW  Elec       q    Type
REMARK                         _______ _______ _______ _____ _____    ______ ____
ROOT
ATOM      1  C   UNL     1       0.058  -2.847   2.473  0.00  0.00    +0.247 C 
ATOM      2  O   UNL     1      -0.022  -2.227   1.430  0.00  0.00    -0.270 OA
ATOM      3  N   UNL     1       0.175  -4.189   2.452  0.00  0.00    -0.296 N 
ATOM      4  C   UNL     1       0.305  -5.071   1.268  0.00  0.00    +0.121 C 
ATOM      5  C   UNL     1       1.331  -6.146   1.692  0.00  0.00    +0.100 C 
ATOM      6  C   UNL     1       1.259  -6.172   3.228  0.00  0.00    -0.004 C 
ATOM      7  C   UNL     1       0.210  -5.117   3.608  0.00  0.00    +0.115 C 
ATOM      8  C   UNL     1       0.822  -7.551   3.713  0.00  0.00    -0.010 C 
ATOM      9  C   UNL     1       0.813  -7.570   5.244  0.00  0.00    -0.082 C 
ATOM     10  N   UNL     1       2.156  -7.256   5.747  0.00  0.00    +0.379 N 
ATOM     11  C   UNL     1       2.532  -5.893   5.354  0.00  0.00    -0.082 C 
ATOM     12  C   UNL     1       2.613  -5.803   3.828  0.00  0.00    -0.010 C 
ATOM     13  H   UNL     1       2.163  -7.329   6.753  0.00  0.00    -0.086 HD
ATOM     14  H   UNL     1       2.820  -7.911   5.360  0.00  0.00    -0.086 HD
ENDROOT
BRANCH   1  20
ATOM     15  C   UNL     1       1.180   1.176   5.204  0.00  0.00    +0.044 C 
ATOM     16  C   UNL     1       0.563  -0.194   5.082  0.00  0.00    -0.050 A 
ATOM     17  C   UNL     1      -0.035  -0.781   6.183  0.00  0.00    +0.003 A 
ATOM     18  C   UNL     1      -0.604  -2.038   6.080  0.00  0.00    +0.001 A 
ATOM     19  C   UNL     1      -0.577  -2.714   4.878  0.00  0.00    +0.013 A 
ATOM     20  C   UNL     1       0.025  -2.128   3.764  0.00  0.00    +0.037 A 
ATOM     21  C   UNL     1       0.592  -0.857   3.873  0.00  0.00    +0.016 A 
ENDBRANCH   1  20
BRANCH   5  22
ATOM     22  C   UNL     1       2.715  -5.759   1.237  0.00  0.00    +0.218 C 
ATOM     23  O   UNL     1       3.043  -4.592   1.220  0.00  0.00    -0.275 OA
ATOM     24  N   UNL     1       3.587  -6.710   0.848  0.00  0.00    -0.312 N 
ATOM     25  H   UNL     1       3.324  -7.644   0.861  0.00  0.00    +0.149 HD
BRANCH  24  26
ATOM     26  C   UNL     1       4.931  -6.334   0.405  0.00  0.00    +0.070 C 
ATOM     27  C   UNL     1       5.849  -6.197   1.621  0.00  0.00    +0.028 C 
BRANCH  26  28
ATOM     28  C   UNL     1       5.481  -7.414  -0.530  0.00  0.00    +0.026 C 
BRANCH  28  29
ATOM     29  C   UNL     1       4.634  -7.465  -1.804  0.00  0.00    +0.037 C 
BRANCH  29  30
ATOM     30  C   UNL     1       5.176  -8.528  -2.724  0.00  0.00    -0.047 A 
ATOM     31  C   UNL     1       6.148  -8.207  -3.653  0.00  0.00    +0.007 A 
ATOM     32  C   UNL     1       6.645  -9.180  -4.498  0.00  0.00    +0.046 A 
ATOM     33  C   UNL     1       6.169 -10.480  -4.414  0.00  0.00    +0.120 A 
ATOM     34  C   UNL     1       5.193 -10.800  -3.481  0.00  0.00    +0.046 A 
ATOM     35  C   UNL     1       4.703  -9.825  -2.634  0.00  0.00    +0.007 A 
BRANCH  33  36
ATOM     36  O   UNL     1       6.656 -11.439  -5.245  0.00  0.00    -0.495 OA
ATOM     37  C   UNL     1       6.119 -12.756  -5.102  0.00  0.00    +0.277 C 
ENDBRANCH  33  36
ENDBRANCH  29  30
ENDBRANCH  28  29
ENDBRANCH  26  28
ENDBRANCH  24  26
ENDBRANCH   5  22
TORSDOF 7
