REMARK  Name = ZINC63271394
REMARK  5 active torsions:
REMARK  status: ('A' for Active; 'I' for Inactive)
REMARK    1  A    between atoms: C_1  and  C_2
REMARK    2  A    between atoms: C_2  and  C_4
REMARK    3  A    between atoms: C_7  and  N_10
REMARK    4  A    between atoms: C_11  and  C_13
REMARK    5  A    between atoms: C_13  and  N_14
REMARK                            x       y       z     vdW  Elec       q    Type
REMARK                         _______ _______ _______ _____ _____    ______ ____
ROOT
ATOM      1  N   UNL     1      -5.831  -6.424  -0.275  0.00  0.00    -0.291 N 
ATOM      2  C   UNL     1      -6.844  -7.306  -0.385  0.00  0.00    +0.303 C 
ATOM      3  O   UNL     1      -7.988  -6.908  -0.492  0.00  0.00    -0.253 OA
ATOM      4  N   UNL     1      -6.589  -8.630  -0.376  0.00  0.00    -0.283 N 
ATOM      5  C   UNL     1      -5.201  -9.101  -0.358  0.00  0.00    +0.114 C 
ATOM      6  C   UNL     1      -4.950 -10.007  -1.577  0.00  0.00    +0.052 C 
ATOM      7  C   UNL     1      -6.125 -10.950  -1.664  0.00  0.00    -0.036 C 
ATOM      8  C   UNL     1      -6.185 -12.273  -1.754  0.00  0.00    -0.001 A 
ATOM      9  C   UNL     1      -5.135 -13.292  -1.911  0.00  0.00    +0.010 A 
ATOM     10  C   UNL     1      -5.555 -14.584  -1.948  0.00  0.00    +0.001 A 
ATOM     11  C   UNL     1      -6.898 -14.960  -1.847  0.00  0.00    +0.002 A 
ATOM     12  C   UNL     1      -7.929 -14.089  -1.709  0.00  0.00    +0.026 A 
ATOM     13  C   UNL     1      -7.614 -12.700  -1.665  0.00  0.00    +0.043 A 
ATOM     14  N   UNL     1      -8.393 -11.664  -1.564  0.00  0.00    -0.376 N 
ATOM     15  C   UNL     1      -7.568 -10.457  -1.638  0.00  0.00    +0.124 C 
ATOM     16  C   UNL     1      -7.708  -9.586  -0.380  0.00  0.00    +0.138 C 
ATOM     17  H   UNL     1      -4.913  -6.739  -0.263  0.00  0.00    +0.151 HD
ATOM     18  H   UNL     1      -9.357 -11.686  -1.458  0.00  0.00    +0.160 HD
ENDROOT
BRANCH   1  19
ATOM     19  C   UNL     1      -6.115  -4.991  -0.174  0.00  0.00    +0.202 C 
BRANCH  19  21
ATOM     20  N   UNL     1      -4.836  -2.885   0.043  0.00  0.00    -0.284 N 
ATOM     21  C   UNL     1      -4.820  -4.228  -0.062  0.00  0.00    +0.234 C 
ATOM     22  O   UNL     1      -3.763  -4.824  -0.066  0.00  0.00    -0.274 OA
ATOM     23  H   UNL     1      -5.680  -2.414   0.121  0.00  0.00    +0.155 HD
BRANCH  20  27
ATOM     24  C   UNL     1      -1.262  -0.755   0.033  0.00  0.00    +0.017 A 
ATOM     25  C   UNL     1      -1.383  -1.927  -0.724  0.00  0.00    +0.013 A 
ATOM     26  C   UNL     1      -2.563  -2.626  -0.718  0.00  0.00    +0.024 A 
ATOM     27  C   UNL     1      -3.639  -2.172   0.040  0.00  0.00    +0.033 A 
ATOM     28  C   UNL     1      -3.523  -1.007   0.794  0.00  0.00    +0.024 A 
ATOM     29  C   UNL     1      -2.345  -0.305   0.798  0.00  0.00    +0.013 A 
BRANCH  24  31
ATOM     30  C   UNL     1       1.164  -0.490  -0.794  0.00  0.00    +0.091 C 
ATOM     31  C   UNL     1      -0.000  -0.004   0.030  0.00  0.00    +0.160 C 
ATOM     32  O   UNL     1       0.105   1.008   0.690  0.00  0.00    -0.292 OA
ENDBRANCH  24  31
ENDBRANCH  20  27
ENDBRANCH  19  21
ENDBRANCH   1  19
TORSDOF 4
