REMARK  Name = ZINC32561922
REMARK  7 active torsions:
REMARK  status: ('A' for Active; 'I' for Inactive)
REMARK    1  A    between atoms: C_1  and  C_2
REMARK    2  A    between atoms: C_5  and  S_8
REMARK    3  A    between atoms: S_8  and  N_11
REMARK    4  A    between atoms: N_11  and  N_12
REMARK    5  A    between atoms: C_13  and  C_14
REMARK    6  A    between atoms: C_17  and  O_21
REMARK    7  A    between atoms: C_18  and  O_20
REMARK                            x       y       z     vdW  Elec       q    Type
REMARK                         _______ _______ _______ _____ _____    ______ ____
ROOT
ATOM      1  N   UNL     1       1.635  -3.399  -1.475  0.00  0.00    -0.137 N 
ATOM      2  H   UNL     1       1.235  -4.245  -1.729  0.00  0.00    +0.197 HD
ENDROOT
BRANCH   1   3
ATOM      3  S   UNL     1       1.504  -2.854   0.083  0.00  0.00    +0.086 S 
ATOM      4  O   UNL     1       2.825  -2.584   0.531  0.00  0.00    -0.149 OA
ATOM      5  O   UNL     1       0.641  -3.759   0.758  0.00  0.00    -0.149 OA
BRANCH   3  10
ATOM      6  C   UNL     1      -1.370   2.447  -0.112  0.00  0.00    +0.044 C 
ATOM      7  C   UNL     1      -0.652   1.123  -0.063  0.00  0.00    -0.050 A 
ATOM      8  C   UNL     1      -1.373  -0.049   0.068  0.00  0.00    +0.005 A 
ATOM      9  C   UNL     1      -0.714  -1.264   0.112  0.00  0.00    +0.029 A 
ATOM     10  C   UNL     1       0.665  -1.306   0.025  0.00  0.00    +0.110 A 
ATOM     11  C   UNL     1       1.385  -0.134  -0.106  0.00  0.00    +0.029 A 
ATOM     12  C   UNL     1       0.727   1.081  -0.151  0.00  0.00    +0.005 A 
ENDBRANCH   3  10
ENDBRANCH   1   3
BRANCH   1  13
ATOM     13  N   UNL     1       2.324  -2.637  -2.428  0.00  0.00    -0.174 NA
ATOM     14  C   UNL     1       2.305  -2.988  -3.677  0.00  0.00    +0.139 C 
BRANCH  14  15
ATOM     15  C   UNL     1       1.208  -3.829  -4.190  0.00  0.00    -0.002 A 
ATOM     16  C   UNL     1       1.300  -4.402  -5.460  0.00  0.00    +0.013 A 
ATOM     17  C   UNL     1       0.274  -5.193  -5.936  0.00  0.00    +0.050 A 
ATOM     18  C   UNL     1      -0.854  -5.412  -5.160  0.00  0.00    +0.158 A 
ATOM     19  C   UNL     1      -0.955  -4.839  -3.894  0.00  0.00    +0.159 A 
ATOM     20  C   UNL     1       0.071  -4.050  -3.409  0.00  0.00    +0.058 A 
BRANCH  19  21
ATOM     21  O   UNL     1      -2.063  -5.056  -3.136  0.00  0.00    -0.503 OA
ATOM     22  H   UNL     1      -2.143  -4.604  -2.137  0.00  0.00    +0.292 HD
ENDBRANCH  19  21
BRANCH  18  23
ATOM     23  O   UNL     1      -1.864  -6.188  -5.636  0.00  0.00    -0.503 OA
ATOM     24  H   UNL     1      -2.760  -6.362  -5.021  0.00  0.00    +0.292 HD
ENDBRANCH  18  23
ENDBRANCH  14  15
ENDBRANCH   1  13
TORSDOF 6
