REMARK  Name = ZINC15452723
REMARK  13 active torsions:
REMARK  status: ('A' for Active; 'I' for Inactive)
REMARK    1  A    between atoms: C_1  and  C_2
REMARK    2  A    between atoms: C_2  and  C_3
REMARK    3  A    between atoms: C_3  and  C_4
REMARK    4  A    between atoms: C_4  and  N_5
REMARK    5  A    between atoms: C_6  and  N_33
REMARK    6  A    between atoms: C_7  and  N_14
REMARK    7  A    between atoms: N_14  and  C_15
REMARK    8  A    between atoms: C_15  and  C_16
REMARK    9  A    between atoms: C_17  and  C_19
REMARK   10  A    between atoms: C_19  and  N_65
REMARK   11  A    between atoms: C_23  and  C_25
REMARK   12  A    between atoms: C_28  and  O_31
REMARK   13  A    between atoms: O_31  and  C_32
REMARK                            x       y       z     vdW  Elec       q    Type
REMARK                         _______ _______ _______ _____ _____    ______ ____
ROOT
ATOM      1  N   UNL     1       0.349   1.031   2.405  0.00  0.00    -0.266 N 
ATOM      2  C   UNL     1       1.113   2.022   2.910  0.00  0.00    +0.203 C 
ATOM      3  O   UNL     1       1.802   1.820   3.887  0.00  0.00    -0.277 OA
ENDROOT
BRANCH   1   6
ATOM      4  N   UNL     1       1.270  -2.207   3.877  0.00  0.00    -0.280 N 
ATOM      5  C   UNL     1       1.381  -1.009   3.212  0.00  0.00    +0.127 A 
ATOM      6  C   UNL     1       0.266  -0.207   3.077  0.00  0.00    +0.140 A 
ATOM      7  C   UNL     1      -0.957  -0.648   3.617  0.00  0.00    +0.277 A 
ATOM      8  O   UNL     1      -1.959   0.039   3.508  0.00  0.00    -0.266 OA
ATOM      9  N   UNL     1      -1.013  -1.833   4.254  0.00  0.00    -0.273 N 
ATOM     10  H   UNL     1      -1.881  -2.148   4.638  0.00  0.00    +0.173 HD
ATOM     11  C   UNL     1       0.085  -2.599   4.381  0.00  0.00    +0.331 A 
ATOM     12  O   UNL     1       0.006  -3.665   4.961  0.00  0.00    -0.246 OA
BRANCH   5  13
ATOM     13  N   UNL     1       2.590  -0.611   2.693  0.00  0.00    -0.343 N 
ATOM     14  H   UNL     1       2.677   0.262   2.280  0.00  0.00    +0.144 HD
ATOM     15  H   UNL     1       3.356  -1.204   2.739  0.00  0.00    +0.144 HD
ENDBRANCH   5  13
BRANCH   4  16
ATOM     16  C   UNL     1       2.447  -3.066   4.033  0.00  0.00    +0.128 C 
BRANCH  16  17
ATOM     17  C   UNL     1       2.543  -4.020   2.840  0.00  0.00    +0.021 C 
BRANCH  17  19
ATOM     18  C   UNL     1       3.869  -5.870   1.810  0.00  0.00    +0.004 C 
ATOM     19  C   UNL     1       3.772  -4.916   3.003  0.00  0.00    -0.002 C 
ENDBRANCH  17  19
ENDBRANCH  16  17
ENDBRANCH   4  16
ENDBRANCH   1   6
BRANCH   1  20
ATOM     20  C   UNL     1      -0.394   1.240   1.160  0.00  0.00    +0.110 C 
ATOM     21  C   UNL     1       0.510   0.923  -0.033  0.00  0.00    +0.025 C 
ENDBRANCH   1  20
BRANCH   2  22
ATOM     22  C   UNL     1       1.110   3.381   2.259  0.00  0.00    +0.020 C 
BRANCH  22  27
ATOM     23  C   UNL     1       1.295   4.552   4.380  0.00  0.00    -0.077 C 
ATOM     24  C   UNL     1       1.599   6.012   4.762  0.00  0.00    -0.020 C 
ATOM     25  C   UNL     1       2.399   6.584   3.570  0.00  0.00    -0.013 C 
ATOM     26  C   UNL     1       2.007   5.641   2.405  0.00  0.00    -0.037 C 
ATOM     27  N   UNL     1       1.923   4.336   3.071  0.00  0.00    +0.390 N 
ATOM     28  H   UNL     1       2.867   3.951   3.198  0.00  0.00    -0.080 HD
BRANCH  26  29
ATOM     29  C   UNL     1       3.073   5.639   1.340  0.00  0.00    -0.061 A 
ATOM     30  C   UNL     1       4.271   4.986   1.564  0.00  0.00    +0.005 A 
ATOM     31  C   UNL     1       5.248   4.978   0.587  0.00  0.00    +0.046 A 
ATOM     32  C   UNL     1       5.030   5.636  -0.615  0.00  0.00    +0.120 A 
ATOM     33  C   UNL     1       3.829   6.295  -0.835  0.00  0.00    +0.046 A 
ATOM     34  C   UNL     1       2.853   6.295   0.143  0.00  0.00    +0.005 A 
BRANCH  32  35
ATOM     35  O   UNL     1       5.991   5.634  -1.576  0.00  0.00    -0.495 OA
ATOM     36  C   UNL     1       7.202   4.935  -1.281  0.00  0.00    +0.277 C 
ENDBRANCH  32  35
ENDBRANCH  26  29
ENDBRANCH  22  27
ENDBRANCH   2  22
TORSDOF 10
