REMARK  Name = ZINC27017230
REMARK  6 active torsions:
REMARK  status: ('A' for Active; 'I' for Inactive)
REMARK    1  A    between atoms: C_4  and  C_7
REMARK    2  A    between atoms: C_7  and  C_9
REMARK    3  A    between atoms: C_12  and  C_13
REMARK    4  A    between atoms: C_16  and  C_18
REMARK    5  A    between atoms: C_30  and  C_31
REMARK    6  A    between atoms: C_30  and  O_35
REMARK                            x       y       z     vdW  Elec       q    Type
REMARK                         _______ _______ _______ _____ _____    ______ ____
ROOT
ATOM      1  C   UNL     1       3.621  -2.364   0.067  0.00  0.00    +0.164 C 
ATOM      2  C   UNL     1       3.478  -2.849  -1.363  0.00  0.00    +0.031 C 
ATOM      3  C   UNL     1       2.429  -3.589  -1.748  0.00  0.00    +0.066 C 
ATOM      4  N   UNL     1       4.483  -2.491  -2.259  0.00  0.00    -0.272 N 
ATOM      5  C   UNL     1       5.703  -2.175  -1.787  0.00  0.00    +0.306 C 
ATOM      6  O   UNL     1       6.566  -1.838  -2.573  0.00  0.00    -0.252 OA
ATOM      7  N   UNL     1       6.000  -2.217  -0.481  0.00  0.00    -0.263 N 
ATOM      8  C   UNL     1       5.048  -2.688   0.526  0.00  0.00    +0.246 C 
ATOM      9  H   UNL     1       4.306  -2.470  -3.213  0.00  0.00    +0.156 HD
ATOM     10  H   UNL     1       6.879  -1.925  -0.192  0.00  0.00    +0.153 HD
ENDROOT
BRANCH   3  11
ATOM     11  C   UNL     1       2.322  -4.042  -3.139  0.00  0.00    +0.130 A 
ATOM     12  C   UNL     1       1.307  -4.794  -3.660  0.00  0.00    +0.050 A 
ATOM     13  C   UNL     1       1.603  -4.995  -5.016  0.00  0.00    +0.050 A 
ATOM     14  C   UNL     1       2.782  -4.361  -5.266  0.00  0.00    +0.136 A 
ATOM     15  O   UNL     1       3.205  -3.782  -4.123  0.00  0.00    -0.455 OA
BRANCH  14  16
ATOM     16  C   UNL     1       3.477  -4.310  -6.567  0.00  0.00    +0.019 A 
ATOM     17  C   UNL     1       2.925  -4.945  -7.682  0.00  0.00    +0.013 A 
ATOM     18  C   UNL     1       3.578  -4.894  -8.896  0.00  0.00    +0.022 A 
ATOM     19  C   UNL     1       4.779  -4.215  -9.011  0.00  0.00    +0.059 A 
ATOM     20  C   UNL     1       5.333  -3.583  -7.909  0.00  0.00    +0.060 A 
ATOM     21  C   UNL     1       4.686  -3.622  -6.690  0.00  0.00    +0.033 A 
ATOM     22 CL   UNL     1       6.840  -2.735  -8.063  0.00  0.00    -0.082 Cl
ATOM     23 CL   UNL     1       5.595  -4.155 -10.542  0.00  0.00    -0.082 Cl
ENDBRANCH  14  16
ENDBRANCH   3  11
BRANCH   8  24
ATOM     24  C   UNL     1       5.326  -1.990   1.859  0.00  0.00    +0.437 C 
ATOM     25  F   UNL     1       4.355  -2.367   2.794  0.00  0.00    -0.166 F 
ATOM     26  F   UNL     1       6.591  -2.361   2.325  0.00  0.00    -0.166 F 
ATOM     27  F   UNL     1       5.284  -0.604   1.677  0.00  0.00    -0.166 F 
ENDBRANCH   8  24
BRANCH   1  28
ATOM     28  C   UNL     1       3.389  -0.876   0.128  0.00  0.00    +0.176 C 
ATOM     29  O   UNL     1       3.874  -0.152  -0.715  0.00  0.00    -0.291 OA
BRANCH  28  33
ATOM     30  C   UNL     1       1.039   0.778   3.247  0.00  0.00    +0.000 A 
ATOM     31  C   UNL     1       1.592   1.608   2.288  0.00  0.00    +0.001 A 
ATOM     32  C   UNL     1       2.357   1.078   1.271  0.00  0.00    +0.011 A 
ATOM     33  C   UNL     1       2.574  -0.302   1.210  0.00  0.00    +0.018 A 
ATOM     34  C   UNL     1       2.013  -1.134   2.184  0.00  0.00    +0.011 A 
ATOM     35  C   UNL     1       1.249  -0.589   3.195  0.00  0.00    +0.001 A 
ENDBRANCH  28  33
ENDBRANCH   1  28
BRANCH   8  36
ATOM     36  O   UNL     1       5.187  -4.101   0.690  0.00  0.00    -0.364 OA
ATOM     37  H   UNL     1       6.066  -4.379   0.980  0.00  0.00    +0.212 HD
ENDBRANCH   8  36
TORSDOF 6
