REMARK  Name = ZINC43259277
REMARK  9 active torsions:
REMARK  status: ('A' for Active; 'I' for Inactive)
REMARK    1  A    between atoms: C_1  and  C_2
REMARK    2  A    between atoms: C_2  and  C_4
REMARK    3  A    between atoms: C_2  and  N_23
REMARK    4  A    between atoms: C_4  and  C_6
REMARK    5  A    between atoms: C_4  and  N_12
REMARK    6  A    between atoms: N_12  and  C_13
REMARK    7  A    between atoms: N_12  and  C_17
REMARK    8  A    between atoms: C_13  and  C_14
REMARK    9  A    between atoms: C_14  and  C_15
REMARK                            x       y       z     vdW  Elec       q    Type
REMARK                         _______ _______ _______ _____ _____    ______ ____
ROOT
ATOM      1  C   UNL     1       0.856  -0.322   1.291  0.00  0.00    +0.096 C 
ENDROOT
BRANCH   1   2
ATOM      2  C   UNL     1       1.165   0.995   0.627  0.00  0.00    +0.010 A 
ATOM      3  C   UNL     1       1.071   1.333  -0.682  0.00  0.00    +0.014 A 
ATOM      4  C   UNL     1       1.412   2.616  -1.069  0.00  0.00    +0.023 A 
ATOM      5  C   UNL     1       1.830   3.498  -0.127  0.00  0.00    +0.055 A 
ATOM      6  S   UNL     1       1.742   2.516   1.362  0.00  0.00    -0.085 S 
ATOM      7 BR   UNL     1       2.361   5.301  -0.335  0.00  0.00    -0.043 Br
ENDBRANCH   1   2
BRANCH   1   9
ATOM      8  C   UNL     1       1.747  -2.592   1.833  0.00  0.00    -0.012 C 
ATOM      9  C   UNL     1       2.055  -1.261   1.145  0.00  0.00    -0.053 C 
BRANCH   9  10
ATOM     10  N   UNL     1       2.321  -1.497  -0.281  0.00  0.00    +0.381 N 
ATOM     11  H   UNL     1       1.510  -1.917  -0.709  0.00  0.00    -0.090 HD
ATOM     12  H   UNL     1       2.524  -0.619  -0.735  0.00  0.00    -0.090 HD
ATOM     13  H   UNL     1       3.112  -2.116  -0.377  0.00  0.00    -0.090 HD
ENDBRANCH   9  10
ENDBRANCH   1   9
BRANCH   1  14
ATOM     14  N   UNL     1       0.581  -0.099   2.712  0.00  0.00    -0.323 N 
BRANCH  14  15
ATOM     15  C   UNL     1       1.586   0.388   3.551  0.00  0.00    +0.030 A 
ATOM     16  C   UNL     1       2.797   0.807   3.014  0.00  0.00    +0.023 A 
ATOM     17  C   UNL     1       3.789   1.289   3.846  0.00  0.00    +0.002 A 
ATOM     18  C   UNL     1       3.578   1.352   5.211  0.00  0.00    +0.000 A 
ATOM     19  C   UNL     1       2.374   0.935   5.748  0.00  0.00    +0.002 A 
ATOM     20  C   UNL     1       1.376   0.458   4.922  0.00  0.00    +0.023 A 
ENDBRANCH  14  15
BRANCH  14  21
ATOM     21  C   UNL     1      -0.750  -0.387   3.255  0.00  0.00    +0.120 C 
BRANCH  21  22
ATOM     22  C   UNL     1      -0.762  -1.794   3.856  0.00  0.00    +0.137 C 
BRANCH  22  23
ATOM     23  C   UNL     1      -2.094  -2.078   4.414  0.00  0.00    +0.064 C 
ATOM     24  N   UNL     1      -3.122  -2.297   4.845  0.00  0.00    -0.197 NA
ENDBRANCH  22  23
ENDBRANCH  21  22
ENDBRANCH  14  21
ENDBRANCH   1  14
TORSDOF 8
