REMARK  Name = ZINC39631902
REMARK  16 active torsions:
REMARK  status: ('A' for Active; 'I' for Inactive)
REMARK    1  A    between atoms: C_1  and  C_2
REMARK    2  A    between atoms: C_2  and  C_3
REMARK    3  A    between atoms: C_3  and  C_4
REMARK    4  A    between atoms: C_4  and  C_5
REMARK    5  A    between atoms: C_5  and  C_7
REMARK    6  A    between atoms: C_5  and  C_8
REMARK    7  A    between atoms: C_12  and  C_21
REMARK    8  A    between atoms: N_23  and  C_24
REMARK    9  A    between atoms: C_24  and  C_26
REMARK   10  A    between atoms: C_24  and  C_27
REMARK   11  A    between atoms: C_27  and  C_28
REMARK   12  A    between atoms: C_28  and  C_29
REMARK   13  A    between atoms: C_29  and  C_30
REMARK   14  A    between atoms: C_30  and  C_31
REMARK   15  A    between atoms: C_30  and  C_32
REMARK   16  A    between atoms: C_30  and  O_33
REMARK                            x       y       z     vdW  Elec       q    Type
REMARK                         _______ _______ _______ _____ _____    ______ ____
ROOT
ATOM      1  C   UNL     1       1.419  -4.167   2.497  0.00  0.00    +0.218 C 
ATOM      2  O   UNL     1       0.797  -4.790   1.663  0.00  0.00    -0.275 OA
ATOM      3  N   UNL     1       1.990  -4.813   3.533  0.00  0.00    -0.300 N 
ATOM      4  C   UNL     1       2.777  -4.229   4.645  0.00  0.00    +0.121 C 
ATOM      5  C   UNL     1       2.333  -5.022   5.896  0.00  0.00    +0.100 C 
ATOM      6  C   UNL     1       1.808  -6.359   5.347  0.00  0.00    -0.004 C 
ATOM      7  C   UNL     1       1.966  -6.267   3.822  0.00  0.00    +0.115 C 
ATOM      8  C   UNL     1       0.336  -6.537   5.708  0.00  0.00    -0.010 C 
ATOM      9  C   UNL     1      -0.148  -7.898   5.201  0.00  0.00    -0.082 C 
ATOM     10  N   UNL     1       0.658  -8.963   5.809  0.00  0.00    +0.379 N 
ATOM     11  C   UNL     1       2.057  -8.839   5.382  0.00  0.00    -0.082 C 
ATOM     12  C   UNL     1       2.634  -7.517   5.896  0.00  0.00    -0.010 C 
ATOM     13  H   UNL     1       0.607  -8.890   6.814  0.00  0.00    -0.086 HD
ATOM     14  H   UNL     1       0.298  -9.861   5.522  0.00  0.00    -0.086 HD
ENDROOT
BRANCH   5  15
ATOM     15  C   UNL     1       3.506  -5.253   6.814  0.00  0.00    +0.218 C 
ATOM     16  O   UNL     1       4.620  -5.383   6.353  0.00  0.00    -0.275 OA
ATOM     17  N   UNL     1       3.316  -5.315   8.146  0.00  0.00    -0.312 N 
ATOM     18  H   UNL     1       2.425  -5.211   8.515  0.00  0.00    +0.149 HD
BRANCH  17  19
ATOM     19  C   UNL     1       4.456  -5.540   9.039  0.00  0.00    +0.070 C 
ATOM     20  C   UNL     1       5.135  -4.204   9.345  0.00  0.00    +0.028 C 
BRANCH  19  21
ATOM     21  C   UNL     1       3.966  -6.174  10.342  0.00  0.00    +0.022 C 
BRANCH  21  22
ATOM     22  C   UNL     1       3.399  -7.565  10.051  0.00  0.00    +0.005 C 
BRANCH  22  23
ATOM     23  C   UNL     1       2.909  -8.198  11.355  0.00  0.00    +0.034 C 
BRANCH  23  24
ATOM     24  C   UNL     1       2.342  -9.589  11.064  0.00  0.00    +0.061 C 
ATOM     25  C   UNL     1       1.739 -10.172  12.344  0.00  0.00    +0.041 C 
ATOM     26  C   UNL     1       1.256  -9.483   9.991  0.00  0.00    +0.041 C 
BRANCH  24  27
ATOM     27  O   UNL     1       3.389 -10.443  10.599  0.00  0.00    -0.389 OA
ATOM     28  H   UNL     1       4.113 -10.556  11.230  0.00  0.00    +0.210 HD
ENDBRANCH  24  27
ENDBRANCH  23  24
ENDBRANCH  22  23
ENDBRANCH  21  22
ENDBRANCH  19  21
ENDBRANCH  17  19
ENDBRANCH   5  15
BRANCH   1  29
ATOM     29  C   UNL     1       1.555  -2.671   2.374  0.00  0.00    +0.072 C 
ATOM     30  C   UNL     1       3.036  -2.300   2.271  0.00  0.00    +0.017 C 
BRANCH  29  31
ATOM     31  C   UNL     1       0.821  -2.194   1.120  0.00  0.00    +0.012 C 
BRANCH  31  32
ATOM     32  C   UNL     1       0.853  -0.665   1.062  0.00  0.00    +0.000 C 
BRANCH  32  34
ATOM     33  C   UNL     1       0.150   1.341  -0.251  0.00  0.00    +0.004 C 
ATOM     34  C   UNL     1       0.119  -0.188  -0.193  0.00  0.00    -0.003 C 
ENDBRANCH  32  34
ENDBRANCH  31  32
ENDBRANCH  29  31
ENDBRANCH   1  29
TORSDOF 11
