REMARK  Name = ZINC03285052
REMARK  7 active torsions:
REMARK  status: ('A' for Active; 'I' for Inactive)
REMARK    1  A    between atoms: C_4  and  S_10
REMARK    2  A    between atoms: C_5  and  N_7
REMARK    3  A    between atoms: S_10  and  N_13
REMARK    4  A    between atoms: C_18  and  C_19
REMARK    5  A    between atoms: C_18  and  N_56
REMARK    6  A    between atoms: N_21  and  C_22
REMARK    7  A    between atoms: C_23  and  C_30
REMARK                            x       y       z     vdW  Elec       q    Type
REMARK                         _______ _______ _______ _____ _____    ______ ____
ROOT
ATOM      1  N   UNL     1      -2.662   1.171   1.462  0.00  0.00    -0.180 NA
ATOM      2  C   UNL     1      -3.221   0.933   2.802  0.00  0.00    +0.091 C 
ATOM      3  C   UNL     1      -2.115   1.190   3.838  0.00  0.00    -0.061 C 
ATOM      4  C   UNL     1      -0.913   2.641   2.312  0.00  0.00    -0.061 C 
ATOM      5  C   UNL     1      -1.964   2.442   1.215  0.00  0.00    +0.091 C 
ATOM      6  N   UNL     1      -1.579   2.552   3.630  0.00  0.00    +0.387 N 
ATOM      7  H   UNL     1      -2.355   3.223   3.656  0.00  0.00    -0.081 HD
ENDROOT
BRANCH   1   8
ATOM      8  S   UNL     1      -2.821   0.041   0.262  0.00  0.00    +0.063 S 
ATOM      9  O   UNL     1      -2.865   0.756  -0.965  0.00  0.00    -0.153 OA
ATOM     10  O   UNL     1      -3.858  -0.840   0.669  0.00  0.00    -0.153 OA
BRANCH   8  14
ATOM     11  C   UNL     1       0.995  -2.394   0.205  0.00  0.00    +0.002 A 
ATOM     12  C   UNL     1       0.733  -1.545   1.264  0.00  0.00    +0.002 A 
ATOM     13  C   UNL     1      -0.432  -0.801   1.281  0.00  0.00    +0.031 A 
ATOM     14  C   UNL     1      -1.335  -0.906   0.240  0.00  0.00    +0.136 A 
ATOM     15  C   UNL     1      -1.073  -1.755  -0.819  0.00  0.00    +0.152 A 
ATOM     16  C   UNL     1       0.089  -2.503  -0.834  0.00  0.00    +0.035 A 
BRANCH  15  17
ATOM     17  N   UNL     1      -2.040  -1.868  -1.934  0.00  0.00    +0.058 N 
ATOM     18  O   UNL     1      -1.757  -2.522  -2.922  0.00  0.00    -0.126 OA
ATOM     19  O   UNL     1      -3.121  -1.312  -1.861  0.00  0.00    -0.126 OA
ENDBRANCH  15  17
ENDBRANCH   8  14
ENDBRANCH   1   8
BRANCH   6  20
ATOM     20  C   UNL     1      -0.619   2.886   4.703  0.00  0.00    +0.019 C 
BRANCH  20  21
ATOM     21  C   UNL     1       0.507   1.886   4.737  0.00  0.00    +0.201 C 
ATOM     22  O   UNL     1       0.588   1.033   3.878  0.00  0.00    -0.278 OA
ATOM     23  N   UNL     1       1.426   1.939   5.722  0.00  0.00    -0.281 N 
ATOM     24  H   UNL     1       1.361   2.620   6.409  0.00  0.00    +0.155 HD
BRANCH  23  25
ATOM     25  C   UNL     1       2.462   1.018   5.754  0.00  0.00    +0.084 A 
ATOM     26  C   UNL     1       3.494   0.915   6.671  0.00  0.00    +0.068 A 
ATOM     27  C   UNL     1       4.467  -0.159   6.478  0.00  0.00    -0.023 A 
ATOM     28  C   UNL     1       4.252  -0.938   5.403  0.00  0.00    -0.004 A 
ATOM     29  S   UNL     1       2.786  -0.276   4.651  0.00  0.00    -0.077 S 
ATOM     30  C   UNL     1       5.294  -2.016   5.270  0.00  0.00    +0.043 C 
ATOM     31  C   UNL     1       5.964  -2.083   6.660  0.00  0.00    +0.010 C 
ATOM     32  C   UNL     1       5.724  -0.657   7.194  0.00  0.00    +0.037 C 
BRANCH  26  33
ATOM     33  C   UNL     1       3.604   1.847   7.798  0.00  0.00    +0.244 C 
ATOM     34  O   UNL     1       3.061   1.590   8.856  0.00  0.00    -0.270 OA
ATOM     35  N   UNL     1       4.307   2.989   7.662  0.00  0.00    -0.325 N 
ATOM     36  H   UNL     1       4.740   3.194   6.818  0.00  0.00    +0.145 HD
ATOM     37  H   UNL     1       4.380   3.606   8.407  0.00  0.00    +0.145 HD
ENDBRANCH  26  33
ENDBRANCH  23  25
ENDBRANCH  20  21
ENDBRANCH   6  20
TORSDOF 7
