REMARK  Name = ZINC56510017
REMARK  10 active torsions:
REMARK  status: ('A' for Active; 'I' for Inactive)
REMARK    1  A    between atoms: C_1  and  C_2
REMARK    2  A    between atoms: C_2  and  N_3
REMARK    3  A    between atoms: N_3  and  C_4
REMARK    4  A    between atoms: N_3  and  C_9
REMARK    5  A    between atoms: C_4  and  C_5
REMARK    6  A    between atoms: N_7  and  C_8
REMARK    7  A    between atoms: C_9  and  C_10
REMARK    8  A    between atoms: N_12  and  C_13
REMARK    9  A    between atoms: C_13  and  C_15
REMARK   10  A    between atoms: C_13  and  C_16
REMARK                            x       y       z     vdW  Elec       q    Type
REMARK                         _______ _______ _______ _____ _____    ______ ____
ROOT
ATOM      1  C   UNL     1      -0.675  -2.756  -1.281  0.00  0.00    +0.197 C 
ATOM      2  O   UNL     1      -1.629  -2.009  -1.233  0.00  0.00    -0.278 OA
ATOM      3  N   UNL     1      -0.866  -4.088  -1.352  0.00  0.00    -0.310 N 
ATOM      4  H   UNL     1      -0.103  -4.686  -1.391  0.00  0.00    +0.149 HD
ENDROOT
BRANCH   3   5
ATOM      5  C   UNL     1      -2.225  -4.634  -1.370  0.00  0.00    +0.100 C 
ATOM      6  C   UNL     1      -2.733  -4.785   0.065  0.00  0.00    +0.033 C 
BRANCH   5   7
ATOM      7  C   UNL     1      -2.217  -5.981  -2.045  0.00  0.00    -0.027 A 
ATOM      8  C   UNL     1      -1.184  -6.868  -1.804  0.00  0.00    +0.006 A 
ATOM      9  C   UNL     1      -1.176  -8.104  -2.422  0.00  0.00    +0.015 A 
ATOM     10  C   UNL     1      -2.202  -8.454  -3.282  0.00  0.00    +0.018 A 
ATOM     11  C   UNL     1      -3.235  -7.566  -3.523  0.00  0.00    +0.015 A 
ATOM     12  C   UNL     1      -3.245  -6.332  -2.900  0.00  0.00    +0.006 A 
ATOM     13 BR   UNL     1      -2.192 -10.145  -4.129  0.00  0.00    -0.050 Br
ENDBRANCH   5   7
ENDBRANCH   3   5
BRANCH   1  14
ATOM     14  C   UNL     1       0.724  -2.195  -1.263  0.00  0.00    +0.019 C 
BRANCH  14  15
ATOM     15  N   UNL     1       0.662  -0.729  -1.183  0.00  0.00    +0.391 N 
ATOM     16  H   UNL     1       0.096  -0.374  -1.939  0.00  0.00    -0.080 HD
BRANCH  15  18
ATOM     17  C   UNL     1      -0.124   1.184   0.128  0.00  0.00    -0.017 C 
ATOM     18  C   UNL     1       0.068  -0.334   0.101  0.00  0.00    -0.081 C 
ENDBRANCH  15  18
BRANCH  15  19
ATOM     19  C   UNL     1       2.019  -0.176  -1.285  0.00  0.00    +0.019 C 
BRANCH  19  20
ATOM     20  C   UNL     1       2.565  -0.436  -2.666  0.00  0.00    +0.196 C 
ATOM     21  O   UNL     1       1.851  -0.919  -3.518  0.00  0.00    -0.278 OA
ATOM     22  N   UNL     1       3.846  -0.130  -2.952  0.00  0.00    -0.320 N 
ATOM     23  C   UNL     1       4.376  -0.383  -4.294  0.00  0.00    +0.128 C 
ATOM     24  H   UNL     1       4.417   0.256  -2.270  0.00  0.00    +0.148 HD
ENDBRANCH  19  20
ENDBRANCH  15  19
ENDBRANCH  14  15
ENDBRANCH   1  14
TORSDOF 7
