REMARK  Name = ZINC09540073
REMARK  11 active torsions:
REMARK  status: ('A' for Active; 'I' for Inactive)
REMARK    1  A    between atoms: C_1  and  C_2
REMARK    2  A    between atoms: C_5  and  N_9
REMARK    3  A    between atoms: C_6  and  C_8
REMARK    4  A    between atoms: N_9  and  S_10
REMARK    5  A    between atoms: S_10  and  C_13
REMARK    6  A    between atoms: C_16  and  C_33
REMARK    7  A    between atoms: C_17  and  N_19
REMARK    8  A    between atoms: C_20  and  C_22
REMARK    9  A    between atoms: C_22  and  S_23
REMARK   10  A    between atoms: S_23  and  C_24
REMARK   11  A    between atoms: C_27  and  N_30
REMARK                            x       y       z     vdW  Elec       q    Type
REMARK                         _______ _______ _______ _____ _____    ______ ____
ROOT
ATOM      1  C   UNL     1       1.519   2.876   1.265  0.00  0.00    +0.110 A 
ATOM      2  C   UNL     1       1.000   4.155   1.176  0.00  0.00    +0.029 A 
ATOM      3  C   UNL     1       1.054   5.004   2.267  0.00  0.00    +0.007 A 
ATOM      4  C   UNL     1       1.637   4.580   3.445  0.00  0.00    -0.029 A 
ATOM      5  C   UNL     1       2.163   3.298   3.536  0.00  0.00    +0.038 A 
ATOM      6  C   UNL     1       2.103   2.446   2.440  0.00  0.00    +0.052 A 
ATOM      7  C   UNL     1       1.700   5.507   4.631  0.00  0.00    +0.045 C 
ENDROOT
BRANCH   5   8
ATOM      8  N   UNL     1       2.754   2.866   4.728  0.00  0.00    -0.285 N 
ATOM      9  C   UNL     1       2.812   1.550   5.013  0.00  0.00    +0.227 C 
ATOM     10  O   UNL     1       2.264   0.748   4.287  0.00  0.00    -0.275 OA
ATOM     11  H   UNL     1       3.123   3.514   5.350  0.00  0.00    +0.155 HD
BRANCH   9  12
ATOM     12  C   UNL     1       3.558   1.075   6.234  0.00  0.00    +0.170 C 
BRANCH  12  13
ATOM     13  S   UNL     1       3.453  -0.732   6.342  0.00  0.00    -0.116 S 
BRANCH  13  14
ATOM     14  C   UNL     1       4.360  -1.126   7.800  0.00  0.00    +0.008 A 
ATOM     15  C   UNL     1       4.950  -0.114   8.548  0.00  0.00    +0.017 A 
ATOM     16  C   UNL     1       5.655  -0.425   9.693  0.00  0.00    +0.034 A 
ATOM     17  C   UNL     1       5.786  -1.744  10.090  0.00  0.00    +0.126 A 
ATOM     18  C   UNL     1       5.205  -2.754   9.345  0.00  0.00    +0.034 A 
ATOM     19  C   UNL     1       4.493  -2.449   8.202  0.00  0.00    +0.017 A 
BRANCH  17  20
ATOM     20  N   UNL     1       6.548  -2.074  11.315  0.00  0.00    +0.056 N 
ATOM     21  O   UNL     1       6.664  -3.235  11.665  0.00  0.00    -0.126 OA
ATOM     22  O   UNL     1       7.061  -1.185  11.972  0.00  0.00    -0.126 OA
ENDBRANCH  17  20
ENDBRANCH  13  14
ENDBRANCH  12  13
ENDBRANCH   9  12
ENDBRANCH   5   8
BRANCH   1  23
ATOM     23  S   UNL     1       1.442   1.797  -0.126  0.00  0.00    +0.072 S 
ATOM     24  O   UNL     1       2.489   0.849   0.038  0.00  0.00    -0.150 OA
ATOM     25  O   UNL     1       1.336   2.624  -1.276  0.00  0.00    -0.150 OA
BRANCH  23  26
ATOM     26  N   UNL     1       0.020   0.956  -0.014  0.00  0.00    -0.216 N 
ATOM     27  H   UNL     1       0.033  -0.012   0.048  0.00  0.00    +0.174 HD
BRANCH  26  32
ATOM     28  C   UNL     1      -4.925   3.730  -0.025  0.00  0.00    +0.044 C 
ATOM     29  C   UNL     1      -3.611   2.993  -0.022  0.00  0.00    -0.050 A 
ATOM     30  C   UNL     1      -2.559   3.455  -0.791  0.00  0.00    +0.005 A 
ATOM     31  C   UNL     1      -1.353   2.782  -0.791  0.00  0.00    +0.025 A 
ATOM     32  C   UNL     1      -1.198   1.639  -0.017  0.00  0.00    +0.051 A 
ATOM     33  C   UNL     1      -2.258   1.175   0.751  0.00  0.00    -0.028 A 
ATOM     34  C   UNL     1      -3.459   1.857   0.750  0.00  0.00    +0.008 A 
ATOM     35  C   UNL     1      -2.096  -0.067   1.589  0.00  0.00    +0.046 C 
ENDBRANCH  26  32
ENDBRANCH  23  26
ENDBRANCH   1  23
TORSDOF 8
