REMARK  Name = ZINC19563057
REMARK  7 active torsions:
REMARK  status: ('A' for Active; 'I' for Inactive)
REMARK    1  A    between atoms: C_1  and  O_2
REMARK    2  A    between atoms: O_2  and  C_3
REMARK    3  A    between atoms: N_13  and  C_16
REMARK    4  A    between atoms: C_16  and  C_17
REMARK    5  A    between atoms: C_17  and  C_19
REMARK    6  A    between atoms: C_17  and  O_30
REMARK    7  A    between atoms: C_32  and  O_34
REMARK                            x       y       z     vdW  Elec       q    Type
REMARK                         _______ _______ _______ _____ _____    ______ ____
ROOT
ATOM      1  C   UNL     1      -7.066   3.894   0.012  0.00  0.00    +0.124 A 
ATOM      2  C   UNL     1      -7.798   3.495   1.121  0.00  0.00    +0.046 A 
ATOM      3  C   UNL     1      -7.156   3.241   2.316  0.00  0.00    +0.013 A 
ATOM      4  C   UNL     1      -5.781   3.383   2.416  0.00  0.00    +0.023 A 
ATOM      5  C   UNL     1      -5.046   3.784   1.314  0.00  0.00    +0.130 A 
ATOM      6  C   UNL     1      -5.692   4.038   0.109  0.00  0.00    +0.091 A 
ATOM      7  O   UNL     1      -3.698   3.945   1.372  0.00  0.00    -0.485 OA
ATOM      8  C   UNL     1      -3.002   3.353   2.467  0.00  0.00    +0.110 C 
ATOM      9  C   UNL     1      -1.565   3.876   2.513  0.00  0.00    +0.029 C 
ATOM     10  C   UNL     1      -0.830   3.446   1.241  0.00  0.00    -0.075 C 
ATOM     11  N   UNL     1      -0.836   1.981   1.143  0.00  0.00    +0.382 N 
ATOM     12  C   UNL     1      -2.206   1.461   1.046  0.00  0.00    -0.075 C 
ATOM     13  C   UNL     1      -2.985   1.831   2.310  0.00  0.00    +0.029 C 
ATOM     14  C   UNL     1      -3.724   3.725   3.767  0.00  0.00    +0.084 C 
ATOM     15  C   UNL     1      -5.119   3.093   3.740  0.00  0.00    +0.152 C 
ATOM     16  H   UNL     1      -0.391   1.581   2.066  0.00  0.00    -0.082 HD
ENDROOT
BRANCH   1  18
ATOM     17  C   UNL     1      -9.114   3.975  -1.193  0.00  0.00    +0.277 C 
ATOM     18  O   UNL     1      -7.695   4.144  -1.167  0.00  0.00    -0.495 OA
ENDBRANCH   1  18
BRANCH  15  19
ATOM     19  O   UNL     1      -5.909   3.640   4.797  0.00  0.00    -0.387 OA
ATOM     20  H   UNL     1      -5.583   3.527   5.842  0.00  0.00    +0.210 HD
ENDBRANCH  15  19
BRANCH  11  21
ATOM     21  C   UNL     1      -0.019   1.526   0.010  0.00  0.00    -0.042 C 
BRANCH  21  22
ATOM     22  C   UNL     1       1.463   1.642   0.372  0.00  0.00    +0.128 C 
BRANCH  22  23
ATOM     23  C   UNL     1       2.302   1.187  -0.794  0.00  0.00    -0.017 A 
ATOM     24  C   UNL     1       2.497  -0.164  -1.017  0.00  0.00    +0.010 A 
ATOM     25  C   UNL     1       3.265  -0.589  -2.086  0.00  0.00    +0.050 A 
ATOM     26  C   UNL     1       3.839   0.344  -2.933  0.00  0.00    +0.162 A 
ATOM     27  C   UNL     1       3.644   1.699  -2.709  0.00  0.00    +0.162 A 
ATOM     28  C   UNL     1       2.870   2.121  -1.641  0.00  0.00    +0.055 A 
ATOM     29  O   UNL     1       4.214   2.610  -3.550  0.00  0.00    -0.488 OA
ATOM     30  C   UNL     1       5.639   2.699  -3.500  0.00  0.00    +0.232 C 
ATOM     31  C   UNL     1       6.277   1.645  -4.391  0.00  0.00    +0.082 C 
ATOM     32  C   UNL     1       5.994   0.231  -3.909  0.00  0.00    +0.232 C 
ATOM     33  O   UNL     1       4.598  -0.063  -3.992  0.00  0.00    -0.488 OA
ENDBRANCH  22  23
BRANCH  22  34
ATOM     34  O   UNL     1       1.742   0.821   1.508  0.00  0.00    -0.389 OA
ATOM     35  H   UNL     1       2.762   0.775   1.917  0.00  0.00    +0.210 HD
ENDBRANCH  22  34
ENDBRANCH  21  22
ENDBRANCH  11  21
TORSDOF 6
