REMARK  Name = ZINC34749063
REMARK  10 active torsions:
REMARK  status: ('A' for Active; 'I' for Inactive)
REMARK    1  A    between atoms: C_1  and  C_2
REMARK    2  A    between atoms: C_2  and  C_3
REMARK    3  A    between atoms: C_3  and  C_4
REMARK    4  A    between atoms: C_4  and  N_5
REMARK    5  A    between atoms: C_15  and  C_19
REMARK    6  A    between atoms: C_16  and  C_18
REMARK    7  A    between atoms: C_19  and  C_20
REMARK    8  A    between atoms: N_23  and  C_24
REMARK    9  A    between atoms: C_24  and  C_25
REMARK   10  A    between atoms: N_27  and  C_28
REMARK                            x       y       z     vdW  Elec       q    Type
REMARK                         _______ _______ _______ _____ _____    ______ ____
ROOT
ATOM      1  N   UNL     1       1.903  -1.615  -3.318  0.00  0.00    +0.382 N 
ATOM      2  C   UNL     1       2.478  -1.768  -4.660  0.00  0.00    -0.060 C 
ATOM      3  C   UNL     1       2.578  -3.257  -5.006  0.00  0.00    +0.089 C 
ATOM      4  N   UNL     1       3.334  -3.934  -3.940  0.00  0.00    -0.304 N 
ATOM      5  C   UNL     1       2.924  -3.704  -2.546  0.00  0.00    +0.089 C 
ATOM      6  C   UNL     1       2.808  -2.193  -2.317  0.00  0.00    -0.060 C 
ATOM      7  C   UNL     1       4.391  -4.756  -4.238  0.00  0.00    +0.202 A 
ATOM      8  N   UNL     1       5.589  -4.237  -4.414  0.00  0.00    -0.208 NA
ATOM      9  C   UNL     1       6.630  -5.008  -4.703  0.00  0.00    +0.117 A 
ATOM     10  C   UNL     1       6.512  -6.404  -4.835  0.00  0.00    +0.076 A 
ATOM     11  C   UNL     1       7.749  -7.097  -5.152  0.00  0.00    -0.023 A 
ATOM     12  C   UNL     1       8.879  -6.388  -5.293  0.00  0.00    -0.007 A 
ATOM     13  S   UNL     1       8.353  -4.709  -5.005  0.00  0.00    -0.073 S 
ATOM     14  C   UNL     1      10.262  -6.891  -5.618  0.00  0.00    +0.052 C 
ATOM     15  C   UNL     1       5.199  -6.939  -4.639  0.00  0.00    +0.264 A 
ATOM     16  O   UNL     1       5.000  -8.138  -4.733  0.00  0.00    -0.267 OA
ATOM     17  N   UNL     1       4.189  -6.101  -4.343  0.00  0.00    -0.271 N 
ATOM     18  H   UNL     1       1.014  -2.090  -3.280  0.00  0.00    -0.082 HD
ENDROOT
BRANCH  11  19
ATOM     19  C   UNL     1       7.763  -8.594  -5.321  0.00  0.00    +0.033 C 
ATOM     20  C   UNL     1       7.493  -8.945  -6.785  0.00  0.00    +0.009 C 
ENDBRANCH  11  19
BRANCH   1  21
ATOM     21  C   UNL     1       1.706  -0.188  -3.032  0.00  0.00    -0.079 C 
BRANCH  21  22
ATOM     22  C   UNL     1       0.668   0.388  -3.997  0.00  0.00    -0.019 C 
BRANCH  22  24
ATOM     23  C   UNL     1      -0.576   2.450  -4.663  0.00  0.00    +0.004 C 
ATOM     24  C   UNL     1       0.462   1.874  -3.698  0.00  0.00    -0.005 C 
ENDBRANCH  22  24
ENDBRANCH  21  22
ENDBRANCH   1  21
BRANCH  17  25
ATOM     25  C   UNL     1       2.844  -6.643  -4.134  0.00  0.00    +0.224 C 
BRANCH  25  26
ATOM     26  C   UNL     1       2.152  -6.795  -5.464  0.00  0.00    +0.237 C 
ATOM     27  O   UNL     1       2.726  -6.480  -6.486  0.00  0.00    -0.274 OA
ATOM     28  N   UNL     1       0.895  -7.279  -5.519  0.00  0.00    -0.283 N 
ATOM     29  H   UNL     1       0.407  -7.455  -4.699  0.00  0.00    +0.155 HD
BRANCH  28  30
ATOM     30  C   UNL     1       0.296  -7.528  -6.755  0.00  0.00    +0.041 A 
ATOM     31  C   UNL     1       1.072  -7.782  -7.865  0.00  0.00    +0.024 A 
ATOM     32  C   UNL     1       0.485  -8.031  -9.102  0.00  0.00    +0.002 A 
ATOM     33  C   UNL     1      -0.868  -8.031  -9.251  0.00  0.00    +0.008 A 
ATOM     34  C   UNL     1      -1.695  -7.777  -8.143  0.00  0.00    -0.016 A 
ATOM     35  C   UNL     1      -1.109  -7.527  -6.878  0.00  0.00    +0.003 A 
ATOM     36  C   UNL     1      -1.937  -7.278  -5.772  0.00  0.00    +0.010 A 
ATOM     37  C   UNL     1      -3.290  -7.285  -5.928  0.00  0.00    +0.001 A 
ATOM     38  C   UNL     1      -3.867  -7.536  -7.171  0.00  0.00    +0.001 A 
ATOM     39  C   UNL     1      -3.096  -7.771  -8.267  0.00  0.00    +0.008 A 
ENDBRANCH  28  30
ENDBRANCH  25  26
ENDBRANCH  17  25
TORSDOF 7
