REMARK  Name = ZINC49506497
REMARK  7 active torsions:
REMARK  status: ('A' for Active; 'I' for Inactive)
REMARK    1  A    between atoms: C_1  and  O_2
REMARK    2  A    between atoms: O_2  and  C_3
REMARK    3  A    between atoms: C_6  and  S_9
REMARK    4  A    between atoms: S_9  and  N_12
REMARK    5  A    between atoms: C_20  and  N_22
REMARK    6  A    between atoms: C_23  and  C_25
REMARK    7  A    between atoms: C_25  and  C_31
REMARK                            x       y       z     vdW  Elec       q    Type
REMARK                         _______ _______ _______ _____ _____    ______ ____
ROOT
ATOM      1  N   UNL     1       1.579  -2.928   5.706  0.00  0.00    -0.203 N 
ATOM      2  C   UNL     1       1.407  -1.964   6.801  0.00  0.00    +0.132 C 
ATOM      3  C   UNL     1       1.278  -2.758   8.108  0.00  0.00    +0.025 C 
ATOM      4  C   UNL     1       0.017  -3.618   8.040  0.00  0.00    +0.039 C 
ATOM      5  C   UNL     1      -0.002  -4.426   6.769  0.00  0.00    -0.023 A 
ATOM      6  C   UNL     1       0.754  -4.060   5.665  0.00  0.00    +0.055 A 
ATOM      7  C   UNL     1       0.708  -4.820   4.502  0.00  0.00    +0.027 A 
ATOM      8  C   UNL     1      -0.094  -5.942   4.439  0.00  0.00    +0.025 A 
ATOM      9  C   UNL     1      -0.855  -6.310   5.540  0.00  0.00    +0.034 A 
ATOM     10  C   UNL     1      -0.801  -5.555   6.707  0.00  0.00    +0.028 A 
ENDROOT
BRANCH   9  11
ATOM     11  N   UNL     1      -1.669  -7.449   5.480  0.00  0.00    -0.285 N 
ATOM     12  C   UNL     1      -2.850  -7.468   6.129  0.00  0.00    +0.228 C 
ATOM     13  O   UNL     1      -3.254  -6.467   6.684  0.00  0.00    -0.274 OA
ATOM     14  H   UNL     1      -1.383  -8.224   4.971  0.00  0.00    +0.155 HD
BRANCH  12  15
ATOM     15  C   UNL     1      -3.670  -8.732   6.166  0.00  0.00    +0.078 C 
ATOM     16  C   UNL     1      -4.027  -9.150   4.738  0.00  0.00    +0.021 C 
ATOM     17  C   UNL     1      -4.835  -8.037   4.067  0.00  0.00    +0.001 C 
ATOM     18  C   UNL     1      -6.119  -7.790   4.862  0.00  0.00    +0.000 C 
ATOM     19  C   UNL     1      -5.762  -7.372   6.290  0.00  0.00    +0.001 C 
ATOM     20  C   UNL     1      -4.954  -8.484   6.960  0.00  0.00    +0.021 C 
BRANCH  15  21
ATOM     21  C   UNL     1      -2.874  -9.828   6.826  0.00  0.00    +0.005 A 
ATOM     22  C   UNL     1      -1.680 -10.355   6.461  0.00  0.00    +0.012 A 
ATOM     23  C   UNL     1      -1.131 -11.366   7.227  0.00  0.00    +0.008 A 
ATOM     24  C   UNL     1      -1.802 -11.800   8.321  0.00  0.00    +0.045 A 
ATOM     25  S   UNL     1      -3.255 -10.764   8.298  0.00  0.00    -0.101 S 
ENDBRANCH  15  21
ENDBRANCH  12  15
ENDBRANCH   9  11
BRANCH   1  26
ATOM     26  S   UNL     1       2.722  -2.676   4.535  0.00  0.00    +0.075 S 
ATOM     27  O   UNL     1       3.114  -3.960   4.067  0.00  0.00    -0.150 OA
ATOM     28  O   UNL     1       3.651  -1.743   5.068  0.00  0.00    -0.150 OA
BRANCH  26  32
ATOM     29  C   UNL     1       0.660  -0.612   1.071  0.00  0.00    +0.120 A 
ATOM     30  C   UNL     1       1.236   0.140   2.085  0.00  0.00    +0.047 A 
ATOM     31  C   UNL     1       1.864  -0.492   3.140  0.00  0.00    +0.032 A 
ATOM     32  C   UNL     1       1.920  -1.873   3.187  0.00  0.00    +0.109 A 
ATOM     33  C   UNL     1       1.347  -2.625   2.178  0.00  0.00    +0.032 A 
ATOM     34  C   UNL     1       0.713  -1.998   1.123  0.00  0.00    +0.047 A 
BRANCH  29  36
ATOM     35  C   UNL     1       0.026   1.436   0.044  0.00  0.00    +0.277 C 
ATOM     36  O   UNL     1       0.042   0.007   0.032  0.00  0.00    -0.495 OA
ENDBRANCH  29  36
ENDBRANCH  26  32
ENDBRANCH   1  26
TORSDOF 6
