REMARK  Name = ZINC23253879
REMARK  7 active torsions:
REMARK  status: ('A' for Active; 'I' for Inactive)
REMARK    1  A    between atoms: C_4  and  C_7
REMARK    2  A    between atoms: C_7  and  C_8
REMARK    3  A    between atoms: C_7  and  N_14
REMARK    4  A    between atoms: N_17  and  C_20
REMARK    5  A    between atoms: C_20  and  C_21
REMARK    6  A    between atoms: N_23  and  C_24
REMARK    7  A    between atoms: C_29  and  C_30
REMARK                            x       y       z     vdW  Elec       q    Type
REMARK                         _______ _______ _______ _____ _____    ______ ____
ROOT
ATOM      1  N   UNL     1      -0.971   1.616  -0.707  0.00  0.00    -0.295 NA
ATOM      2  C   UNL     1      -0.068   1.085   0.324  0.00  0.00    +0.067 C 
ATOM      3  C   UNL     1      -0.599   1.464   1.708  0.00  0.00    -0.063 C 
ATOM      4  N   UNL     1      -0.704   2.926   1.806  0.00  0.00    +0.387 N 
ATOM      5  C   UNL     1      -1.606   3.458   0.775  0.00  0.00    -0.063 C 
ATOM      6  C   UNL     1      -1.074   3.079  -0.609  0.00  0.00    +0.067 C 
ATOM      7  H   UNL     1       0.296   3.351   1.634  0.00  0.00    -0.081 HD
ENDROOT
BRANCH   1   8
ATOM      8  C   UNL     1      -0.535   1.208  -2.049  0.00  0.00    +0.117 C 
BRANCH   8  12
ATOM      9  C   UNL     1      -0.190  -3.047  -2.202  0.00  0.00    +0.000 A 
ATOM     10  C   UNL     1       0.807  -2.253  -2.739  0.00  0.00    +0.000 A 
ATOM     11  C   UNL     1       0.695  -0.876  -2.689  0.00  0.00    +0.005 A 
ATOM     12  C   UNL     1      -0.413  -0.293  -2.103  0.00  0.00    -0.026 A 
ATOM     13  C   UNL     1      -1.407  -1.087  -1.562  0.00  0.00    +0.005 A 
ATOM     14  C   UNL     1      -1.297  -2.464  -1.616  0.00  0.00    +0.000 A 
ENDBRANCH   8  12
BRANCH   8  15
ATOM     15  C   UNL     1      -1.547   1.667  -3.067  0.00  0.00    -0.026 A 
ATOM     16  C   UNL     1      -2.893   1.665  -2.753  0.00  0.00    +0.005 A 
ATOM     17  C   UNL     1      -3.821   2.090  -3.685  0.00  0.00    +0.000 A 
ATOM     18  C   UNL     1      -3.403   2.509  -4.935  0.00  0.00    +0.000 A 
ATOM     19  C   UNL     1      -2.058   2.506  -5.251  0.00  0.00    +0.000 A 
ATOM     20  C   UNL     1      -1.129   2.085  -4.317  0.00  0.00    +0.005 A 
ENDBRANCH   8  15
ENDBRANCH   1   8
BRANCH   4  21
ATOM     21  C   UNL     1      -1.139   3.334   3.149  0.00  0.00    +0.019 C 
BRANCH  21  22
ATOM     22  C   UNL     1      -0.070   2.986   4.152  0.00  0.00    +0.201 C 
ATOM     23  O   UNL     1       0.955   2.451   3.784  0.00  0.00    -0.278 OA
ATOM     24  N   UNL     1      -0.252   3.269   5.457  0.00  0.00    -0.286 N 
ATOM     25  H   UNL     1      -1.215   3.672   5.803  0.00  0.00    +0.155 HD
BRANCH  24  26
ATOM     26  C   UNL     1       0.780   3.053   6.367  0.00  0.00    +0.045 A 
ATOM     27  C   UNL     1       2.100   3.255   5.986  0.00  0.00    +0.024 A 
ATOM     28  C   UNL     1       3.120   3.044   6.891  0.00  0.00    +0.002 A 
ATOM     29  C   UNL     1       2.838   2.620   8.180  0.00  0.00    +0.001 A 
ATOM     30  C   UNL     1       1.535   2.409   8.573  0.00  0.00    +0.015 A 
ATOM     31  C   UNL     1       0.491   2.623   7.670  0.00  0.00    +0.058 A 
BRANCH  31  32
ATOM     32  C   UNL     1      -0.907   2.398   8.085  0.00  0.00    +0.243 C 
ATOM     33  O   UNL     1      -1.817   2.671   7.327  0.00  0.00    -0.270 OA
ATOM     34  N   UNL     1      -1.175   1.891   9.304  0.00  0.00    -0.325 N 
ATOM     35  H   UNL     1      -2.217   1.723   9.614  0.00  0.00    +0.145 HD
ATOM     36  H   UNL     1      -0.351   1.643   9.990  0.00  0.00    +0.145 HD
ENDBRANCH  31  32
ENDBRANCH  24  26
ENDBRANCH  21  22
ENDBRANCH   4  21
TORSDOF 7
