REMARK  Name = ZINC09219035
REMARK  5 active torsions:
REMARK  status: ('A' for Active; 'I' for Inactive)
REMARK    1  A    between atoms: C_8  and  C_25
REMARK    2  A    between atoms: C_11  and  C_12
REMARK    3  A    between atoms: C_11  and  N_47
REMARK    4  A    between atoms: N_14  and  C_15
REMARK    5  A    between atoms: C_16  and  C_23
REMARK                            x       y       z     vdW  Elec       q    Type
REMARK                         _______ _______ _______ _____ _____    ______ ____
ROOT
ATOM      1  C   UNL     1       6.933   7.362  -1.300  0.00  0.00    +0.000 A 
ATOM      2  C   UNL     1       6.525   6.877  -2.529  0.00  0.00    +0.000 A 
ATOM      3  C   UNL     1       6.301   5.525  -2.693  0.00  0.00    +0.002 A 
ATOM      4  C   UNL     1       6.482   4.649  -1.633  0.00  0.00    -0.061 A 
ATOM      5  C   UNL     1       6.885   5.134  -0.407  0.00  0.00    -0.047 A 
ATOM      6  C   UNL     1       7.112   6.493  -0.243  0.00  0.00    +0.004 A 
ATOM      7  C   UNL     1       7.089   4.223   0.776  0.00  0.00    +0.029 C 
ATOM      8  C   UNL     1       7.202   2.773   0.305  0.00  0.00    +0.024 C 
ATOM      9  C   UNL     1       6.234   3.182  -1.864  0.00  0.00    -0.041 C 
ATOM     10  N   UNL     1       6.050   2.494  -0.575  0.00  0.00    +0.396 N 
ATOM     11  H   UNL     1       5.194   2.842  -0.128  0.00  0.00    -0.080 HD
ENDROOT
BRANCH   8  12
ATOM     12  C   UNL     1       7.160   1.850   1.495  0.00  0.00    +0.197 C 
ATOM     13  O   UNL     1       6.093   1.501   1.956  0.00  0.00    -0.278 OA
ATOM     14  N   UNL     1       8.308   1.411   2.048  0.00  0.00    -0.331 N 
ATOM     15  H   UNL     1       9.161   1.689   1.680  0.00  0.00    +0.145 HD
ATOM     16  H   UNL     1       8.281   0.816   2.814  0.00  0.00    +0.145 HD
ENDBRANCH   8  12
BRANCH  10  17
ATOM     17  C   UNL     1       5.919   1.035  -0.794  0.00  0.00    +0.020 C 
BRANCH  17  18
ATOM     18  C   UNL     1       4.554   0.747  -1.364  0.00  0.00    +0.201 C 
ATOM     19  O   UNL     1       3.781   1.657  -1.576  0.00  0.00    -0.278 OA
ATOM     20  N   UNL     1       4.192  -0.522  -1.637  0.00  0.00    -0.281 N 
ATOM     21  H   UNL     1       4.810  -1.250  -1.468  0.00  0.00    +0.155 HD
BRANCH  20  22
ATOM     22  C   UNL     1       2.935  -0.787  -2.162  0.00  0.00    +0.090 A 
ATOM     23  C   UNL     1       2.387  -2.011  -2.504  0.00  0.00    +0.084 A 
ATOM     24  C   UNL     1       1.030  -2.017  -3.048  0.00  0.00    -0.018 A 
ATOM     25  C   UNL     1       0.449  -0.807  -3.148  0.00  0.00    -0.004 A 
ATOM     26  S   UNL     1       1.672   0.332  -2.546  0.00  0.00    -0.077 S 
ATOM     27  C   UNL     1      -0.944  -0.895  -3.712  0.00  0.00    +0.043 C 
ATOM     28  C   UNL     1      -1.008  -2.295  -4.369  0.00  0.00    +0.010 C 
ATOM     29  C   UNL     1       0.042  -3.071  -3.549  0.00  0.00    +0.037 C 
BRANCH  23  30
ATOM     30  C   UNL     1       3.125  -3.227  -2.338  0.00  0.00    +0.102 C 
ATOM     31  N   UNL     1       3.710  -4.191  -2.206  0.00  0.00    -0.191 NA
ENDBRANCH  23  30
ENDBRANCH  20  22
ENDBRANCH  17  18
ENDBRANCH  10  17
TORSDOF 5
