REMARK  Name = ZINC37261791
REMARK  10 active torsions:
REMARK  status: ('A' for Active; 'I' for Inactive)
REMARK    1  A    between atoms: C_1  and  O_2
REMARK    2  A    between atoms: O_2  and  C_3
REMARK    3  A    between atoms: C_5  and  C_12
REMARK    4  A    between atoms: C_8  and  O_9
REMARK    5  A    between atoms: O_9  and  C_10
REMARK    6  A    between atoms: C_12  and  N_13
REMARK    7  A    between atoms: N_13  and  C_14
REMARK    8  A    between atoms: C_14  and  C_15
REMARK    9  A    between atoms: C_15  and  S_16
REMARK   10  A    between atoms: S_16  and  N_19
REMARK                            x       y       z     vdW  Elec       q    Type
REMARK                         _______ _______ _______ _____ _____    ______ ____
ROOT
ATOM      1  C   UNL     1       2.402   0.380  -4.231  0.00  0.00    -0.045 C 
ENDROOT
BRANCH   1   4
ATOM      2  C   UNL     1       0.606  -0.608  -1.057  0.00  0.00    +0.162 A 
ATOM      3  C   UNL     1       1.173   0.159  -2.062  0.00  0.00    +0.052 A 
ATOM      4  C   UNL     1       1.787  -0.456  -3.138  0.00  0.00    -0.047 A 
ATOM      5  C   UNL     1       1.837  -1.836  -3.213  0.00  0.00    +0.023 A 
ATOM      6  C   UNL     1       1.273  -2.607  -2.212  0.00  0.00    +0.065 A 
ATOM      7  C   UNL     1       0.662  -1.996  -1.129  0.00  0.00    +0.163 A 
ATOM      8 BR   UNL     1       2.678  -2.671  -4.686  0.00  0.00    -0.050 Br
BRANCH   2  10
ATOM      9  C   UNL     1      -0.017   1.425   0.010  0.00  0.00    +0.277 C 
ATOM     10  O   UNL     1       0.002  -0.004   0.002  0.00  0.00    -0.491 OA
ENDBRANCH   2  10
BRANCH   7  11
ATOM     11  O   UNL     1       0.112  -2.752  -0.141  0.00  0.00    -0.491 OA
ATOM     12  C   UNL     1       0.207  -4.171  -0.282  0.00  0.00    +0.277 C 
ENDBRANCH   7  11
ENDBRANCH   1   4
BRANCH   1  13
ATOM     13  N   UNL     1       3.865   0.360  -4.098  0.00  0.00    +0.383 N 
ATOM     14  H   UNL     1       4.126   0.737  -3.199  0.00  0.00    -0.085 HD
ATOM     15  H   UNL     1       4.196  -0.590  -4.173  0.00  0.00    -0.085 HD
BRANCH  13  16
ATOM     16  C   UNL     1       4.464   1.175  -5.163  0.00  0.00    -0.058 C 
BRANCH  16  17
ATOM     17  C   UNL     1       5.988   1.154  -5.025  0.00  0.00    +0.166 C 
BRANCH  17  18
ATOM     18  S   UNL     1       6.728   2.159  -6.340  0.00  0.00    +0.025 S 
ATOM     19  O   UNL     1       6.520   1.543  -7.604  0.00  0.00    -0.158 OA
ATOM     20  O   UNL     1       6.414   3.531  -6.143  0.00  0.00    -0.158 OA
BRANCH  18  21
ATOM     21  N   UNL     1       8.361   2.059  -6.085  0.00  0.00    -0.208 NA
ATOM     22  H   UNL     1       8.705   1.534  -5.345  0.00  0.00    +0.144 HD
ATOM     23  H   UNL     1       8.974   2.525  -6.675  0.00  0.00    +0.144 HD
ENDBRANCH  18  21
ENDBRANCH  17  18
ENDBRANCH  16  17
ENDBRANCH  13  16
ENDBRANCH   1  13
TORSDOF 8
