REMARK  Name = ZINC21334671
REMARK  10 active torsions:
REMARK  status: ('A' for Active; 'I' for Inactive)
REMARK    1  A    between atoms: C_1  and  C_2
REMARK    2  A    between atoms: C_2  and  C_4
REMARK    3  A    between atoms: C_2  and  N_10
REMARK    4  A    between atoms: C_11  and  C_13
REMARK    5  A    between atoms: C_13  and  C_15
REMARK    6  A    between atoms: C_13  and  N_16
REMARK    7  A    between atoms: N_19  and  C_22
REMARK    8  A    between atoms: C_22  and  C_23
REMARK    9  A    between atoms: N_25  and  C_26
REMARK   10  A    between atoms: C_30  and  C_32
REMARK                            x       y       z     vdW  Elec       q    Type
REMARK                         _______ _______ _______ _____ _____    ______ ____
ROOT
ATOM      1  N   UNL     1       4.771   0.043   1.561  0.00  0.00    +0.389 N 
ATOM      2  C   UNL     1       4.807   0.649   0.222  0.00  0.00    -0.062 C 
ATOM      3  C   UNL     1       3.682   1.679   0.100  0.00  0.00    +0.066 C 
ATOM      4  N   UNL     1       2.390   1.020   0.343  0.00  0.00    -0.298 NA
ATOM      5  C   UNL     1       2.355   0.415   1.682  0.00  0.00    +0.066 C 
ATOM      6  C   UNL     1       3.480  -0.615   1.804  0.00  0.00    -0.062 C 
ATOM      7  H   UNL     1       4.887   0.849   2.301  0.00  0.00    -0.081 HD
ENDROOT
BRANCH   1   8
ATOM      8  C   UNL     1       5.885  -0.897   1.743  0.00  0.00    +0.016 C 
ATOM      9  C   UNL     1       5.719  -2.076   0.782  0.00  0.00    -0.004 C 
BRANCH   8  11
ATOM     10  N   UNL     1       6.826  -2.284   3.562  0.00  0.00    -0.310 N 
ATOM     11  C   UNL     1       5.887  -1.403   3.162  0.00  0.00    +0.200 C 
ATOM     12  O   UNL     1       5.045  -1.018   3.945  0.00  0.00    -0.278 OA
ATOM     13  H   UNL     1       7.590  -2.634   2.852  0.00  0.00    +0.149 HD
BRANCH  10  15
ATOM     14  C   UNL     1       5.873  -3.965   5.061  0.00  0.00    +0.033 C 
ATOM     15  C   UNL     1       6.829  -2.776   4.942  0.00  0.00    +0.100 C 
BRANCH  15  16
ATOM     16  C   UNL     1       8.222  -3.212   5.317  0.00  0.00    -0.027 A 
ATOM     17  C   UNL     1       9.002  -3.895   4.403  0.00  0.00    +0.005 A 
ATOM     18  C   UNL     1      10.281  -4.291   4.745  0.00  0.00    +0.000 A 
ATOM     19  C   UNL     1      10.777  -4.013   6.006  0.00  0.00    +0.000 A 
ATOM     20  C   UNL     1       9.995  -3.335   6.922  0.00  0.00    +0.000 A 
ATOM     21  C   UNL     1       8.717  -2.935   6.578  0.00  0.00    +0.005 A 
ENDBRANCH  15  16
ENDBRANCH  10  15
ENDBRANCH   8  11
ENDBRANCH   1   8
BRANCH   4  22
ATOM     22  C   UNL     1       1.277   1.961   0.161  0.00  0.00    +0.180 C 
BRANCH  22  23
ATOM     23  C   UNL     1      -0.027   1.205   0.175  0.00  0.00    +0.231 C 
ATOM     24  O   UNL     1      -0.028   0.001   0.322  0.00  0.00    -0.274 OA
ATOM     25  N   UNL     1      -1.191   1.867   0.018  0.00  0.00    -0.284 N 
ATOM     26  H   UNL     1      -1.197   2.966  -0.029  0.00  0.00    +0.155 HD
BRANCH  25  27
ATOM     27  C   UNL     1      -2.391   1.155  -0.086  0.00  0.00    +0.034 A 
ATOM     28  C   UNL     1      -2.412  -0.089  -0.704  0.00  0.00    +0.025 A 
ATOM     29  C   UNL     1      -3.597  -0.791  -0.800  0.00  0.00    +0.022 A 
ATOM     30  C   UNL     1      -4.766  -0.252  -0.292  0.00  0.00    +0.053 A 
ATOM     31  C   UNL     1      -4.749   0.990   0.319  0.00  0.00    +0.075 A 
ATOM     32  C   UNL     1      -3.565   1.694   0.423  0.00  0.00    +0.037 A 
ATOM     33 CL   UNL     1      -6.255  -1.134  -0.421  0.00  0.00    -0.083 Cl
BRANCH  31  34
ATOM     34  C   UNL     1      -6.024   1.573   0.872  0.00  0.00    +0.419 C 
ATOM     35  F   UNL     1      -5.756   2.825   1.438  0.00  0.00    -0.166 F 
ATOM     36  F   UNL     1      -6.957   1.718  -0.160  0.00  0.00    -0.166 F 
ATOM     37  F   UNL     1      -6.540   0.720   1.853  0.00  0.00    -0.166 F 
ENDBRANCH  31  34
ENDBRANCH  25  27
ENDBRANCH  22  23
ENDBRANCH   4  22
TORSDOF 8
