REMARK  Name = ZINC12329285
REMARK  6 active torsions:
REMARK  status: ('A' for Active; 'I' for Inactive)
REMARK    1  A    between atoms: C_4  and  C_7
REMARK    2  A    between atoms: C_7  and  C_9
REMARK    3  A    between atoms: C_7  and  O_27
REMARK    4  A    between atoms: C_9  and  N_51
REMARK    5  A    between atoms: C_16  and  O_26
REMARK    6  A    between atoms: C_20  and  O_25
REMARK                            x       y       z     vdW  Elec       q    Type
REMARK                         _______ _______ _______ _____ _____    ______ ____
ROOT
ATOM      1  C   UNL     1       5.080   4.410  -0.774  0.00  0.00    -0.075 C 
ATOM      2  C   UNL     1       6.335   5.279  -0.669  0.00  0.00    +0.029 C 
ATOM      3  C   UNL     1       6.771   5.712  -2.070  0.00  0.00    +0.110 C 
ATOM      4  C   UNL     1       5.622   6.455  -2.754  0.00  0.00    +0.029 C 
ATOM      5  C   UNL     1       4.388   5.551  -2.797  0.00  0.00    -0.075 C 
ATOM      6  C   UNL     1       7.988   6.638  -1.964  0.00  0.00    +0.084 C 
ATOM      7  C   UNL     1       9.081   5.908  -1.179  0.00  0.00    +0.152 C 
ATOM      8  C   UNL     1       9.257   4.515  -1.730  0.00  0.00    +0.026 A 
ATOM      9  C   UNL     1      10.419   3.824  -1.430  0.00  0.00    +0.055 A 
ATOM     10  C   UNL     1      10.613   2.540  -1.913  0.00  0.00    +0.117 A 
ATOM     11  C   UNL     1       9.638   1.944  -2.701  0.00  0.00    +0.049 A 
ATOM     12  C   UNL     1       8.481   2.633  -3.001  0.00  0.00    +0.049 A 
ATOM     13  C   UNL     1       8.286   3.922  -2.518  0.00  0.00    +0.127 A 
ATOM     14  O   UNL     1       7.133   4.568  -2.840  0.00  0.00    -0.485 OA
ATOM     15  N   UNL     1       4.005   5.197  -1.414  0.00  0.00    +0.382 N 
ATOM     16  H   UNL     1       3.860   6.060  -0.877  0.00  0.00    -0.082 HD
ENDROOT
BRANCH  10  17
ATOM     17  O   UNL     1      11.755   1.865  -1.615  0.00  0.00    -0.507 OA
ATOM     18  H   UNL     1      12.469   2.000  -2.253  0.00  0.00    +0.292 HD
ENDBRANCH  10  17
BRANCH   7  19
ATOM     19  O   UNL     1      10.310   6.626  -1.298  0.00  0.00    -0.387 OA
ATOM     20  H   UNL     1      11.049   6.222  -0.823  0.00  0.00    +0.210 HD
ENDBRANCH   7  19
BRANCH  15  21
ATOM     21  C   UNL     1       2.748   4.420  -1.422  0.00  0.00    -0.042 C 
BRANCH  21  22
ATOM     22  C   UNL     1       2.436   3.961   0.004  0.00  0.00    +0.128 C 
BRANCH  22  26
ATOM     23  C   UNL     1      -1.276   1.848   0.037  0.00  0.00    +0.000 A 
ATOM     24  C   UNL     1      -0.083   1.150   0.041  0.00  0.00    +0.000 A 
ATOM     25  C   UNL     1       1.118   1.833   0.029  0.00  0.00    +0.006 A 
ATOM     26  C   UNL     1       1.127   3.216   0.018  0.00  0.00    -0.021 A 
ATOM     27  C   UNL     1      -0.066   3.914   0.019  0.00  0.00    +0.006 A 
ATOM     28  C   UNL     1      -1.268   3.230   0.031  0.00  0.00    +0.000 A 
ENDBRANCH  22  26
BRANCH  22  29
ATOM     29  O   UNL     1       2.345   5.101   0.862  0.00  0.00    -0.389 OA
ATOM     30  H   UNL     1       1.655   5.730   0.608  0.00  0.00    +0.210 HD
ENDBRANCH  22  29
ENDBRANCH  21  22
ENDBRANCH  15  21
TORSDOF 6
