REMARK  Name = ZINC14242833
REMARK  3 active torsions:
REMARK  status: ('A' for Active; 'I' for Inactive)
REMARK    1  A    between atoms: C_12  and  C_14
REMARK    2  A    between atoms: C_18  and  S_20
REMARK    3  A    between atoms: S_20  and  N_23
REMARK                            x       y       z     vdW  Elec       q    Type
REMARK                         _______ _______ _______ _____ _____    ______ ____
ROOT
ATOM      1  C   UNL     1      -0.351  -3.721  -0.437  0.00  0.00    +0.039 A 
ATOM      2  C   UNL     1       0.546  -3.553  -1.494  0.00  0.00    +0.013 A 
ATOM      3  C   UNL     1       0.298  -2.599  -2.458  0.00  0.00    +0.003 A 
ATOM      4  C   UNL     1      -0.839  -1.813  -2.384  0.00  0.00    +0.028 A 
ATOM      5  C   UNL     1      -1.729  -1.972  -1.337  0.00  0.00    +0.106 A 
ATOM      6  C   UNL     1      -1.493  -2.922  -0.365  0.00  0.00    +0.041 A 
ENDROOT
BRANCH   1  18
ATOM      7  C   UNL     1       0.441  -6.643  -3.337  0.00  0.00    +0.002 A 
ATOM      8  C   UNL     1       1.792  -6.705  -3.625  0.00  0.00    +0.001 A 
ATOM      9  C   UNL     1       2.724  -6.466  -2.627  0.00  0.00    +0.016 A 
ATOM     10  C   UNL     1       2.283  -6.166  -1.353  0.00  0.00    +0.029 A 
ATOM     11  C   UNL     1       0.931  -6.144  -1.044  0.00  0.00    +0.050 A 
ATOM     12  C   UNL     1       0.004  -6.367  -2.055  0.00  0.00    +0.024 A 
ATOM     13  N   UNL     1       0.488  -5.912   0.265  0.00  0.00    -0.266 N 
ATOM     14  C   UNL     1       0.677  -6.973   1.266  0.00  0.00    +0.115 C 
ATOM     15  C   UNL     1       1.990  -6.838   1.978  0.00  0.00    +0.030 C 
ATOM     16  C   UNL     1       3.224  -7.091   1.125  0.00  0.00    +0.076 C 
ATOM     17  S   UNL     1       3.441  -5.742  -0.073  0.00  0.00    -0.123 S 
ATOM     18  C   UNL     1      -0.092  -4.742   0.600  0.00  0.00    +0.251 C 
ATOM     19  O   UNL     1      -0.403  -4.527   1.756  0.00  0.00    -0.270 OA
ENDBRANCH   1  18
BRANCH   5  20
ATOM     20  S   UNL     1      -3.170  -0.962  -1.248  0.00  0.00    +0.061 S 
ATOM     21  O   UNL     1      -4.122  -1.680  -0.475  0.00  0.00    -0.153 OA
ATOM     22  O   UNL     1      -3.440  -0.522  -2.571  0.00  0.00    -0.153 OA
BRANCH  20  23
ATOM     23  N   UNL     1      -2.770   0.386  -0.373  0.00  0.00    -0.177 NA
ATOM     24  C   UNL     1      -2.256   1.554  -1.028  0.00  0.00    +0.109 C 
ATOM     25  C   UNL     1      -0.719   1.606  -1.219  0.00  0.00    +0.017 C 
ATOM     26  C   UNL     1      -0.006   1.090   0.055  0.00  0.00    +0.001 C 
ATOM     27  C   UNL     1      -0.718   1.558   1.291  0.00  0.00    +0.001 C 
ATOM     28  C   UNL     1      -1.604   0.392   1.715  0.00  0.00    +0.017 C 
ATOM     29  C   UNL     1      -2.939   0.405   1.119  0.00  0.00    +0.109 C 
ENDBRANCH  20  23
ENDBRANCH   5  20
TORSDOF 3
