REMARK  Name = ZINC35679202
REMARK  9 active torsions:
REMARK  status: ('A' for Active; 'I' for Inactive)
REMARK    1  A    between atoms: C_1  and  C_2
REMARK    2  A    between atoms: C_2  and  O_3
REMARK    3  A    between atoms: O_3  and  C_4
REMARK    4  A    between atoms: C_7  and  N_10
REMARK    5  A    between atoms: N_10  and  S_11
REMARK    6  A    between atoms: S_11  and  C_14
REMARK    7  A    between atoms: C_17  and  C_19
REMARK    8  A    between atoms: C_19  and  C_20
REMARK    9  A    between atoms: C_20  and  N_21
REMARK                            x       y       z     vdW  Elec       q    Type
REMARK                         _______ _______ _______ _____ _____    ______ ____
ROOT
ATOM      1  S   UNL     1      -3.164  -6.600   0.982  0.00  0.00    +0.079 S 
ATOM      2  O   UNL     1      -3.149  -8.011   0.809  0.00  0.00    -0.149 OA
ATOM      3  O   UNL     1      -2.983  -5.986   2.250  0.00  0.00    -0.149 OA
ENDROOT
BRANCH   1   4
ATOM      4  C   UNL     1      -4.714  -6.034   0.364  0.00  0.00    +0.146 A 
ATOM      5  C   UNL     1      -5.580  -6.659  -0.470  0.00  0.00    +0.037 A 
ATOM      6  C   UNL     1      -6.752  -6.016  -0.824  0.00  0.00    +0.013 A 
ATOM      7  C   UNL     1      -7.000  -4.780  -0.326  0.00  0.00    -0.010 A 
ATOM      8  S   UNL     1      -5.555  -4.491   0.682  0.00  0.00    -0.073 S 
BRANCH   7   9
ATOM      9  C   UNL     1      -8.189  -3.884  -0.559  0.00  0.00    +0.023 C 
BRANCH   9  10
ATOM     10  C   UNL     1      -9.258  -4.171   0.497  0.00  0.00    -0.081 C 
BRANCH  10  11
ATOM     11  N   UNL     1     -10.418  -3.298   0.271  0.00  0.00    +0.378 N 
ATOM     12  H   UNL     1     -11.123  -3.488   0.967  0.00  0.00    -0.090 HD
ATOM     13  H   UNL     1     -10.130  -2.333   0.337  0.00  0.00    -0.090 HD
ATOM     14  H   UNL     1     -10.796  -3.473  -0.648  0.00  0.00    -0.090 HD
ENDBRANCH  10  11
ENDBRANCH   9  10
ENDBRANCH   7   9
ENDBRANCH   1   4
BRANCH   1  15
ATOM     15  N   UNL     1      -1.988  -5.990  -0.012  0.00  0.00    -0.216 N 
ATOM     16  H   UNL     1      -1.315  -5.390   0.345  0.00  0.00    +0.174 HD
BRANCH  15  20
ATOM     17  C   UNL     1      -1.923  -7.030  -4.048  0.00  0.00    +0.121 A 
ATOM     18  C   UNL     1      -1.767  -5.704  -3.671  0.00  0.00    +0.047 A 
ATOM     19  C   UNL     1      -1.789  -5.358  -2.334  0.00  0.00    +0.028 A 
ATOM     20  C   UNL     1      -1.967  -6.339  -1.367  0.00  0.00    +0.048 A 
ATOM     21  C   UNL     1      -2.123  -7.666  -1.745  0.00  0.00    +0.028 A 
ATOM     22  C   UNL     1      -2.107  -8.009  -3.083  0.00  0.00    +0.047 A 
BRANCH  17  23
ATOM     23  O   UNL     1      -1.901  -7.369  -5.365  0.00  0.00    -0.492 OA
BRANCH  23  25
ATOM     24  C   UNL     1      -1.713  -6.881  -7.724  0.00  0.00    +0.048 C 
ATOM     25  C   UNL     1      -1.708  -6.310  -6.305  0.00  0.00    +0.225 C 
ENDBRANCH  23  25
ENDBRANCH  17  23
ENDBRANCH  15  20
ENDBRANCH   1  15
TORSDOF 8
