REMARK  Name = ZINC63372774
REMARK  10 active torsions:
REMARK  status: ('A' for Active; 'I' for Inactive)
REMARK    1  A    between atoms: C_1  and  C_2
REMARK    2  A    between atoms: C_2  and  C_3
REMARK    3  A    between atoms: C_3  and  O_4
REMARK    4  A    between atoms: O_4  and  C_5
REMARK    5  A    between atoms: C_8  and  C_14
REMARK    6  A    between atoms: C_10  and  O_11
REMARK    7  A    between atoms: O_11  and  C_12
REMARK    8  A    between atoms: C_12  and  C_13
REMARK    9  A    between atoms: N_20  and  C_35
REMARK   10  A    between atoms: C_23  and  C_34
REMARK                            x       y       z     vdW  Elec       q    Type
REMARK                         _______ _______ _______ _____ _____    ______ ____
ROOT
ATOM      1  C   UNL     1       3.277  -4.423  -5.630  0.00  0.00    +0.065 C 
ATOM      2  C   UNL     1       4.751  -3.985  -5.744  0.00  0.00    +0.123 C 
ATOM      3  N   UNL     1       4.913  -3.275  -7.016  0.00  0.00    -0.268 N 
ATOM      4  C   UNL     1       5.364  -2.029  -7.215  0.00  0.00    +0.317 C 
ATOM      5  O   UNL     1       5.862  -1.341  -6.345  0.00  0.00    -0.252 OA
ATOM      6  N   UNL     1       5.204  -1.629  -8.484  0.00  0.00    -0.192 N 
ATOM      7  C   UNL     1       4.700  -2.615  -9.256  0.00  0.00    +0.253 C 
ATOM      8  O   UNL     1       4.414  -2.550 -10.432  0.00  0.00    -0.272 OA
ATOM      9  C   UNL     1       4.567  -3.816  -8.347  0.00  0.00    +0.137 C 
ATOM     10  C   UNL     1       3.118  -4.297  -8.292  0.00  0.00    +0.139 C 
ATOM     11  C   UNL     1       2.588  -3.986  -6.899  0.00  0.00    -0.027 C 
ATOM     12  C   UNL     1       1.475  -3.280  -7.076  0.00  0.00    -0.000 A 
ATOM     13  C   UNL     1       0.480  -2.768  -6.120  0.00  0.00    +0.010 A 
ATOM     14  C   UNL     1      -0.548  -2.054  -6.650  0.00  0.00    +0.001 A 
ATOM     15  C   UNL     1      -0.684  -1.801  -8.018  0.00  0.00    +0.002 A 
ATOM     16  C   UNL     1       0.179  -2.240  -8.969  0.00  0.00    +0.026 A 
ATOM     17  C   UNL     1       1.298  -3.009  -8.535  0.00  0.00    +0.043 A 
ATOM     18  N   UNL     1       2.260  -3.572  -9.231  0.00  0.00    -0.375 N 
ATOM     19  C   UNL     1       5.525  -4.935  -8.760  0.00  0.00    +0.044 C 
ATOM     20  H   UNL     1       2.385  -3.522 -10.191  0.00  0.00    +0.160 HD
ENDROOT
BRANCH   6  21
ATOM     21  C   UNL     1       5.520  -0.345  -8.952  0.00  0.00    +0.046 A 
ATOM     22  C   UNL     1       5.435  -0.059 -10.307  0.00  0.00    +0.027 A 
ATOM     23  C   UNL     1       5.746   1.206 -10.766  0.00  0.00    +0.040 A 
ATOM     24  C   UNL     1       6.144   2.188  -9.875  0.00  0.00    +0.124 A 
ATOM     25  C   UNL     1       6.229   1.905  -8.522  0.00  0.00    +0.040 A 
ATOM     26  C   UNL     1       5.913   0.643  -8.059  0.00  0.00    +0.027 A 
ATOM     27  F   UNL     1       6.448   3.425 -10.326  0.00  0.00    -0.205 F 
ENDBRANCH   6  21
BRANCH   1  31
ATOM     28  C   UNL     1       1.450  -2.532  -2.257  0.00  0.00    +0.162 A 
ATOM     29  C   UNL     1       2.003  -1.765  -3.269  0.00  0.00    +0.050 A 
ATOM     30  C   UNL     1       2.594  -2.379  -4.358  0.00  0.00    +0.008 A 
ATOM     31  C   UNL     1       2.633  -3.759  -4.440  0.00  0.00    -0.035 A 
ATOM     32  C   UNL     1       2.083  -4.530  -3.434  0.00  0.00    +0.053 A 
ATOM     33  C   UNL     1       1.495  -3.921  -2.337  0.00  0.00    +0.162 A 
BRANCH  28  34
ATOM     34  O   UNL     1       0.870  -1.930  -1.185  0.00  0.00    -0.488 OA
BRANCH  34  35
ATOM     35  C   UNL     1       0.861  -0.501  -1.170  0.00  0.00    +0.229 C 
BRANCH  35  37
ATOM     36  C   UNL     1       0.161   1.521   0.120  0.00  0.00    +0.007 C 
ATOM     37  C   UNL     1       0.171  -0.009   0.104  0.00  0.00    +0.038 C 
ENDBRANCH  35  37
ENDBRANCH  34  35
ENDBRANCH  28  34
BRANCH  33  38
ATOM     38  O   UNL     1       0.959  -4.678  -1.343  0.00  0.00    -0.489 OA
BRANCH  38  39
ATOM     39  C   UNL     1       1.041  -6.097  -1.492  0.00  0.00    +0.226 C 
ATOM     40  C   UNL     1       0.389  -6.775  -0.285  0.00  0.00    +0.048 C 
ENDBRANCH  38  39
ENDBRANCH  33  38
ENDBRANCH   1  31
TORSDOF 7
