REMARK  Name = ZINC21057615
REMARK  6 active torsions:
REMARK  status: ('A' for Active; 'I' for Inactive)
REMARK    1  A    between atoms: C_1  and  C_2
REMARK    2  A    between atoms: C_5  and  C_23
REMARK    3  A    between atoms: N_8  and  C_10
REMARK    4  A    between atoms: C_10  and  C_11
REMARK    5  A    between atoms: N_13  and  C_14
REMARK    6  A    between atoms: C_15  and  N_22
REMARK                            x       y       z     vdW  Elec       q    Type
REMARK                         _______ _______ _______ _____ _____    ______ ____
ROOT
ATOM      1  C   UNL     1      -0.236   8.811  -1.063  0.00  0.00    +0.201 C 
ATOM      2  O   UNL     1      -0.611   9.589  -1.914  0.00  0.00    -0.278 OA
ATOM      3  N   UNL     1       1.066   8.474  -0.984  0.00  0.00    -0.284 N 
ATOM      4  H   UNL     1       1.397   7.724  -0.249  0.00  0.00    +0.155 HD
ENDROOT
BRANCH   3   5
ATOM      5  C   UNL     1       2.000   9.078  -1.838  0.00  0.00    +0.073 A 
ATOM      6  C   UNL     1       2.996   8.310  -2.440  0.00  0.00    +0.049 A 
ATOM      7  C   UNL     1       3.917   8.913  -3.284  0.00  0.00    +0.044 A 
ATOM      8  C   UNL     1       3.845  10.273  -3.528  0.00  0.00    +0.044 A 
ATOM      9  C   UNL     1       2.861  11.036  -2.926  0.00  0.00    +0.042 A 
ATOM     10  C   UNL     1       1.935  10.441  -2.087  0.00  0.00    +0.065 A 
ATOM     11 CL   UNL     1       0.697  11.402  -1.339  0.00  0.00    -0.082 Cl
ATOM     12 CL   UNL     1       4.999  11.025  -4.585  0.00  0.00    -0.083 Cl
BRANCH   6  13
ATOM     13  N   UNL     1       3.067   6.935  -2.193  0.00  0.00    -0.356 N 
ATOM     14  H   UNL     1       3.853   6.330  -2.668  0.00  0.00    +0.142 HD
ATOM     15  H   UNL     1       2.337   6.458  -1.523  0.00  0.00    +0.142 HD
ENDBRANCH   6  13
ENDBRANCH   3   5
BRANCH   1  16
ATOM     16  C   UNL     1      -1.228   8.221  -0.093  0.00  0.00    +0.019 C 
BRANCH  16  22
ATOM     17  C   UNL     1      -4.270  12.065  -0.487  0.00  0.00    +0.005 C 
ATOM     18  C   UNL     1      -4.104  10.565  -0.737  0.00  0.00    -0.031 C 
ATOM     19  C   UNL     1      -5.201   9.797   0.006  0.00  0.00    +0.003 C 
ATOM     20  C   UNL     1      -4.991   8.294  -0.201  0.00  0.00    -0.031 C 
ATOM     21  C   UNL     1      -3.596   7.906   0.296  0.00  0.00    -0.075 C 
ATOM     22  N   UNL     1      -2.582   8.667  -0.445  0.00  0.00    +0.386 N 
ATOM     23  C   UNL     1      -2.735  10.111  -0.225  0.00  0.00    -0.075 C 
ATOM     24  C   UNL     1      -6.048   7.518   0.587  0.00  0.00    +0.005 C 
ATOM     25  H   UNL     1      -2.735   8.474  -1.517  0.00  0.00    -0.081 HD
ENDBRANCH  16  22
ENDBRANCH   1  16
TORSDOF 4
