REMARK  Name = ZINC40553837
REMARK  2 active torsions:
REMARK  status: ('A' for Active; 'I' for Inactive)
REMARK    1  A    between atoms: N_7  and  C_12
REMARK    2  A    between atoms: C_12  and  C_13
REMARK                            x       y       z     vdW  Elec       q    Type
REMARK                         _______ _______ _______ _____ _____    ______ ____
ROOT
ATOM      1  C   UNL     1      -0.007  -2.736  -0.509  0.00  0.00    +0.209 C 
ENDROOT
BRANCH   1   2
ATOM      2  C   UNL     1       0.032  -2.835  -2.012  0.00  0.00    +0.234 C 
ATOM      3  O   UNL     1       0.984  -2.399  -2.624  0.00  0.00    -0.274 OA
ATOM      4  N   UNL     1      -0.992  -3.406  -2.676  0.00  0.00    -0.292 N 
ATOM      5  C   UNL     1      -2.163  -3.938  -1.961  0.00  0.00    +0.136 C 
ATOM      6  C   UNL     1      -3.431  -3.365  -2.603  0.00  0.00    +0.179 C 
ATOM      7  O   UNL     1      -3.390  -3.587  -4.016  0.00  0.00    -0.373 OA
ATOM      8  C   UNL     1      -2.297  -2.944  -4.671  0.00  0.00    +0.139 C 
ATOM      9  C   UNL     1      -0.982  -3.516  -4.147  0.00  0.00    +0.105 C 
ATOM     10  C   UNL     1      -0.887  -4.999  -4.518  0.00  0.00    +0.025 C 
ATOM     11  C   UNL     1      -0.970  -5.159  -6.036  0.00  0.00    +0.002 C 
ATOM     12  C   UNL     1      -2.310  -4.608  -6.530  0.00  0.00    +0.003 C 
ATOM     13  C   UNL     1      -2.388  -3.144  -6.181  0.00  0.00    +0.033 C 
ENDBRANCH   1   2
BRANCH   1  20
ATOM     14  C   UNL     1       3.349  -5.051   0.246  0.00  0.00    +0.002 A 
ATOM     15  C   UNL     1       4.339  -4.604   1.103  0.00  0.00    +0.001 A 
ATOM     16  C   UNL     1       4.300  -3.309   1.587  0.00  0.00    +0.016 A 
ATOM     17  C   UNL     1       3.268  -2.464   1.213  0.00  0.00    +0.030 A 
ATOM     18  C   UNL     1       2.265  -2.909   0.351  0.00  0.00    +0.050 A 
ATOM     19  C   UNL     1       2.318  -4.212  -0.130  0.00  0.00    +0.024 A 
ATOM     20  N   UNL     1       1.213  -2.080  -0.031  0.00  0.00    -0.261 N 
ATOM     21  C   UNL     1       1.209  -0.750  -0.004  0.00  0.00    +0.230 C 
ATOM     22  O   UNL     1       0.211  -0.172  -0.381  0.00  0.00    -0.274 OA
ATOM     23  C   UNL     1       2.373   0.077   0.469  0.00  0.00    +0.170 C 
ATOM     24  S   UNL     1       3.209  -0.808   1.819  0.00  0.00    -0.114 S 
ENDBRANCH   1  20
TORSDOF 2
