REMARK  Name = ZINC39626471
REMARK  7 active torsions:
REMARK  status: ('A' for Active; 'I' for Inactive)
REMARK    1  A    between atoms: C_1  and  N_2
REMARK    2  A    between atoms: N_2  and  C_3
REMARK    3  A    between atoms: N_2  and  C_4
REMARK    4  A    between atoms: C_4  and  C_5
REMARK    5  A    between atoms: C_5  and  N_6
REMARK    6  A    between atoms: C_7  and  C_9
REMARK    7  A    between atoms: C_20  and  C_22
REMARK                            x       y       z     vdW  Elec       q    Type
REMARK                         _______ _______ _______ _____ _____    ______ ____
ROOT
ATOM      1  C   UNL     1       4.493  -0.168  -3.095  0.00  0.00    +0.100 C 
ATOM      2  C   UNL     1       4.122   0.020  -4.584  0.00  0.00    +0.121 C 
ATOM      3  N   UNL     1       4.885   1.216  -5.012  0.00  0.00    -0.300 N 
ATOM      4  C   UNL     1       6.198   1.076  -4.337  0.00  0.00    +0.115 C 
ATOM      5  C   UNL     1       5.858   0.523  -2.938  0.00  0.00    -0.004 C 
ATOM      6  C   UNL     1       6.914  -0.485  -2.498  0.00  0.00    -0.010 C 
ATOM      7  C   UNL     1       8.249   0.236  -2.292  0.00  0.00    -0.082 C 
ATOM      8  N   UNL     1       8.089   1.283  -1.276  0.00  0.00    +0.379 N 
ATOM      9  C   UNL     1       7.141   2.299  -1.748  0.00  0.00    -0.082 C 
ATOM     10  C   UNL     1       5.759   1.665  -1.931  0.00  0.00    -0.010 C 
ATOM     11  C   UNL     1       4.478   2.206  -5.830  0.00  0.00    +0.219 C 
ATOM     12  O   UNL     1       3.339   2.219  -6.247  0.00  0.00    -0.275 OA
ATOM     13  H   UNL     1       7.742   0.872  -0.422  0.00  0.00    -0.086 HD
ATOM     14  H   UNL     1       8.983   1.716  -1.098  0.00  0.00    -0.086 HD
ENDROOT
BRANCH  11  15
ATOM     15  C   UNL     1       5.438   3.297  -6.228  0.00  0.00    +0.079 C 
ATOM     16  C   UNL     1       4.655   4.565  -6.592  0.00  0.00    +0.017 C 
ATOM     17  C   UNL     1       5.654   5.703  -6.817  0.00  0.00    +0.027 C 
ATOM     18  C   UNL     1       6.745   5.256  -7.745  0.00  0.00    -0.031 C 
ATOM     19  C   UNL     1       7.003   4.018  -8.018  0.00  0.00    -0.030 C 
ATOM     20  C   UNL     1       6.244   2.853  -7.450  0.00  0.00    +0.039 C 
ENDBRANCH  11  15
BRANCH   1  22
ATOM     21  N   UNL     1       3.232   0.009  -0.975  0.00  0.00    -0.317 N 
ATOM     22  C   UNL     1       3.466   0.491  -2.211  0.00  0.00    +0.218 C 
ATOM     23  O   UNL     1       2.850   1.456  -2.613  0.00  0.00    -0.275 OA
ATOM     24  H   UNL     1       3.725  -0.762  -0.654  0.00  0.00    +0.149 HD
BRANCH  21  25
ATOM     25  C   UNL     1       2.234   0.650  -0.115  0.00  0.00    +0.085 C 
BRANCH  25  26
ATOM     26  C   UNL     1       2.165  -0.087   1.224  0.00  0.00    -0.061 C 
BRANCH  26  28
ATOM     27  C   UNL     1      -0.169   0.400   1.488  0.00  0.00    -0.097 C 
ATOM     28  N   UNL     1       1.164   0.555   2.086  0.00  0.00    +0.377 N 
ATOM     29  C   UNL     1       1.182  -0.076   3.412  0.00  0.00    -0.097 C 
ATOM     30  H   UNL     1       1.379   1.537   2.177  0.00  0.00    -0.083 HD
ENDBRANCH  26  28
ENDBRANCH  25  26
ENDBRANCH  21  25
ENDBRANCH   1  22
TORSDOF 5
