REMARK  Name = ZINC37721986
REMARK  10 active torsions:
REMARK  status: ('A' for Active; 'I' for Inactive)
REMARK    1  A    between atoms: C_1  and  O_2
REMARK    2  A    between atoms: O_2  and  C_3
REMARK    3  A    between atoms: C_5  and  C_19
REMARK    4  A    between atoms: C_7  and  O_17
REMARK    5  A    between atoms: C_8  and  O_9
REMARK    6  A    between atoms: O_9  and  C_10
REMARK    7  A    between atoms: C_10  and  C_11
REMARK    8  A    between atoms: O_17  and  C_18
REMARK    9  A    between atoms: C_19  and  C_20
REMARK   10  A    between atoms: C_20  and  N_21
REMARK                            x       y       z     vdW  Elec       q    Type
REMARK                         _______ _______ _______ _____ _____    ______ ____
ROOT
ATOM      1  C   UNL     1      -1.201  -0.638   0.010  0.00  0.00    +0.165 A 
ATOM      2  C   UNL     1      -2.375   0.101   0.019  0.00  0.00    +0.053 A 
ATOM      3  C   UNL     1      -3.598  -0.543   0.028  0.00  0.00    -0.042 A 
ATOM      4  C   UNL     1      -3.657  -1.924   0.027  0.00  0.00    +0.053 A 
ATOM      5  C   UNL     1      -2.488  -2.670   0.017  0.00  0.00    +0.165 A 
ATOM      6  C   UNL     1      -1.256  -2.027   0.003  0.00  0.00    +0.204 A 
ENDROOT
BRANCH   1   8
ATOM      7  C   UNL     1      -0.017   1.425   0.010  0.00  0.00    +0.277 C 
ATOM      8  O   UNL     1       0.002  -0.004   0.002  0.00  0.00    -0.491 OA
ENDBRANCH   1   8
BRANCH   5   9
ATOM      9  O   UNL     1      -2.547  -4.028   0.017  0.00  0.00    -0.491 OA
ATOM     10  C   UNL     1      -3.847  -4.621   0.026  0.00  0.00    +0.277 C 
ENDBRANCH   5   9
BRANCH   6  11
ATOM     11  O   UNL     1      -0.106  -2.755  -0.012  0.00  0.00    -0.480 OA
BRANCH  11  12
ATOM     12  C   UNL     1       0.454  -3.109   1.254  0.00  0.00    +0.272 C 
BRANCH  12  13
ATOM     13  C   UNL     1       1.714  -3.907   1.041  0.00  0.00    +0.028 A 
ATOM     14  C   UNL     1       2.991  -3.470   0.924  0.00  0.00    +0.016 A 
ATOM     15  C   UNL     1       4.001  -4.395   0.730  0.00  0.00    +0.023 A 
ATOM     16  C   UNL     1       3.683  -5.711   0.662  0.00  0.00    +0.055 A 
ATOM     17  S   UNL     1       1.911  -5.675   0.883  0.00  0.00    -0.083 S 
ATOM     18 BR   UNL     1       4.820  -7.200   0.406  0.00  0.00    -0.043 Br
ENDBRANCH  12  13
ENDBRANCH  11  12
ENDBRANCH   6  11
BRANCH   3  19
ATOM     19  C   UNL     1      -4.871   0.264   0.038  0.00  0.00    +0.016 C 
BRANCH  19  20
ATOM     20  C   UNL     1      -5.313   0.539  -1.401  0.00  0.00    -0.082 C 
BRANCH  20  21
ATOM     21  N   UNL     1      -6.554   1.325  -1.390  0.00  0.00    +0.378 N 
ATOM     22  H   UNL     1      -6.393   2.200  -0.914  0.00  0.00    -0.090 HD
ATOM     23  H   UNL     1      -6.845   1.506  -2.339  0.00  0.00    -0.090 HD
ATOM     24  H   UNL     1      -7.275   0.808  -0.910  0.00  0.00    -0.090 HD
ENDBRANCH  20  21
ENDBRANCH  19  20
ENDBRANCH   3  19
TORSDOF 8
