REMARK  Name = ZINC63465568
REMARK  17 active torsions:
REMARK  status: ('A' for Active; 'I' for Inactive)
REMARK    1  A    between atoms: C_1  and  C_2
REMARK    2  A    between atoms: C_2  and  C_27
REMARK    3  A    between atoms: C_4  and  N_10
REMARK    4  A    between atoms: C_6  and  C_8
REMARK    5  A    between atoms: C_6  and  C_9
REMARK    6  A    between atoms: C_11  and  C_13
REMARK    7  A    between atoms: C_13  and  C_14
REMARK    8  A    between atoms: C_14  and  C_15
REMARK    9  A    between atoms: C_15  and  C_16
REMARK   10  A    between atoms: C_16  and  C_17
REMARK   11  A    between atoms: C_17  and  C_18
REMARK   12  A    between atoms: C_18  and  N_19
REMARK   13  A    between atoms: C_20  and  O_22
REMARK   14  A    between atoms: O_22  and  C_23
REMARK   15  A    between atoms: C_23  and  C_24
REMARK   16  A    between atoms: C_23  and  C_25
REMARK   17  A    between atoms: C_23  and  C_26
REMARK                            x       y       z     vdW  Elec       q    Type
REMARK                         _______ _______ _______ _____ _____    ______ ____
ROOT
ATOM      1  N   UNL     1      -2.928  -2.409   0.180  0.00  0.00    -0.313 N 
ATOM      2  C   UNL     1      -3.243  -3.683  -0.127  0.00  0.00    +0.213 C 
ATOM      3  O   UNL     1      -2.365  -4.479  -0.386  0.00  0.00    -0.276 OA
ATOM      4  H   UNL     1      -3.630  -1.773   0.387  0.00  0.00    +0.149 HD
ENDROOT
BRANCH   1   8
ATOM      5  C   UNL     1      -0.019   1.542   0.011  0.00  0.00    -0.010 C 
ATOM      6  C   UNL     1       0.002  -0.004   0.002  0.00  0.00    -0.072 C 
ATOM      7  C   UNL     1      -1.446  -0.479  -0.047  0.00  0.00    +0.009 C 
ATOM      8  C   UNL     1      -1.522  -1.985   0.202  0.00  0.00    +0.070 C 
ATOM      9  C   UNL     1      -0.931  -2.270   1.582  0.00  0.00    +0.009 C 
ATOM     10  C   UNL     1       0.522  -1.810   1.643  0.00  0.00    -0.072 C 
ATOM     11  N   UNL     1       0.711  -0.443   1.191  0.00  0.00    +0.386 N 
ATOM     12  C   UNL     1       1.408  -2.784   0.859  0.00  0.00    -0.010 C 
ATOM     13  C   UNL     1       0.968  -1.882   3.122  0.00  0.00    -0.010 C 
ATOM     14  C   UNL     1       0.733  -0.436  -1.274  0.00  0.00    -0.010 C 
ATOM     15  H   UNL     1       1.713  -0.290   1.042  0.00  0.00    -0.084 HD
ATOM     16  H   UNL     1       0.464   0.186   1.962  0.00  0.00    -0.084 HD
ENDBRANCH   1   8
BRANCH   2  17
ATOM     17  C   UNL     1      -4.685  -4.119  -0.149  0.00  0.00    +0.096 C 
BRANCH  17  18
ATOM     18  C   UNL     1      -4.765  -5.600  -0.524  0.00  0.00    +0.009 C 
BRANCH  18  19
ATOM     19  C   UNL     1      -6.230  -6.042  -0.547  0.00  0.00    +0.001 C 
BRANCH  19  20
ATOM     20  C   UNL     1      -6.310  -7.523  -0.922  0.00  0.00    +0.002 C 
BRANCH  20  21
ATOM     21  C   UNL     1      -7.774  -7.965  -0.944  0.00  0.00    +0.019 C 
BRANCH  21  22
ATOM     22  C   UNL     1      -7.854  -9.446  -1.319  0.00  0.00    +0.107 C 
BRANCH  22  23
ATOM     23  N   UNL     1      -9.257  -9.869  -1.341  0.00  0.00    -0.281 N 
ATOM     24  C   UNL     1      -9.572 -11.143  -1.648  0.00  0.00    +0.401 C 
ATOM     25  O   UNL     1      -8.692 -11.941  -1.907  0.00  0.00    -0.226 OA
ATOM     26  H   UNL     1      -9.959  -9.233  -1.133  0.00  0.00    +0.152 HD
BRANCH  24  27
ATOM     27  O   UNL     1     -10.860 -11.532  -1.667  0.00  0.00    -0.445 OA
BRANCH  27  28
ATOM     28  C   UNL     1     -11.121 -12.897  -2.001  0.00  0.00    +0.107 C 
ATOM     29  C   UNL     1     -10.431 -13.811  -0.987  0.00  0.00    +0.055 C 
ATOM     30  C   UNL     1     -12.630 -13.150  -1.972  0.00  0.00    +0.055 C 
ATOM     31  C   UNL     1     -10.582 -13.191  -3.402  0.00  0.00    +0.055 C 
ENDBRANCH  27  28
ENDBRANCH  24  27
ENDBRANCH  22  23
ENDBRANCH  21  22
ENDBRANCH  20  21
ENDBRANCH  19  20
ENDBRANCH  18  19
ENDBRANCH  17  18
ENDBRANCH   2  17
TORSDOF 10
