REMARK  Name = ZINC50101278
REMARK  6 active torsions:
REMARK  status: ('A' for Active; 'I' for Inactive)
REMARK    1  A    between atoms: C_1  and  C_2
REMARK    2  A    between atoms: C_2  and  C_3
REMARK    3  A    between atoms: C_3  and  N_4
REMARK    4  A    between atoms: N_4  and  C_5
REMARK    5  A    between atoms: C_8  and  C_17
REMARK    6  A    between atoms: C_8  and  C_18
REMARK                            x       y       z     vdW  Elec       q    Type
REMARK                         _______ _______ _______ _____ _____    ______ ____
ROOT
ATOM      1  C   UNL     1      -2.748  -2.615  -0.029  0.00  0.00    -0.037 C 
ATOM      2  C   UNL     1      -2.617  -4.124   0.167  0.00  0.00    -0.005 C 
ATOM      3  C   UNL     1      -3.983  -4.769  -0.094  0.00  0.00    -0.031 C 
ATOM      4  C   UNL     1      -4.291  -4.666  -1.587  0.00  0.00    +0.062 C 
ATOM      5  C   UNL     1      -4.112  -3.251  -2.064  0.00  0.00    +0.048 A 
ATOM      6  C   UNL     1      -3.399  -2.315  -1.352  0.00  0.00    -0.022 A 
ATOM      7  C   UNL     1      -3.280  -1.034  -1.878  0.00  0.00    +0.118 A 
ATOM      8  N   UNL     1      -3.849  -0.753  -3.037  0.00  0.00    -0.223 NA
ATOM      9  C   UNL     1      -4.528  -1.680  -3.696  0.00  0.00    +0.213 A 
ATOM     10  N   UNL     1      -4.663  -2.898  -3.220  0.00  0.00    -0.219 NA
ATOM     11  N   UNL     1      -5.116  -1.355  -4.907  0.00  0.00    -0.327 N 
ATOM     12  C   UNL     1      -5.060  -4.032   0.705  0.00  0.00    +0.011 C 
ATOM     13  C   UNL     1      -3.946  -6.241   0.324  0.00  0.00    +0.011 C 
ATOM     14  H   UNL     1      -5.028  -0.458  -5.263  0.00  0.00    +0.145 HD
ATOM     15  H   UNL     1      -5.616  -2.026  -5.398  0.00  0.00    +0.145 HD
ENDROOT
BRANCH   1  16
ATOM     16  N   UNL     1      -1.413  -2.002   0.005  0.00  0.00    +0.384 N 
ATOM     17  H   UNL     1      -1.490  -1.018  -0.201  0.00  0.00    -0.085 HD
ATOM     18  H   UNL     1      -0.823  -2.445  -0.683  0.00  0.00    -0.085 HD
BRANCH  16  19
ATOM     19  C   UNL     1      -0.828  -2.179   1.340  0.00  0.00    -0.082 C 
BRANCH  19  21
ATOM     20  C   UNL     1       1.114  -1.615   2.807  0.00  0.00    +0.002 C 
ATOM     21  C   UNL     1       0.504  -1.431   1.416  0.00  0.00    -0.022 C 
ENDBRANCH  19  21
ENDBRANCH  16  19
ENDBRANCH   1  16
TORSDOF 3
