REMARK  Name = ZINC05191587
REMARK  7 active torsions:
REMARK  status: ('A' for Active; 'I' for Inactive)
REMARK    1  A    between atoms: C_1  and  C_2
REMARK    2  A    between atoms: C_2  and  N_46
REMARK    3  A    between atoms: C_8  and  N_13
REMARK    4  A    between atoms: C_9  and  C_10
REMARK    5  A    between atoms: C_14  and  C_16
REMARK    6  A    between atoms: C_16  and  S_17
REMARK    7  A    between atoms: S_17  and  C_18
REMARK                            x       y       z     vdW  Elec       q    Type
REMARK                         _______ _______ _______ _____ _____    ______ ____
ROOT
ATOM      1  C   UNL     1       5.986  12.333  -0.433  0.00  0.00    -0.074 C 
ATOM      2  C   UNL     1       6.534  10.968  -0.006  0.00  0.00    +0.018 C 
ATOM      3  C   UNL     1       5.379   9.974   0.002  0.00  0.00    -0.027 A 
ATOM      4  C   UNL     1       4.101  10.418   0.017  0.00  0.00    -0.021 A 
ATOM      5  S   UNL     1       3.114   8.950   0.019  0.00  0.00    -0.079 S 
ATOM      6  C   UNL     1       4.377   7.763   0.001  0.00  0.00    +0.084 A 
ATOM      7  C   UNL     1       5.534   8.531  -0.001  0.00  0.00    +0.068 A 
ATOM      8  C   UNL     1       3.658  11.847   0.031  0.00  0.00    -0.035 C 
ATOM      9  N   UNL     1       4.824  12.681   0.411  0.00  0.00    +0.383 N 
ATOM     10  H   UNL     1       5.059  12.498   1.394  0.00  0.00    -0.081 HD
ENDROOT
BRANCH   7  11
ATOM     11  C   UNL     1       6.861   7.908  -0.009  0.00  0.00    +0.244 C 
ATOM     12  O   UNL     1       7.408   7.655  -1.066  0.00  0.00    -0.270 OA
ATOM     13  N   UNL     1       7.475   7.616   1.155  0.00  0.00    -0.325 N 
ATOM     14  H   UNL     1       7.039   7.819   1.998  0.00  0.00    +0.145 HD
ATOM     15  H   UNL     1       8.353   7.204   1.150  0.00  0.00    +0.145 HD
ENDBRANCH   7  11
BRANCH   6  16
ATOM     16  N   UNL     1       4.260   6.382  -0.005  0.00  0.00    -0.279 N 
ATOM     17  C   UNL     1       3.040   5.809   0.003  0.00  0.00    +0.228 C 
ATOM     18  O   UNL     1       2.045   6.501   0.016  0.00  0.00    -0.275 OA
ATOM     19  H   UNL     1       5.056   5.828  -0.015  0.00  0.00    +0.155 HD
BRANCH  17  20
ATOM     20  C   UNL     1       2.913   4.307  -0.003  0.00  0.00    +0.170 C 
BRANCH  20  21
ATOM     21  S   UNL     1       1.158   3.848   0.011  0.00  0.00    -0.116 S 
BRANCH  21  22
ATOM     22  C   UNL     1       1.178   2.086   0.002  0.00  0.00    +0.008 A 
ATOM     23  C   UNL     1      -0.017   1.377   0.010  0.00  0.00    +0.016 A 
ATOM     24  C   UNL     1       0.002  -0.004   0.002  0.00  0.00    +0.021 A 
ATOM     25  C   UNL     1       1.209  -0.681  -0.013  0.00  0.00    +0.041 A 
ATOM     26  C   UNL     1       2.401   0.023  -0.020  0.00  0.00    +0.021 A 
ATOM     27  C   UNL     1       2.388   1.404  -0.013  0.00  0.00    +0.016 A 
ATOM     28 CL   UNL     1       1.228  -2.417  -0.021  0.00  0.00    -0.084 Cl
ENDBRANCH  21  22
ENDBRANCH  20  21
ENDBRANCH  17  20
ENDBRANCH   6  16
BRANCH   9  30
ATOM     29  C   UNL     1       4.242  14.445  -1.218  0.00  0.00    -0.017 C 
ATOM     30  C   UNL     1       4.495  14.114   0.254  0.00  0.00    -0.082 C 
ENDBRANCH   9  30
TORSDOF 6
