REMARK  Name = ZINC43218900
REMARK  9 active torsions:
REMARK  status: ('A' for Active; 'I' for Inactive)
REMARK    1  A    between atoms: C_1  and  C_2
REMARK    2  A    between atoms: C_2  and  C_4
REMARK    3  A    between atoms: C_7  and  N_10
REMARK    4  A    between atoms: C_15  and  C_32
REMARK    5  A    between atoms: C_18  and  C_23
REMARK    6  A    between atoms: C_18  and  C_29
REMARK    7  A    between atoms: C_36  and  O_39
REMARK    8  A    between atoms: C_37  and  O_38
REMARK    9  A    between atoms: O_39  and  C_40
REMARK                            x       y       z     vdW  Elec       q    Type
REMARK                         _______ _______ _______ _____ _____    ______ ____
ROOT
ATOM      1  N   UNL     1      -5.646  -2.509   0.290  0.00  0.00    -0.210 N 
ATOM      2  C   UNL     1      -6.989  -2.227   0.329  0.00  0.00    +0.229 C 
ATOM      3  O   UNL     1      -7.523  -1.147   0.198  0.00  0.00    -0.275 OA
ATOM      4  C   UNL     1      -7.624  -3.504   0.560  0.00  0.00    +0.078 C 
ATOM      5  C   UNL     1      -8.938  -4.149   0.435  0.00  0.00    -0.023 C 
ATOM      6  N   UNL     1      -8.634  -5.618   0.452  0.00  0.00    +0.398 N 
ATOM      7  C   UNL     1      -7.142  -5.769   0.461  0.00  0.00    +0.074 C 
ATOM      8  C   UNL     1      -6.683  -4.479  -0.254  0.00  0.00    +0.090 C 
ATOM      9  C   UNL     1      -5.390  -3.847   0.181  0.00  0.00    +0.229 C 
ATOM     10  O   UNL     1      -4.338  -4.409   0.394  0.00  0.00    -0.275 OA
ATOM     11  H   UNL     1      -9.025  -6.039   1.280  0.00  0.00    -0.083 HD
ATOM     12  H   UNL     1      -9.017  -6.056  -0.372  0.00  0.00    -0.083 HD
ENDROOT
BRANCH   1  16
ATOM     13  C   UNL     1      -2.669   0.403   0.469  0.00  0.00    +0.017 A 
ATOM     14  C   UNL     1      -4.018   0.774   0.520  0.00  0.00    +0.013 A 
ATOM     15  C   UNL     1      -4.998  -0.191   0.460  0.00  0.00    +0.024 A 
ATOM     16  C   UNL     1      -4.649  -1.533   0.350  0.00  0.00    +0.044 A 
ATOM     17  C   UNL     1      -3.309  -1.907   0.298  0.00  0.00    +0.024 A 
ATOM     18  C   UNL     1      -2.323  -0.948   0.351  0.00  0.00    +0.013 A 
BRANCH  13  20
ATOM     19  C   UNL     1      -1.995   2.884   0.659  0.00  0.00    +0.091 C 
ATOM     20  C   UNL     1      -1.620   1.430   0.533  0.00  0.00    +0.160 C 
ATOM     21  O   UNL     1      -0.452   1.107   0.483  0.00  0.00    -0.292 OA
ENDBRANCH  13  20
ENDBRANCH   1  16
BRANCH   7  22
ATOM     22  C   UNL     1      -6.621  -5.840   1.873  0.00  0.00    -0.047 A 
ATOM     23  C   UNL     1      -7.447  -5.511   2.932  0.00  0.00    +0.003 A 
ATOM     24  C   UNL     1      -6.968  -5.576   4.227  0.00  0.00    +0.000 A 
ATOM     25  C   UNL     1      -5.665  -5.971   4.464  0.00  0.00    +0.000 A 
ATOM     26  C   UNL     1      -4.840  -6.300   3.405  0.00  0.00    +0.000 A 
ATOM     27  C   UNL     1      -5.319  -6.239   2.110  0.00  0.00    +0.003 A 
ENDBRANCH   7  22
BRANCH   5  28
ATOM     28  C   UNL     1      -9.595  -3.759  -0.864  0.00  0.00    -0.015 A 
ATOM     29  C   UNL     1      -9.411  -4.537  -1.993  0.00  0.00    +0.006 A 
ATOM     30  C   UNL     1     -10.012  -4.182  -3.186  0.00  0.00    +0.004 A 
ATOM     31  C   UNL     1     -10.800  -3.047  -3.256  0.00  0.00    +0.049 A 
ATOM     32  C   UNL     1     -10.989  -2.264  -2.129  0.00  0.00    +0.161 A 
ATOM     33  C   UNL     1     -10.388  -2.625  -0.926  0.00  0.00    +0.160 A 
BRANCH  33  34
ATOM     34  O   UNL     1     -10.575  -1.862   0.184  0.00  0.00    -0.503 OA
ATOM     35  H   UNL     1      -9.921  -1.158   0.292  0.00  0.00    +0.292 HD
ENDBRANCH  33  34
BRANCH  32  36
ATOM     36  O   UNL     1     -11.763  -1.148  -2.196  0.00  0.00    -0.491 OA
ATOM     37  C   UNL     1     -12.352  -0.843  -3.462  0.00  0.00    +0.277 C 
ENDBRANCH  32  36
ENDBRANCH   5  28
BRANCH   7  38
ATOM     38  C   UNL     1      -6.724  -6.984  -0.327  0.00  0.00    +0.350 C 
ATOM     39  O   UNL     1      -7.568  -7.699  -0.838  0.00  0.00    -0.248 OA
ATOM     40  O   UNL     1      -5.541  -7.252  -0.452  0.00  0.00    -0.248 OA
ENDBRANCH   7  38
TORSDOF 7
