REMARK  Name = ZINC21322687
REMARK  13 active torsions:
REMARK  status: ('A' for Active; 'I' for Inactive)
REMARK    1  A    between atoms: C_1  and  C_2
REMARK    2  A    between atoms: C_2  and  C_3
REMARK    3  A    between atoms: C_3  and  C_5
REMARK    4  A    between atoms: C_3  and  C_6
REMARK    5  A    between atoms: C_9  and  N_12
REMARK    6  A    between atoms: C_13  and  C_15
REMARK    7  A    between atoms: C_15  and  S_16
REMARK    8  A    between atoms: S_16  and  C_17
REMARK    9  A    between atoms: N_21  and  N_22
REMARK   10  A    between atoms: N_23  and  N_24
REMARK   11  A    between atoms: C_25  and  C_26
REMARK   12  A    between atoms: C_25  and  C_28
REMARK   13  A    between atoms: C_26  and  C_27
REMARK                            x       y       z     vdW  Elec       q    Type
REMARK                         _______ _______ _______ _____ _____    ______ ____
ROOT
ATOM      1  C   UNL     1       0.895   0.763   1.054  0.00  0.00    +0.210 A 
ATOM      2  N   UNL     1       2.184   0.838   1.288  0.00  0.00    -0.119 NA
ATOM      3  N   UNL     1       2.734  -0.435   1.090  0.00  0.00    -0.109 NA
ATOM      4  C   UNL     1       1.765  -1.246   0.742  0.00  0.00    +0.254 A 
ATOM      5  N   UNL     1       0.603  -0.526   0.710  0.00  0.00    -0.211 N 
ATOM      6  N   UNL     1       1.895  -2.597   0.455  0.00  0.00    -0.204 N 
ATOM      7  H   UNL     1       1.010  -3.187   0.172  0.00  0.00    +0.178 HD
ENDROOT
BRANCH   5   8
ATOM      8  N   UNL     1      -0.634  -1.010   0.391  0.00  0.00    -0.294 N 
ATOM      9  H   UNL     1      -0.757  -2.071   0.127  0.00  0.00    +0.163 HD
ATOM     10  H   UNL     1      -1.506  -0.340   0.396  0.00  0.00    +0.163 HD
ENDBRANCH   5   8
BRANCH   6  11
ATOM     11  N   UNL     1       3.152  -3.211   0.527  0.00  0.00    -0.184 NA
ATOM     12  C   UNL     1       3.258  -4.495   0.370  0.00  0.00    +0.066 C 
BRANCH  12  13
ATOM     13  C   UNL     1       2.046  -5.329   0.277  0.00  0.00    -0.002 A 
ATOM     14  C   UNL     1       1.970  -6.355  -0.668  0.00  0.00    +0.010 A 
ATOM     15  C   UNL     1       0.834  -7.134  -0.746  0.00  0.00    +0.001 A 
ATOM     16  C   UNL     1      -0.233  -6.894   0.102  0.00  0.00    +0.000 A 
ATOM     17  C   UNL     1      -0.167  -5.877   1.038  0.00  0.00    +0.001 A 
ATOM     18  C   UNL     1       0.965  -5.093   1.130  0.00  0.00    +0.010 A 
ENDBRANCH  12  13
BRANCH  12  19
ATOM     19  C   UNL     1       4.620  -5.134   0.282  0.00  0.00    +0.054 C 
ATOM     20  C   UNL     1       5.092  -5.525   1.684  0.00  0.00    +0.010 C 
ENDBRANCH  12  19
ENDBRANCH   6  11
BRANCH   1  21
ATOM     21  S   UNL     1      -0.255   2.094   1.157  0.00  0.00    -0.075 S 
BRANCH  21  22
ATOM     22  C   UNL     1       0.760   3.513   1.655  0.00  0.00    +0.173 C 
BRANCH  22  24
ATOM     23  N   UNL     1       0.428   5.915   2.144  0.00  0.00    -0.285 N 
ATOM     24  C   UNL     1      -0.113   4.735   1.782  0.00  0.00    +0.227 C 
ATOM     25  O   UNL     1      -1.303   4.656   1.558  0.00  0.00    -0.275 OA
ATOM     26  H   UNL     1       1.497   5.976   2.395  0.00  0.00    +0.155 HD
BRANCH  23  30
ATOM     27  C   UNL     1      -1.950   9.332   2.311  0.00  0.00    -0.044 A 
ATOM     28  C   UNL     1      -2.471   8.110   2.693  0.00  0.00    +0.006 A 
ATOM     29  C   UNL     1      -1.685   6.975   2.639  0.00  0.00    +0.023 A 
ATOM     30  C   UNL     1      -0.371   7.063   2.200  0.00  0.00    +0.033 A 
ATOM     31  C   UNL     1       0.151   8.293   1.822  0.00  0.00    +0.023 A 
ATOM     32  C   UNL     1      -0.641   9.423   1.873  0.00  0.00    +0.006 A 
BRANCH  27  33
ATOM     33  C   UNL     1      -2.809  10.569   2.371  0.00  0.00    +0.016 C 
ATOM     34  C   UNL     1      -2.172  11.588   3.318  0.00  0.00    +0.012 C 
BRANCH  33  36
ATOM     35  C   UNL     1      -3.900  12.357   1.010  0.00  0.00    +0.004 C 
ATOM     36  C   UNL     1      -2.928  11.176   0.972  0.00  0.00    +0.004 C 
ENDBRANCH  33  36
ENDBRANCH  27  33
ENDBRANCH  23  30
ENDBRANCH  22  24
ENDBRANCH  21  22
ENDBRANCH   1  21
TORSDOF 10
