REMARK  Name = ZINC09345141
REMARK  12 active torsions:
REMARK  status: ('A' for Active; 'I' for Inactive)
REMARK    1  A    between atoms: C_1  and  C_2
REMARK    2  A    between atoms: C_2  and  C_3
REMARK    3  A    between atoms: C_2  and  C_4
REMARK    4  A    between atoms: C_2  and  O_29
REMARK    5  A    between atoms: N_6  and  C_7
REMARK    6  A    between atoms: C_15  and  C_16
REMARK    7  A    between atoms: N_18  and  C_19
REMARK    8  A    between atoms: C_22  and  O_27
REMARK    9  A    between atoms: C_24  and  O_25
REMARK   10  A    between atoms: O_25  and  C_26
REMARK   11  A    between atoms: O_27  and  C_28
REMARK   12  A    between atoms: O_29  and  C_30
REMARK                            x       y       z     vdW  Elec       q    Type
REMARK                         _______ _______ _______ _____ _____    ______ ____
ROOT
ATOM      1  C   UNL     1       3.164   1.472  -0.872  0.00  0.00    +0.092 A 
ATOM      2  C   UNL     1       3.892   0.207  -1.023  0.00  0.00    +0.042 A 
ATOM      3  C   UNL     1       5.244  -0.133  -1.097  0.00  0.00    +0.013 A 
ATOM      4  C   UNL     1       5.606  -1.442  -1.248  0.00  0.00    +0.001 A 
ATOM      5  C   UNL     1       4.639  -2.434  -1.329  0.00  0.00    +0.004 A 
ATOM      6  C   UNL     1       3.299  -2.119  -1.259  0.00  0.00    +0.047 A 
ATOM      7  C   UNL     1       2.907  -0.793  -1.104  0.00  0.00    +0.138 A 
ATOM      8  O   UNL     1       1.703  -0.195  -1.007  0.00  0.00    -0.448 OA
ATOM      9  C   UNL     1       1.837   1.143  -0.866  0.00  0.00    +0.212 A 
ENDROOT
BRANCH   1  12
ATOM     10  C   UNL     1       4.872   2.922  -0.095  0.00  0.00    +0.261 C 
ATOM     11  O   UNL     1       5.490   1.961   0.314  0.00  0.00    -0.271 OA
ATOM     12  N   UNL     1       3.712   2.745  -0.757  0.00  0.00    -0.279 N 
ATOM     13  H   UNL     1       3.259   3.506  -1.153  0.00  0.00    +0.155 HD
BRANCH  10  15
ATOM     14  C   UNL     1       5.637   5.002  -1.208  0.00  0.00    +0.065 C 
ATOM     15  C   UNL     1       5.403   4.313   0.138  0.00  0.00    +0.180 C 
ATOM     16  C   UNL     1       4.387   5.117   0.952  0.00  0.00    +0.065 C 
BRANCH  15  17
ATOM     17  O   UNL     1       6.636   4.239   0.856  0.00  0.00    -0.477 OA
BRANCH  17  18
ATOM     18  C   UNL     1       7.659   3.574   0.257  0.00  0.00    +0.122 A 
ATOM     19  C   UNL     1       7.442   2.889  -0.929  0.00  0.00    +0.047 A 
ATOM     20  C   UNL     1       8.485   2.217  -1.539  0.00  0.00    +0.023 A 
ATOM     21  C   UNL     1       9.742   2.219  -0.961  0.00  0.00    +0.041 A 
ATOM     22  C   UNL     1       9.959   2.898   0.225  0.00  0.00    +0.023 A 
ATOM     23  C   UNL     1       8.921   3.575   0.835  0.00  0.00    +0.047 A 
ATOM     24 CL   UNL     1      11.049   1.370  -1.726  0.00  0.00    -0.084 Cl
ENDBRANCH  17  18
ENDBRANCH  15  17
ENDBRANCH  10  15
ENDBRANCH   1  12
BRANCH   9  25
ATOM     25  C   UNL     1       0.733   2.091  -0.733  0.00  0.00    +0.286 C 
ATOM     26  O   UNL     1       0.958   3.287  -0.703  0.00  0.00    -0.266 OA
ATOM     27  N   UNL     1      -0.535   1.641  -0.643  0.00  0.00    -0.276 N 
ATOM     28  H   UNL     1      -0.720   0.694  -0.731  0.00  0.00    +0.155 HD
BRANCH  27  29
ATOM     29  C   UNL     1      -1.585   2.545  -0.428  0.00  0.00    +0.076 A 
ATOM     30  C   UNL     1      -1.519   3.825  -0.958  0.00  0.00    +0.030 A 
ATOM     31  C   UNL     1      -2.555   4.716  -0.746  0.00  0.00    +0.047 A 
ATOM     32  C   UNL     1      -3.662   4.331  -0.005  0.00  0.00    +0.124 A 
ATOM     33  C   UNL     1      -3.733   3.052   0.527  0.00  0.00    +0.093 A 
ATOM     34  C   UNL     1      -2.700   2.156   0.312  0.00  0.00    +0.145 A 
BRANCH  34  35
ATOM     35  O   UNL     1      -2.770   0.899   0.827  0.00  0.00    -0.493 OA
ATOM     36  C   UNL     1      -3.941   0.569   1.575  0.00  0.00    +0.277 C 
ENDBRANCH  34  35
BRANCH  32  37
ATOM     37  O   UNL     1      -4.680   5.209   0.201  0.00  0.00    -0.495 OA
ATOM     38  C   UNL     1      -4.541   6.510  -0.375  0.00  0.00    +0.277 C 
ENDBRANCH  32  37
ENDBRANCH  27  29
ENDBRANCH   9  25
TORSDOF 8
