REMARK  Name = ZINC40162244
REMARK  7 active torsions:
REMARK  status: ('A' for Active; 'I' for Inactive)
REMARK    1  A    between atoms: C_1  and  C_2
REMARK    2  A    between atoms: C_2  and  C_4
REMARK    3  A    between atoms: C_2  and  N_16
REMARK    4  A    between atoms: N_6  and  C_7
REMARK    5  A    between atoms: C_10  and  C_13
REMARK    6  A    between atoms: N_19  and  C_22
REMARK    7  A    between atoms: C_22  and  C_23
REMARK                            x       y       z     vdW  Elec       q    Type
REMARK                         _______ _______ _______ _____ _____    ______ ____
ROOT
ATOM      1  C   UNL     1      -0.369   1.752   0.009  0.00  0.00    -0.004 C 
ATOM      2  C   UNL     1      -0.042   0.263  -0.116  0.00  0.00    +0.017 C 
ENDROOT
BRANCH   2   3
ATOM      3  N   UNL     1      -1.257  -0.475  -0.486  0.00  0.00    +0.389 N 
ATOM      4  C   UNL     1      -1.737  -0.004  -1.792  0.00  0.00    -0.062 C 
ATOM      5  C   UNL     1      -3.013  -0.759  -2.170  0.00  0.00    +0.066 C 
ATOM      6  N   UNL     1      -2.728  -2.200  -2.225  0.00  0.00    -0.301 NA
ATOM      7  C   UNL     1      -2.223  -2.682  -0.932  0.00  0.00    +0.066 C 
ATOM      8  C   UNL     1      -0.953  -1.910  -0.564  0.00  0.00    -0.062 C 
ATOM      9  H   UNL     1      -1.971  -0.320   0.210  0.00  0.00    -0.081 HD
BRANCH   6  10
ATOM     10  C   UNL     1      -3.917  -2.956  -2.641  0.00  0.00    +0.126 C 
BRANCH  10  11
ATOM     11  C   UNL     1      -3.530  -4.385  -2.923  0.00  0.00    +0.005 A 
ATOM     12  C   UNL     1      -3.508  -5.445  -2.080  0.00  0.00    +0.014 A 
ATOM     13  C   UNL     1      -3.113  -6.679  -2.563  0.00  0.00    +0.028 A 
ATOM     14  C   UNL     1      -2.759  -6.790  -3.868  0.00  0.00    +0.078 A 
ATOM     15  S   UNL     1      -2.989  -5.121  -4.457  0.00  0.00    -0.080 S 
ATOM     16 CL   UNL     1      -2.228  -8.194  -4.741  0.00  0.00    -0.076 Cl
ENDBRANCH  10  11
ENDBRANCH   6  10
ENDBRANCH   2   3
BRANCH   2  17
ATOM     17  C   UNL     1       0.474  -0.251   1.204  0.00  0.00    +0.203 C 
ATOM     18  O   UNL     1      -0.296  -0.717   2.017  0.00  0.00    -0.277 OA
ATOM     19  N   UNL     1       1.792  -0.192   1.480  0.00  0.00    -0.287 N 
ATOM     20  H   UNL     1       2.399   0.243   0.861  0.00  0.00    +0.155 HD
BRANCH  19  21
ATOM     21  C   UNL     1       2.284  -0.757   2.657  0.00  0.00    +0.033 A 
ATOM     22  C   UNL     1       1.693  -1.905   3.175  0.00  0.00    +0.024 A 
ATOM     23  C   UNL     1       2.176  -2.466   4.336  0.00  0.00    +0.015 A 
ATOM     24  C   UNL     1       3.260  -1.879   4.994  0.00  0.00    +0.037 A 
ATOM     25  C   UNL     1       3.851  -0.726   4.471  0.00  0.00    +0.015 A 
ATOM     26  C   UNL     1       3.366  -0.174   3.307  0.00  0.00    +0.024 A 
BRANCH  24  27
ATOM     27  C   UNL     1       3.780  -2.477   6.240  0.00  0.00    +0.242 C 
ATOM     28  O   UNL     1       3.265  -3.480   6.694  0.00  0.00    -0.270 OA
ATOM     29  N   UNL     1       4.826  -1.910   6.874  0.00  0.00    -0.325 N 
ATOM     30  H   UNL     1       5.237  -1.110   6.512  0.00  0.00    +0.145 HD
ATOM     31  H   UNL     1       5.167  -2.303   7.692  0.00  0.00    +0.145 HD
ENDBRANCH  24  27
ENDBRANCH  19  21
ENDBRANCH   2  17
TORSDOF 6
