REMARK  Name = ZINC13765703
REMARK  5 active torsions:
REMARK  status: ('A' for Active; 'I' for Inactive)
REMARK    1  A    between atoms: C_3  and  C_10
REMARK    2  A    between atoms: C_5  and  N_7
REMARK    3  A    between atoms: C_10  and  O_30
REMARK    4  A    between atoms: N_19  and  C_20
REMARK    5  A    between atoms: C_24  and  C_26
REMARK                            x       y       z     vdW  Elec       q    Type
REMARK                         _______ _______ _______ _____ _____    ______ ____
ROOT
ATOM      1  C   UNL     1       0.047  -0.211   0.153  0.00  0.00    +0.182 C 
ATOM      2  C   UNL     1       0.749  -0.616  -1.165  0.00  0.00    +0.177 C 
ATOM      3  N   UNL     1      -0.243  -1.496  -1.778  0.00  0.00    -0.357 N 
ATOM      4  C   UNL     1      -0.071  -2.550  -2.767  0.00  0.00    +0.117 C 
ATOM      5  C   UNL     1      -0.667  -2.204  -4.109  0.00  0.00    +0.021 C 
ATOM      6  C   UNL     1      -2.181  -2.288  -4.177  0.00  0.00    +0.002 C 
ATOM      7  C   UNL     1      -2.792  -1.199  -3.289  0.00  0.00    +0.007 C 
ATOM      8  C   UNL     1      -2.766  -1.681  -1.832  0.00  0.00    +0.070 C 
ATOM      9  C   UNL     1      -1.482  -1.222  -1.199  0.00  0.00    +0.080 C 
ATOM     10  N   UNL     1      -1.363  -0.542  -0.104  0.00  0.00    -0.256 N 
ENDROOT
BRANCH   1  13
ATOM     11  C   UNL     1       0.534  -2.990   2.663  0.00  0.00    +0.003 A 
ATOM     12  C   UNL     1       0.042  -2.252   1.602  0.00  0.00    +0.008 A 
ATOM     13  C   UNL     1       0.584  -1.015   1.310  0.00  0.00    +0.006 A 
ATOM     14  C   UNL     1       1.621  -0.516   2.075  0.00  0.00    +0.041 A 
ATOM     15  C   UNL     1       2.110  -1.251   3.139  0.00  0.00    +0.127 A 
ATOM     16  C   UNL     1       1.568  -2.489   3.431  0.00  0.00    +0.033 A 
BRANCH  15  17
ATOM     17  N   UNL     1       3.218  -0.715   3.962  0.00  0.00    +0.056 N 
ATOM     18  O   UNL     1       3.652  -1.365   4.896  0.00  0.00    -0.126 OA
ATOM     19  O   UNL     1       3.695   0.375   3.704  0.00  0.00    -0.126 OA
ENDBRANCH  15  17
ENDBRANCH   1  13
BRANCH  10  20
ATOM     20  C   UNL     1      -2.409  -0.179   0.707  0.00  0.00    +0.038 A 
ATOM     21  C   UNL     1      -2.763   1.165   0.834  0.00  0.00    +0.023 A 
ATOM     22  C   UNL     1      -3.816   1.523   1.650  0.00  0.00    +0.002 A 
ATOM     23  C   UNL     1      -4.521   0.553   2.341  0.00  0.00    +0.012 A 
ATOM     24  C   UNL     1      -4.174  -0.780   2.220  0.00  0.00    +0.057 A 
ATOM     25  C   UNL     1      -3.126  -1.152   1.403  0.00  0.00    +0.036 A 
BRANCH  24  26
ATOM     26  C   UNL     1      -4.947  -1.830   2.976  0.00  0.00    +0.417 C 
ATOM     27  F   UNL     1      -5.956  -1.216   3.725  0.00  0.00    -0.166 F 
ATOM     28  F   UNL     1      -5.520  -2.730   2.071  0.00  0.00    -0.166 F 
ATOM     29  F   UNL     1      -4.082  -2.518   3.834  0.00  0.00    -0.166 F 
ENDBRANCH  24  26
ENDBRANCH  10  20
BRANCH   1  30
ATOM     30  O   UNL     1       0.201   1.188   0.398  0.00  0.00    -0.366 OA
ATOM     31  H   UNL     1      -0.140   1.918  -0.350  0.00  0.00    +0.212 HD
ENDBRANCH   1  30
TORSDOF 5
