REMARK  Name = ZINC63746330
REMARK  8 active torsions:
REMARK  status: ('A' for Active; 'I' for Inactive)
REMARK    1  A    between atoms: C_1  and  C_2
REMARK    2  A    between atoms: C_5  and  C_32
REMARK    3  A    between atoms: C_6  and  C_22
REMARK    4  A    between atoms: C_10  and  N_12
REMARK    5  A    between atoms: N_15  and  C_16
REMARK    6  A    between atoms: N_24  and  C_25
REMARK    7  A    between atoms: C_25  and  C_26
REMARK    8  A    between atoms: C_26  and  C_27
REMARK                            x       y       z     vdW  Elec       q    Type
REMARK                         _______ _______ _______ _____ _____    ______ ____
ROOT
ATOM      1  C   UNL     1      -0.882   1.422  -0.122  0.00  0.00    +0.044 C 
ATOM      2  C   UNL     1      -0.665  -0.069  -0.093  0.00  0.00    -0.048 A 
ATOM      3  C   UNL     1      -0.599  -0.741  -1.266  0.00  0.00    +0.013 A 
ATOM      4  C   UNL     1      -0.396  -2.142  -1.278  0.00  0.00    +0.006 A 
ATOM      5  C   UNL     1      -0.290  -3.066  -2.303  0.00  0.00    -0.000 C 
ATOM      6  C   UNL     1      -0.078  -4.403  -1.629  0.00  0.00    +0.198 C 
ATOM      7  N   UNL     1      -0.077  -4.134  -0.187  0.00  0.00    -0.368 N 
ATOM      8  C   UNL     1      -0.258  -2.850   0.010  0.00  0.00    +0.065 A 
ATOM      9  C   UNL     1      -0.340  -2.049   1.242  0.00  0.00    +0.059 A 
ATOM     10  C   UNL     1      -0.533  -0.707   1.144  0.00  0.00    +0.028 A 
ATOM     11  H   UNL     1       0.038  -4.799   0.509  0.00  0.00    +0.161 HD
ENDROOT
BRANCH   9  12
ATOM     12  N   UNL     1      -0.217  -2.659   2.494  0.00  0.00    -0.267 N 
ATOM     13  C   UNL     1       0.208  -1.943   3.554  0.00  0.00    +0.308 C 
ATOM     14  O   UNL     1       0.585  -0.797   3.401  0.00  0.00    -0.252 OA
ATOM     15  N   UNL     1       0.214  -2.497   4.782  0.00  0.00    -0.269 N 
ATOM     16  H   UNL     1      -0.438  -3.598   2.600  0.00  0.00    +0.156 HD
ATOM     17  H   UNL     1      -0.013  -3.433   4.894  0.00  0.00    +0.156 HD
BRANCH  15  18
ATOM     18  C   UNL     1       0.548  -1.721   5.898  0.00  0.00    +0.035 A 
ATOM     19  C   UNL     1       1.248  -2.287   6.955  0.00  0.00    +0.023 A 
ATOM     20  C   UNL     1       1.576  -1.518   8.055  0.00  0.00    +0.002 A 
ATOM     21  C   UNL     1       1.208  -0.186   8.104  0.00  0.00    +0.000 A 
ATOM     22  C   UNL     1       0.511   0.381   7.053  0.00  0.00    +0.002 A 
ATOM     23  C   UNL     1       0.185  -0.381   5.947  0.00  0.00    +0.023 A 
ENDBRANCH  15  18
ENDBRANCH   9  12
BRANCH   5  24
ATOM     24  C   UNL     1      -0.368  -2.803  -3.741  0.00  0.00    -0.019 A 
ATOM     25  C   UNL     1      -0.038  -1.537  -4.246  0.00  0.00    +0.008 A 
ATOM     26  C   UNL     1      -0.114  -1.299  -5.601  0.00  0.00    +0.001 A 
ATOM     27  C   UNL     1      -0.515  -2.305  -6.464  0.00  0.00    +0.000 A 
ATOM     28  C   UNL     1      -0.844  -3.558  -5.974  0.00  0.00    +0.001 A 
ATOM     29  C   UNL     1      -0.768  -3.817  -4.623  0.00  0.00    +0.008 A 
ENDBRANCH   5  24
BRANCH   6  30
ATOM     30  C   UNL     1       1.245  -4.992  -2.049  0.00  0.00    +0.240 C 
ATOM     31  O   UNL     1       2.187  -4.971  -1.286  0.00  0.00    -0.273 OA
ATOM     32  N   UNL     1       1.380  -5.541  -3.272  0.00  0.00    -0.313 N 
ATOM     33  H   UNL     1       0.649  -5.494  -3.908  0.00  0.00    +0.149 HD
BRANCH  32  34
ATOM     34  C   UNL     1       2.631  -6.208  -3.642  0.00  0.00    +0.112 C 
BRANCH  34  35
ATOM     35  C   UNL     1       2.522  -6.739  -5.072  0.00  0.00    +0.093 C 
BRANCH  35  36
ATOM     36  C   UNL     1       3.808  -7.426  -5.452  0.00  0.00    +0.106 A 
ATOM     37  C   UNL     1       4.086  -8.730  -5.275  0.00  0.00    +0.044 A 
ATOM     38  C   UNL     1       5.394  -8.941  -5.770  0.00  0.00    +0.041 A 
ATOM     39  C   UNL     1       5.836  -7.753  -6.221  0.00  0.00    +0.195 A 
ATOM     40  O   UNL     1       4.870  -6.840  -6.031  0.00  0.00    -0.468 OA
ENDBRANCH  35  36
ENDBRANCH  34  35
ENDBRANCH  32  34
ENDBRANCH   6  30
TORSDOF 7
