REMARK  Name = ZINC63974412
REMARK  8 active torsions:
REMARK  status: ('A' for Active; 'I' for Inactive)
REMARK    1  A    between atoms: C_1  and  C_2
REMARK    2  A    between atoms: C_2  and  C_3
REMARK    3  A    between atoms: C_2  and  C_4
REMARK    4  A    between atoms: C_2  and  C_5
REMARK    5  A    between atoms: C_8  and  C_11
REMARK    6  A    between atoms: C_15  and  S_29
REMARK    7  A    between atoms: N_17  and  N_18
REMARK    8  A    between atoms: C_19  and  C_20
REMARK                            x       y       z     vdW  Elec       q    Type
REMARK                         _______ _______ _______ _____ _____    ______ ____
ROOT
ATOM      1  C   UNL     1       3.045  -2.458  -4.674  0.00  0.00    +0.206 C 
ATOM      2  N   UNL     1       2.774  -3.886  -4.954  0.00  0.00    -0.229 NA
ATOM      3  N   UNL     1       4.080  -4.436  -5.352  0.00  0.00    -0.225 NA
ATOM      4  C   UNL     1       5.028  -3.725  -4.454  0.00  0.00    +0.231 C 
ATOM      5  N   UNL     1       4.480  -2.356  -4.356  0.00  0.00    -0.205 N 
ATOM      6  H   UNL     1       2.419  -4.354  -4.133  0.00  0.00    +0.143 HD
ATOM      7  H   UNL     1       4.114  -5.432  -5.199  0.00  0.00    +0.143 HD
ENDROOT
BRANCH   1  11
ATOM      8  C   UNL     1       0.713  -1.151  -1.342  0.00  0.00    -0.042 A 
ATOM      9  C   UNL     1       0.220  -2.123  -2.192  0.00  0.00    +0.004 A 
ATOM     10  C   UNL     1       0.975  -2.546  -3.271  0.00  0.00    +0.007 A 
ATOM     11  C   UNL     1       2.222  -1.996  -3.499  0.00  0.00    -0.010 A 
ATOM     12  C   UNL     1       2.715  -1.024  -2.650  0.00  0.00    +0.007 A 
ATOM     13  C   UNL     1       1.958  -0.598  -1.574  0.00  0.00    +0.004 A 
BRANCH   8  15
ATOM     14  C   UNL     1      -0.389   0.808  -0.296  0.00  0.00    +0.015 C 
ATOM     15  C   UNL     1      -0.110  -0.690  -0.167  0.00  0.00    -0.013 C 
ATOM     16  C   UNL     1       0.659  -0.956   1.129  0.00  0.00    +0.015 C 
ATOM     17  C   UNL     1      -1.434  -1.456  -0.139  0.00  0.00    +0.015 C 
ENDBRANCH   8  15
ENDBRANCH   1  11
BRANCH   5  18
ATOM     18  N   UNL     1       5.130  -1.284  -4.053  0.00  0.00    -0.188 NA
ATOM     19  C   UNL     1       5.922  -0.724  -4.936  0.00  0.00    +0.136 C 
BRANCH  19  20
ATOM     20  C   UNL     1       5.939  -1.190  -6.254  0.00  0.00    +0.000 C 
ATOM     21  C   UNL     1       6.794  -0.786  -7.281  0.00  0.00    +0.004 A 
ATOM     22  C   UNL     1       7.845   0.154  -7.332  0.00  0.00    +0.010 A 
ATOM     23  C   UNL     1       8.522   0.345  -8.494  0.00  0.00    +0.001 A 
ATOM     24  C   UNL     1       8.204  -0.369  -9.651  0.00  0.00    +0.002 A 
ATOM     25  C   UNL     1       7.206  -1.287  -9.674  0.00  0.00    +0.026 A 
ATOM     26  C   UNL     1       6.455  -1.541  -8.498  0.00  0.00    +0.043 A 
ATOM     27  N   UNL     1       5.455  -2.368  -8.264  0.00  0.00    -0.380 N 
ATOM     28  C   UNL     1       5.039  -2.242  -6.864  0.00  0.00    +0.150 C 
ATOM     29  H   UNL     1       5.058  -2.967  -8.915  0.00  0.00    +0.160 HD
ENDBRANCH  19  20
ENDBRANCH   5  18
BRANCH   4  30
ATOM     30  S   UNL     1       5.068  -4.515  -2.821  0.00  0.00    -0.138 S 
ATOM     31  H   UNL     1       5.405  -5.790  -3.085  0.00  0.00    +0.105 HD
ENDBRANCH   4  30
TORSDOF 5
