REMARK  Name = ZINC66515195
REMARK  11 active torsions:
REMARK  status: ('A' for Active; 'I' for Inactive)
REMARK    1  A    between atoms: C_1  and  C_2
REMARK    2  A    between atoms: C_2  and  C_3
REMARK    3  A    between atoms: C_3  and  N_4
REMARK    4  A    between atoms: C_10  and  N_13
REMARK    5  A    between atoms: C_14  and  C_16
REMARK    6  A    between atoms: C_16  and  C_18
REMARK    7  A    between atoms: C_16  and  N_21
REMARK    8  A    between atoms: C_18  and  C_19
REMARK    9  A    between atoms: C_18  and  C_20
REMARK   10  A    between atoms: C_22  and  C_24
REMARK   11  A    between atoms: C_29  and  C_30
REMARK                            x       y       z     vdW  Elec       q    Type
REMARK                         _______ _______ _______ _____ _____    ______ ____
ROOT
ATOM      1  N   UNL     1      -5.579  -3.145   1.109  0.00  0.00    -0.284 N 
ATOM      2  C   UNL     1      -6.819  -3.356   1.593  0.00  0.00    +0.238 C 
ATOM      3  O   UNL     1      -6.991  -3.475   2.788  0.00  0.00    -0.273 OA
ATOM      4  H   UNL     1      -5.451  -2.970   0.163  0.00  0.00    +0.155 HD
ENDROOT
BRANCH   1  11
ATOM      5  N   UNL     1      -1.766  -0.862   0.852  0.00  0.00    +0.385 N 
ATOM      6  C   UNL     1      -1.116  -1.710   1.877  0.00  0.00    -0.042 C 
ATOM      7  C   UNL     1      -2.225  -2.533   2.491  0.00  0.00    -0.061 A 
ATOM      8  C   UNL     1      -2.296  -3.248   3.672  0.00  0.00    +0.002 A 
ATOM      9  C   UNL     1      -3.453  -3.928   4.005  0.00  0.00    +0.002 A 
ATOM     10  C   UNL     1      -4.543  -3.896   3.157  0.00  0.00    +0.023 A 
ATOM     11  C   UNL     1      -4.476  -3.179   1.970  0.00  0.00    +0.035 A 
ATOM     12  C   UNL     1      -3.314  -2.497   1.638  0.00  0.00    -0.041 A 
ATOM     13  C   UNL     1      -2.950  -1.649   0.440  0.00  0.00    -0.040 C 
ATOM     14  H   UNL     1      -1.149  -0.715   0.068  0.00  0.00    -0.081 HD
BRANCH   5  15
ATOM     15  C   UNL     1      -2.178   0.423   1.432  0.00  0.00    -0.078 C 
BRANCH  15  17
ATOM     16  C   UNL     1      -1.367   2.606   2.338  0.00  0.00    +0.002 C 
ATOM     17  C   UNL     1      -0.938   1.267   1.734  0.00  0.00    -0.022 C 
ENDBRANCH  15  17
ENDBRANCH   5  15
ENDBRANCH   1  11
BRANCH   2  18
ATOM     18  C   UNL     1      -7.991  -3.443   0.651  0.00  0.00    +0.162 C 
BRANCH  18  19
ATOM     19  N   UNL     1      -9.218  -3.675   1.417  0.00  0.00    -0.300 N 
ATOM     20  C   UNL     1     -10.274  -4.275   0.833  0.00  0.00    +0.245 C 
ATOM     21  O   UNL     1     -10.210  -4.623  -0.329  0.00  0.00    -0.270 OA
ATOM     22  H   UNL     1      -9.270  -3.397   2.345  0.00  0.00    +0.150 HD
BRANCH  20  23
ATOM     23  C   UNL     1     -11.512  -4.508   1.607  0.00  0.00    +0.040 A 
ATOM     24  C   UNL     1     -11.624  -4.027   2.913  0.00  0.00    +0.013 A 
ATOM     25  C   UNL     1     -12.783  -4.248   3.629  0.00  0.00    +0.001 A 
ATOM     26  C   UNL     1     -13.832  -4.946   3.056  0.00  0.00    +0.000 A 
ATOM     27  C   UNL     1     -13.727  -5.425   1.763  0.00  0.00    +0.004 A 
ATOM     28  C   UNL     1     -12.576  -5.206   1.033  0.00  0.00    -0.038 A 
ATOM     29  C   UNL     1     -12.466  -5.724  -0.378  0.00  0.00    +0.044 C 
ENDBRANCH  20  23
ENDBRANCH  18  19
BRANCH  18  30
ATOM     30  C   UNL     1      -8.117  -2.133  -0.130  0.00  0.00    +0.012 C 
ATOM     31  C   UNL     1      -9.308  -2.222  -1.087  0.00  0.00    +0.009 C 
ATOM     32  C   UNL     1      -8.334  -0.976   0.848  0.00  0.00    +0.009 C 
ENDBRANCH  18  30
ENDBRANCH   2  18
TORSDOF 7
