REMARK  Name = ZINC44648918
REMARK  8 active torsions:
REMARK  status: ('A' for Active; 'I' for Inactive)
REMARK    1  A    between atoms: C_1  and  C_2
REMARK    2  A    between atoms: C_2  and  C_3
REMARK    3  A    between atoms: C_3  and  N_4
REMARK    4  A    between atoms: N_4  and  C_5
REMARK    5  A    between atoms: C_5  and  C_6
REMARK    6  A    between atoms: N_8  and  C_9
REMARK    7  A    between atoms: C_12  and  S_16
REMARK    8  A    between atoms: S_16  and  N_19
REMARK                            x       y       z     vdW  Elec       q    Type
REMARK                         _______ _______ _______ _____ _____    ______ ____
ROOT
ATOM      1  C   UNL     1       2.141  -6.002  -3.459  0.00  0.00    +0.048 A 
ATOM      2  C   UNL     1       1.139  -6.763  -2.873  0.00  0.00    +0.026 A 
ATOM      3  C   UNL     1       1.252  -8.139  -2.833  0.00  0.00    +0.030 A 
ATOM      4  C   UNL     1       2.362  -8.759  -3.376  0.00  0.00    +0.106 A 
ATOM      5  C   UNL     1       3.363  -8.005  -3.961  0.00  0.00    +0.045 A 
ATOM      6  C   UNL     1       3.253  -6.628  -4.010  0.00  0.00    +0.041 A 
ATOM      7 BR   UNL     1       4.618  -5.597  -4.816  0.00  0.00    -0.048 Br
ENDROOT
BRANCH   1  10
ATOM      8  C   UNL     1       1.441  -3.947  -2.485  0.00  0.00    +0.200 C 
ATOM      9  O   UNL     1       0.936  -4.566  -1.571  0.00  0.00    -0.278 OA
ATOM     10  N   UNL     1       2.029  -4.607  -3.502  0.00  0.00    -0.286 N 
ATOM     11  H   UNL     1       2.375  -4.116  -4.263  0.00  0.00    +0.155 HD
BRANCH   8  12
ATOM     12  C   UNL     1       1.410  -2.441  -2.481  0.00  0.00    +0.015 C 
BRANCH  12  13
ATOM     13  N   UNL     1       0.718  -1.968  -1.275  0.00  0.00    +0.385 N 
ATOM     14  H   UNL     1       1.208  -2.296  -0.456  0.00  0.00    -0.085 HD
ATOM     15  H   UNL     1      -0.226  -2.323  -1.267  0.00  0.00    -0.085 HD
BRANCH  13  16
ATOM     16  C   UNL     1       0.689  -0.499  -1.272  0.00  0.00    -0.082 C 
BRANCH  16  18
ATOM     17  C   UNL     1      -0.063   1.524  -0.012  0.00  0.00    +0.002 C 
ATOM     18  C   UNL     1      -0.032  -0.006  -0.015  0.00  0.00    -0.022 C 
ENDBRANCH  16  18
ENDBRANCH  13  16
ENDBRANCH  12  13
ENDBRANCH   8  12
ENDBRANCH   1  10
BRANCH   4  19
ATOM     19  S   UNL     1       2.503 -10.515  -3.323  0.00  0.00    +0.056 S 
ATOM     20  O   UNL     1       3.889 -10.814  -3.411  0.00  0.00    -0.153 OA
ATOM     21  O   UNL     1       1.696 -10.954  -2.239  0.00  0.00    -0.153 OA
BRANCH  19  22
ATOM     22  N   UNL     1       1.802 -11.104  -4.703  0.00  0.00    -0.204 NA
ATOM     23  H   UNL     1       1.417 -10.493  -5.350  0.00  0.00    +0.144 HD
ATOM     24  H   UNL     1       1.777 -12.060  -4.864  0.00  0.00    +0.144 HD
ENDBRANCH  19  22
ENDBRANCH   4  19
TORSDOF 7
