REMARK  Name = ZINC11898493
REMARK  10 active torsions:
REMARK  status: ('A' for Active; 'I' for Inactive)
REMARK    1  A    between atoms: C_1  and  C_2
REMARK    2  A    between atoms: C_2  and  O_3
REMARK    3  A    between atoms: O_3  and  C_4
REMARK    4  A    between atoms: C_9  and  N_10
REMARK    5  A    between atoms: C_11  and  C_13
REMARK    6  A    between atoms: N_15  and  C_16
REMARK    7  A    between atoms: C_16  and  C_17
REMARK    8  A    between atoms: C_17  and  C_19
REMARK    9  A    between atoms: C_17  and  N_63
REMARK   10  A    between atoms: N_23  and  C_24
REMARK                            x       y       z     vdW  Elec       q    Type
REMARK                         _______ _______ _______ _____ _____    ______ ____
ROOT
ATOM      1  C   UNL     1      -7.550   0.042   0.684  0.00  0.00    +0.095 C 
ENDROOT
BRANCH   1   4
ATOM      2  C   UNL     1      -7.791   1.658   2.491  0.00  0.00    +0.299 C 
ATOM      3  O   UNL     1      -6.960   2.351   1.943  0.00  0.00    -0.265 OA
ATOM      4  N   UNL     1      -8.157   0.483   1.942  0.00  0.00    -0.309 N 
ATOM      5  H   UNL     1      -8.822  -0.071   2.381  0.00  0.00    +0.149 HD
BRANCH   2   7
ATOM      6  N   UNL     1      -8.044   3.283   4.323  0.00  0.00    -0.275 N 
ATOM      7  C   UNL     1      -8.409   2.108   3.774  0.00  0.00    +0.303 C 
ATOM      8  O   UNL     1      -9.241   1.415   4.322  0.00  0.00    -0.265 OA
ATOM      9  H   UNL     1      -7.438   3.873   3.848  0.00  0.00    +0.155 HD
BRANCH   6  15
ATOM     10  C   UNL     1      -8.567   4.996   5.950  0.00  0.00    +0.142 A 
ATOM     11  C   UNL     1      -9.053   5.356   7.196  0.00  0.00    +0.047 A 
ATOM     12  C   UNL     1      -9.519   4.385   8.063  0.00  0.00    +0.004 A 
ATOM     13  C   UNL     1      -9.492   3.052   7.695  0.00  0.00    +0.002 A 
ATOM     14  C   UNL     1      -9.004   2.684   6.456  0.00  0.00    +0.027 A 
ATOM     15  C   UNL     1      -8.539   3.653   5.577  0.00  0.00    +0.076 A 
BRANCH  10  16
ATOM     16  O   UNL     1      -8.113   5.950   5.094  0.00  0.00    -0.490 OA
BRANCH  16  18
ATOM     17  C   UNL     1      -7.623   8.228   4.452  0.00  0.00    +0.048 C 
ATOM     18  C   UNL     1      -8.172   7.306   5.542  0.00  0.00    +0.226 C 
ENDBRANCH  16  18
ENDBRANCH  10  16
ENDBRANCH   6  15
ENDBRANCH   2   7
ENDBRANCH   1   4
BRANCH   1  19
ATOM     19  C   UNL     1      -8.223  -1.251   0.219  0.00  0.00    -0.003 C 
BRANCH  19  29
ATOM     20  C   UNL     1      -6.822  -2.364   1.854  0.00  0.00    -0.073 C 
ATOM     21  C   UNL     1      -6.904  -3.109   3.187  0.00  0.00    +0.017 C 
ATOM     22  C   UNL     1      -7.700  -4.378   3.018  0.00  0.00    -0.048 A 
ATOM     23  C   UNL     1      -7.597  -5.357   3.995  0.00  0.00    +0.004 A 
ATOM     24  C   UNL     1      -8.315  -6.531   3.884  0.00  0.00    +0.000 A 
ATOM     25  C   UNL     1      -9.141  -6.731   2.793  0.00  0.00    +0.000 A 
ATOM     26  C   UNL     1      -9.242  -5.758   1.820  0.00  0.00    +0.002 A 
ATOM     27  C   UNL     1      -8.520  -4.578   1.929  0.00  0.00    -0.061 A 
ATOM     28  C   UNL     1      -8.661  -3.548   0.840  0.00  0.00    -0.042 C 
ATOM     29  N   UNL     1      -8.195  -2.237   1.323  0.00  0.00    +0.389 N 
ATOM     30  H   UNL     1      -8.817  -1.916   2.074  0.00  0.00    -0.080 HD
ENDBRANCH  19  29
BRANCH  19  31
ATOM     31  C   UNL     1      -9.657  -0.968  -0.148  0.00  0.00    +0.006 A 
ATOM     32  C   UNL     1     -10.745  -1.458   0.480  0.00  0.00    +0.021 A 
ATOM     33  C   UNL     1     -11.879  -0.946  -0.180  0.00  0.00    +0.019 A 
ATOM     34  C   UNL     1     -11.441  -0.161  -1.186  0.00  0.00    +0.085 A 
ATOM     35  N   UNL     1     -10.078  -0.166  -1.167  0.00  0.00    -0.355 N 
ATOM     36  C   UNL     1      -9.209   0.565  -2.092  0.00  0.00    +0.148 C 
ENDBRANCH  19  31
ENDBRANCH   1  19
TORSDOF 8
