REMARK  Name = ZINC08829035
REMARK  11 active torsions:
REMARK  status: ('A' for Active; 'I' for Inactive)
REMARK    1  A    between atoms: C_1  and  C_2
REMARK    2  A    between atoms: C_5  and  C_36
REMARK    3  A    between atoms: C_9  and  C_13
REMARK    4  A    between atoms: C_10  and  O_12
REMARK    5  A    between atoms: C_13  and  C_15
REMARK    6  A    between atoms: C_13  and  N_67
REMARK    7  A    between atoms: N_19  and  C_20
REMARK    8  A    between atoms: C_20  and  C_21
REMARK    9  A    between atoms: C_20  and  C_22
REMARK   10  A    between atoms: C_20  and  C_23
REMARK   11  A    between atoms: C_26  and  C_29
REMARK                            x       y       z     vdW  Elec       q    Type
REMARK                         _______ _______ _______ _____ _____    ______ ____
ROOT
ATOM      1  C   UNL     1       3.566   0.421  -0.371  0.00  0.00    +0.039 C 
ENDROOT
BRANCH   1  10
ATOM      2  C   UNL     1      -0.123   2.857  -3.097  0.00  0.00    +0.044 C 
ATOM      3  C   UNL     1       1.171   2.963  -3.863  0.00  0.00    -0.041 A 
ATOM      4  C   UNL     1       1.208   3.619  -5.056  0.00  0.00    +0.004 A 
ATOM      5  C   UNL     1       2.395   3.726  -5.776  0.00  0.00    +0.006 A 
ATOM      6  C   UNL     1       3.551   3.180  -5.308  0.00  0.00    -0.024 A 
ATOM      7  C   UNL     1       3.552   2.496  -4.080  0.00  0.00    +0.078 A 
ATOM      8  C   UNL     1       2.343   2.388  -3.350  0.00  0.00    +0.004 A 
ATOM      9  C   UNL     1       2.344   1.696  -2.123  0.00  0.00    +0.018 A 
ATOM     10  C   UNL     1       3.519   1.165  -1.681  0.00  0.00    +0.008 A 
ATOM     11  C   UNL     1       4.681   1.307  -2.450  0.00  0.00    +0.215 A 
ATOM     12  N   UNL     1       4.674   1.949  -3.598  0.00  0.00    -0.213 NA
ATOM     13  C   UNL     1       4.825   3.309  -6.103  0.00  0.00    +0.046 C 
BRANCH  11  14
ATOM     14  O   UNL     1       5.841   0.768  -2.000  0.00  0.00    -0.492 OA
ATOM     15  H   UNL     1       6.029  -0.112  -2.353  0.00  0.00    +0.294 HD
ENDBRANCH  11  14
ENDBRANCH   1  10
BRANCH   1  21
ATOM     16  C   UNL     1       4.207   0.596   1.960  0.00  0.00    -0.072 C 
ATOM     17  C   UNL     1       5.145   1.365   2.894  0.00  0.00    +0.017 C 
ATOM     18  C   UNL     1       4.822   2.832   2.843  0.00  0.00    -0.048 C 
ATOM     19  C   UNL     1       4.101   3.366   1.881  0.00  0.00    -0.041 C 
ATOM     20  C   UNL     1       3.526   2.568   0.747  0.00  0.00    -0.049 C 
ATOM     21  N   UNL     1       4.223   1.272   0.646  0.00  0.00    +0.392 N 
ATOM     22  H   UNL     1       5.197   1.437   0.366  0.00  0.00    -0.080 HD
BRANCH  18  23
ATOM     23  C   UNL     1       5.334   3.709   3.916  0.00  0.00    -0.022 A 
ATOM     24  C   UNL     1       6.708   3.898   4.069  0.00  0.00    +0.011 A 
ATOM     25  C   UNL     1       7.182   4.722   5.069  0.00  0.00    +0.039 A 
ATOM     26  C   UNL     1       6.296   5.353   5.927  0.00  0.00    +0.123 A 
ATOM     27  C   UNL     1       4.930   5.164   5.783  0.00  0.00    +0.039 A 
ATOM     28  C   UNL     1       4.447   4.346   4.783  0.00  0.00    +0.011 A 
ATOM     29  F   UNL     1       6.764   6.155   6.908  0.00  0.00    -0.205 F 
ENDBRANCH  18  23
ENDBRANCH   1  21
BRANCH   1  30
ATOM     30  C   UNL     1       2.164   0.077   0.061  0.00  0.00    +0.143 A 
ATOM     31  N   UNL     1       1.267   0.904   0.540  0.00  0.00    -0.115 NA
ATOM     32  N   UNL     1       0.198   0.230   0.792  0.00  0.00    -0.023 NA
ATOM     33  N   UNL     1       0.390  -1.006   0.486  0.00  0.00    -0.043 NA
ATOM     34  N   UNL     1       1.590  -1.141   0.032  0.00  0.00    -0.225 N 
BRANCH  34  35
ATOM     35  C   UNL     1       2.212  -2.385  -0.428  0.00  0.00    +0.059 C 
ATOM     36  C   UNL     1       1.174  -3.509  -0.415  0.00  0.00    +0.036 C 
ATOM     37  C   UNL     1       2.740  -2.195  -1.851  0.00  0.00    +0.036 C 
ATOM     38  C   UNL     1       3.371  -2.750   0.502  0.00  0.00    +0.036 C 
ENDBRANCH  34  35
ENDBRANCH   1  30
TORSDOF 6
