REMARK  Name = ZINC65968020
REMARK  5 active torsions:
REMARK  status: ('A' for Active; 'I' for Inactive)
REMARK    1  A    between atoms: C_1  and  O_2
REMARK    2  A    between atoms: O_2  and  C_3
REMARK    3  A    between atoms: C_8  and  N_9
REMARK    4  A    between atoms: C_12  and  C_17
REMARK    5  A    between atoms: C_17  and  N_18
REMARK                            x       y       z     vdW  Elec       q    Type
REMARK                         _______ _______ _______ _____ _____    ______ ____
ROOT
ATOM      1  N   UNL     1      -0.074  -2.780  -0.013  0.00  0.00    -0.281 N 
ATOM      2  C   UNL     1      -0.129  -4.157   0.085  0.00  0.00    +0.224 A 
ATOM      3  N   UNL     1       0.996  -4.863   0.175  0.00  0.00    -0.201 NA
ATOM      4  C   UNL     1       0.945  -6.180   0.269  0.00  0.00    +0.120 A 
ATOM      5  N   UNL     1      -0.221  -6.801   0.272  0.00  0.00    -0.202 NA
ATOM      6  C   UNL     1      -1.350  -6.102   0.182  0.00  0.00    +0.217 A 
ATOM      7  N   UNL     1      -1.303  -4.777   0.093  0.00  0.00    -0.181 NA
ATOM      8  N   UNL     1      -2.568  -6.752   0.185  0.00  0.00    -0.327 N 
ATOM      9  H   UNL     1       0.782  -2.334  -0.105  0.00  0.00    +0.155 HD
ATOM     10  H   UNL     1      -2.601  -7.719   0.253  0.00  0.00    +0.145 HD
ATOM     11  H   UNL     1      -3.390  -6.241   0.119  0.00  0.00    +0.145 HD
ENDROOT
BRANCH   1  17
ATOM     12  C   UNL     1      -1.297  -0.765  -0.564  0.00  0.00    +0.141 A 
ATOM     13  C   UNL     1      -2.470  -0.029  -0.532  0.00  0.00    +0.047 A 
ATOM     14  C   UNL     1      -3.595  -0.545   0.085  0.00  0.00    +0.004 A 
ATOM     15  C   UNL     1      -3.553  -1.797   0.671  0.00  0.00    +0.002 A 
ATOM     16  C   UNL     1      -2.386  -2.538   0.644  0.00  0.00    +0.027 A 
ATOM     17  C   UNL     1      -1.256  -2.029   0.022  0.00  0.00    +0.076 A 
BRANCH  12  19
ATOM     18  C   UNL     1      -0.306   1.043  -1.749  0.00  0.00    +0.277 C 
ATOM     19  O   UNL     1      -0.191  -0.258  -1.170  0.00  0.00    -0.493 OA
ENDBRANCH  12  19
ENDBRANCH   1  17
BRANCH   4  20
ATOM     20  C   UNL     1       2.221  -6.976   0.371  0.00  0.00    -0.001 C 
BRANCH  20  21
ATOM     21  N   UNL     1       2.587  -7.135   1.784  0.00  0.00    +0.386 N 
ATOM     22  C   UNL     1       2.732  -5.829   2.355  0.00  0.00    -0.074 C 
ATOM     23  C   UNL     1       3.571  -5.754   3.593  0.00  0.00    -0.027 C 
ATOM     24  C   UNL     1       3.340  -6.877   4.581  0.00  0.00    +0.005 C 
ATOM     25  C   UNL     1       4.167  -8.120   4.307  0.00  0.00    -0.012 C 
ATOM     26  C   UNL     1       5.640  -7.763   4.094  0.00  0.00    +0.007 C 
ATOM     27  C   UNL     1       5.725  -6.783   2.922  0.00  0.00    -0.012 C 
ATOM     28  C   UNL     1       5.035  -5.479   3.335  0.00  0.00    +0.005 C 
ATOM     29  C   UNL     1       5.079  -7.347   1.675  0.00  0.00    -0.012 C 
ATOM     30  C   UNL     1       3.738  -7.996   1.853  0.00  0.00    -0.067 C 
ATOM     31  C   UNL     1       3.668  -8.889   3.088  0.00  0.00    -0.012 C 
ATOM     32  H   UNL     1       1.822  -7.598   2.253  0.00  0.00    -0.081 HD
ENDBRANCH  20  21
ENDBRANCH   4  20
TORSDOF 4
