REMARK  Name = ZINC14017468
REMARK  8 active torsions:
REMARK  status: ('A' for Active; 'I' for Inactive)
REMARK    1  A    between atoms: C_1  and  C_2
REMARK    2  A    between atoms: C_2  and  C_4
REMARK    3  A    between atoms: C_2  and  N_49
REMARK    4  A    between atoms: N_6  and  C_7
REMARK    5  A    between atoms: C_8  and  C_12
REMARK    6  A    between atoms: C_18  and  C_20
REMARK    7  A    between atoms: C_23  and  O_26
REMARK    8  A    between atoms: O_26  and  C_27
REMARK                            x       y       z     vdW  Elec       q    Type
REMARK                         _______ _______ _______ _____ _____    ______ ____
ROOT
ATOM      1  C   UNL     1      -2.236   1.788   1.105  0.00  0.00    -0.004 C 
ATOM      2  C   UNL     1      -0.729   1.579   1.267  0.00  0.00    +0.017 C 
ENDROOT
BRANCH   2   7
ATOM      3  C   UNL     1       1.367   2.692   1.788  0.00  0.00    -0.077 C 
ATOM      4  C   UNL     1       1.801   3.673   2.892  0.00  0.00    -0.020 C 
ATOM      5  C   UNL     1       0.500   4.375   3.343  0.00  0.00    -0.013 C 
ATOM      6  C   UNL     1      -0.602   3.378   2.902  0.00  0.00    -0.037 C 
ATOM      7  N   UNL     1      -0.080   2.876   1.626  0.00  0.00    +0.392 N 
ATOM      8  H   UNL     1      -0.262   3.561   0.884  0.00  0.00    -0.080 HD
BRANCH   6   9
ATOM      9  C   UNL     1      -1.916   4.090   2.708  0.00  0.00    -0.061 A 
ATOM     10  C   UNL     1      -2.105   4.902   1.605  0.00  0.00    +0.005 A 
ATOM     11  C   UNL     1      -3.310   5.551   1.422  0.00  0.00    +0.046 A 
ATOM     12  C   UNL     1      -4.328   5.397   2.352  0.00  0.00    +0.120 A 
ATOM     13  C   UNL     1      -4.134   4.586   3.461  0.00  0.00    +0.046 A 
ATOM     14  C   UNL     1      -2.929   3.934   3.636  0.00  0.00    +0.005 A 
BRANCH  12  15
ATOM     15  O   UNL     1      -5.513   6.039   2.177  0.00  0.00    -0.495 OA
ATOM     16  C   UNL     1      -5.642   6.857   1.013  0.00  0.00    +0.277 C 
ENDBRANCH  12  15
ENDBRANCH   6   9
ENDBRANCH   2   7
BRANCH   2  17
ATOM     17  C   UNL     1      -0.152   1.060  -0.025  0.00  0.00    +0.204 C 
ATOM     18  O   UNL     1       0.299   1.833  -0.842  0.00  0.00    -0.277 OA
ATOM     19  N   UNL     1      -0.139  -0.265  -0.272  0.00  0.00    -0.281 N 
ATOM     20  H   UNL     1      -0.500  -0.884   0.381  0.00  0.00    +0.155 HD
BRANCH  19  21
ATOM     21  C   UNL     1       0.391  -0.743  -1.461  0.00  0.00    +0.084 A 
ATOM     22  C   UNL     1       0.499  -2.061  -1.890  0.00  0.00    +0.065 A 
ATOM     23  C   UNL     1       1.096  -2.275  -3.187  0.00  0.00    +0.022 A 
ATOM     24  C   UNL     1       1.505  -1.185  -3.861  0.00  0.00    +0.048 A 
ATOM     25  S   UNL     1       1.087   0.156  -2.767  0.00  0.00    -0.081 S 
BRANCH  22  26
ATOM     26  C   UNL     1       0.025  -3.179  -1.068  0.00  0.00    +0.244 C 
ATOM     27  O   UNL     1      -0.477  -2.964   0.020  0.00  0.00    -0.270 OA
ATOM     28  N   UNL     1       0.146  -4.444  -1.516  0.00  0.00    -0.325 N 
ATOM     29  H   UNL     1       0.546  -4.615  -2.384  0.00  0.00    +0.145 HD
ATOM     30  H   UNL     1      -0.168  -5.183  -0.973  0.00  0.00    +0.145 HD
ENDBRANCH  22  26
ENDBRANCH  19  21
ENDBRANCH   2  17
TORSDOF 6
