REMARK  Name = ZINC06134710
REMARK  14 active torsions:
REMARK  status: ('A' for Active; 'I' for Inactive)
REMARK    1  A    between atoms: C_1  and  C_2
REMARK    2  A    between atoms: C_2  and  C_3
REMARK    3  A    between atoms: C_2  and  C_4
REMARK    4  A    between atoms: C_4  and  N_5
REMARK    5  A    between atoms: N_5  and  C_6
REMARK    6  A    between atoms: N_5  and  S_10
REMARK    7  A    between atoms: C_6  and  C_7
REMARK    8  A    between atoms: C_7  and  C_8
REMARK    9  A    between atoms: C_7  and  C_9
REMARK   10  A    between atoms: S_10  and  C_13
REMARK   11  A    between atoms: C_15  and  N_29
REMARK   12  A    between atoms: C_18  and  N_19
REMARK   13  A    between atoms: N_19  and  N_20
REMARK   14  A    between atoms: C_21  and  C_22
REMARK                            x       y       z     vdW  Elec       q    Type
REMARK                         _______ _______ _______ _____ _____    ______ ____
ROOT
ATOM      1  C   UNL     1      -5.832   2.007   0.582  0.00  0.00    +0.130 A 
ATOM      2  C   UNL     1      -7.067   1.389   0.583  0.00  0.00    +0.063 A 
ATOM      3  C   UNL     1      -7.158   0.023   0.777  0.00  0.00    +0.128 A 
ATOM      4  C   UNL     1      -6.013  -0.730   0.967  0.00  0.00    +0.035 A 
ATOM      5  C   UNL     1      -4.775  -0.119   0.963  0.00  0.00    +0.029 A 
ATOM      6  C   UNL     1      -4.679   1.254   0.767  0.00  0.00    +0.075 A 
ENDROOT
BRANCH   1   7
ATOM      7  S   UNL     1      -5.718   3.749   0.340  0.00  0.00    +0.063 S 
ATOM      8  O   UNL     1      -4.687   3.960  -0.615  0.00  0.00    -0.153 OA
ATOM      9  O   UNL     1      -7.045   4.219   0.143  0.00  0.00    -0.153 OA
BRANCH   7  10
ATOM     10  N   UNL     1      -5.188   4.408   1.763  0.00  0.00    -0.176 NA
BRANCH  10  11
ATOM     11  C   UNL     1      -3.765   4.702   1.949  0.00  0.00    +0.112 C 
BRANCH  11  13
ATOM     12  C   UNL     1      -2.100   6.520   2.355  0.00  0.00    +0.008 C 
ATOM     13  C   UNL     1      -3.566   6.217   2.037  0.00  0.00    -0.001 C 
ATOM     14  C   UNL     1      -3.941   6.859   0.700  0.00  0.00    +0.008 C 
ENDBRANCH  11  13
ENDBRANCH  10  11
BRANCH  10  15
ATOM     15  C   UNL     1      -6.142   4.696   2.837  0.00  0.00    +0.112 C 
BRANCH  15  16
ATOM     16  C   UNL     1      -5.849   3.791   4.036  0.00  0.00    -0.001 C 
ATOM     17  C   UNL     1      -6.738   4.199   5.212  0.00  0.00    +0.008 C 
ATOM     18  C   UNL     1      -6.138   2.336   3.659  0.00  0.00    +0.008 C 
ENDBRANCH  15  16
ENDBRANCH  10  15
ENDBRANCH   7  10
ENDBRANCH   1   7
BRANCH   3  19
ATOM     19  N   UNL     1      -8.484  -0.636   0.783  0.00  0.00    +0.056 N 
ATOM     20  O   UNL     1      -8.565  -1.839   0.955  0.00  0.00    -0.126 OA
ATOM     21  O   UNL     1      -9.493   0.025   0.616  0.00  0.00    -0.126 OA
ENDBRANCH   3  19
BRANCH   6  22
ATOM     22  N   UNL     1      -3.430   1.875   0.763  0.00  0.00    -0.236 N 
ATOM     23  H   UNL     1      -3.357   2.816   0.539  0.00  0.00    +0.174 HD
BRANCH  22  24
ATOM     24  N   UNL     1      -2.281   1.139   1.082  0.00  0.00    -0.190 NA
ATOM     25  C   UNL     1      -1.119   1.717   1.078  0.00  0.00    +0.139 C 
BRANCH  25  26
ATOM     26  C   UNL     1       0.090   0.943   1.414  0.00  0.00    +0.013 A 
ATOM     27  C   UNL     1       1.344   1.560   1.405  0.00  0.00    +0.011 A 
ATOM     28  C   UNL     1       2.471   0.828   1.714  0.00  0.00    +0.001 A 
ATOM     29  C   UNL     1       2.364  -0.515   2.033  0.00  0.00    +0.001 A 
ATOM     30  C   UNL     1       1.127  -1.133   2.044  0.00  0.00    +0.020 A 
ATOM     31  C   UNL     1      -0.011  -0.413   1.737  0.00  0.00    +0.050 A 
ATOM     32 CL   UNL     1      -1.563  -1.191   1.750  0.00  0.00    -0.083 Cl
ENDBRANCH  25  26
ENDBRANCH  22  24
ENDBRANCH   6  22
TORSDOF 10
