REMARK  Name = ZINC08143374
REMARK  6 active torsions:
REMARK  status: ('A' for Active; 'I' for Inactive)
REMARK    1  A    between atoms: C_1  and  C_2
REMARK    2  A    between atoms: C_2  and  C_4
REMARK    3  A    between atoms: C_2  and  N_42
REMARK    4  A    between atoms: N_6  and  C_7
REMARK    5  A    between atoms: C_8  and  C_12
REMARK    6  A    between atoms: C_20  and  C_22
REMARK                            x       y       z     vdW  Elec       q    Type
REMARK                         _______ _______ _______ _____ _____    ______ ____
ROOT
ATOM      1  C   UNL     1      -1.200   1.601  -0.086  0.00  0.00    +0.204 C 
ATOM      2  O   UNL     1      -1.220   2.811  -0.173  0.00  0.00    -0.277 OA
ATOM      3  N   UNL     1      -0.023   0.946  -0.082  0.00  0.00    -0.281 N 
ATOM      4  H   UNL     1      -0.007  -0.022  -0.012  0.00  0.00    +0.155 HD
ENDROOT
BRANCH   3   5
ATOM      5  C   UNL     1       1.166   1.653  -0.182  0.00  0.00    +0.084 A 
ATOM      6  C   UNL     1       2.465   1.160  -0.195  0.00  0.00    +0.065 A 
ATOM      7  C   UNL     1       3.526   2.131  -0.315  0.00  0.00    +0.022 A 
ATOM      8  C   UNL     1       3.169   3.426  -0.394  0.00  0.00    +0.048 A 
ATOM      9  S   UNL     1       1.391   3.365  -0.315  0.00  0.00    -0.081 S 
BRANCH   6  10
ATOM     10  C   UNL     1       2.745  -0.276  -0.094  0.00  0.00    +0.244 C 
ATOM     11  O   UNL     1       1.827  -1.069   0.003  0.00  0.00    -0.270 OA
ATOM     12  N   UNL     1       4.018  -0.717  -0.110  0.00  0.00    -0.325 N 
ATOM     13  H   UNL     1       4.750  -0.085  -0.187  0.00  0.00    +0.145 HD
ATOM     14  H   UNL     1       4.203  -1.667  -0.043  0.00  0.00    +0.145 HD
ENDBRANCH   6  10
ENDBRANCH   3   5
BRANCH   1  16
ATOM     15  C   UNL     1      -2.681  -0.017  -1.241  0.00  0.00    -0.004 C 
ATOM     16  C   UNL     1      -2.492   0.832   0.017  0.00  0.00    +0.017 C 
BRANCH  16  25
ATOM     17  C   UNL     1      -4.825   1.086   0.612  0.00  0.00    -0.058 C 
ATOM     18  C   UNL     1      -5.914   2.123   0.907  0.00  0.00    +0.089 C 
ATOM     19  N   UNL     1      -6.095   2.963  -0.286  0.00  0.00    -0.305 N 
ATOM     20  C   UNL     1      -4.903   3.575  -0.893  0.00  0.00    +0.089 C 
ATOM     21  C   UNL     1      -3.854   2.481  -1.117  0.00  0.00    -0.058 C 
ATOM     22  C   UNL     1      -7.320   3.165  -0.811  0.00  0.00    +0.212 C 
ATOM     23  O   UNL     1      -8.300   2.724  -0.249  0.00  0.00    -0.276 OA
ATOM     24  C   UNL     1      -7.472   3.940  -2.094  0.00  0.00    +0.109 C 
ATOM     25  N   UNL     1      -3.604   1.793   0.168  0.00  0.00    +0.389 N 
ATOM     26  H   UNL     1      -3.348   2.491   0.875  0.00  0.00    -0.081 HD
ENDBRANCH  16  25
ENDBRANCH   1  16
TORSDOF 4
