REMARK  Name = ZINC39631394
REMARK  11 active torsions:
REMARK  status: ('A' for Active; 'I' for Inactive)
REMARK    1  A    between atoms: C_1  and  C_2
REMARK    2  A    between atoms: C_2  and  C_4
REMARK    3  A    between atoms: C_2  and  N_11
REMARK    4  A    between atoms: C_4  and  C_5
REMARK    5  A    between atoms: C_5  and  C_6
REMARK    6  A    between atoms: C_6  and  C_7
REMARK    7  A    between atoms: C_7  and  C_8
REMARK    8  A    between atoms: C_7  and  C_9
REMARK    9  A    between atoms: C_7  and  O_10
REMARK   10  A    between atoms: C_12  and  C_14
REMARK   11  A    between atoms: C_25  and  C_27
REMARK                            x       y       z     vdW  Elec       q    Type
REMARK                         _______ _______ _______ _____ _____    ______ ____
ROOT
ATOM      1  C   UNL     1       2.806  -1.320  -3.099  0.00  0.00    +0.100 C 
ATOM      2  C   UNL     1       2.380  -0.172  -4.040  0.00  0.00    +0.121 C 
ATOM      3  N   UNL     1       3.510   0.786  -3.998  0.00  0.00    -0.296 N 
ATOM      4  C   UNL     1       4.720  -0.071  -3.979  0.00  0.00    +0.115 C 
ATOM      5  C   UNL     1       4.342  -1.253  -3.064  0.00  0.00    -0.004 C 
ATOM      6  C   UNL     1       4.828  -0.993  -1.641  0.00  0.00    -0.010 C 
ATOM      7  C   UNL     1       6.359  -0.987  -1.623  0.00  0.00    -0.082 C 
ATOM      8  N   UNL     1       6.861  -2.280  -2.104  0.00  0.00    +0.379 N 
ATOM      9  C   UNL     1       6.467  -2.481  -3.504  0.00  0.00    -0.082 C 
ATOM     10  C   UNL     1       4.941  -2.549  -3.602  0.00  0.00    -0.010 C 
ATOM     11  C   UNL     1       3.452   2.133  -3.981  0.00  0.00    +0.247 C 
ATOM     12  O   UNL     1       2.378   2.693  -3.873  0.00  0.00    -0.270 OA
ATOM     13  H   UNL     1       7.867  -2.296  -2.034  0.00  0.00    -0.086 HD
ATOM     14  H   UNL     1       6.475  -3.021  -1.538  0.00  0.00    -0.086 HD
ENDROOT
BRANCH  11  15
ATOM     15  C   UNL     1       4.693   2.928  -4.093  0.00  0.00    +0.040 A 
ATOM     16  C   UNL     1       5.843   2.358  -4.639  0.00  0.00    +0.033 A 
ATOM     17  C   UNL     1       7.000   3.106  -4.742  0.00  0.00    +0.043 A 
ATOM     18  C   UNL     1       7.019   4.418  -4.303  0.00  0.00    +0.040 A 
ATOM     19  C   UNL     1       5.881   4.990  -3.759  0.00  0.00    +0.043 A 
ATOM     20  C   UNL     1       4.717   4.254  -3.657  0.00  0.00    +0.033 A 
ATOM     21 CL   UNL     1       5.916   6.636  -3.211  0.00  0.00    -0.083 Cl
ATOM     22 CL   UNL     1       8.432   2.398  -5.421  0.00  0.00    -0.083 Cl
ENDBRANCH  11  15
BRANCH   1  24
ATOM     23  N   UNL     1       2.048  -2.156  -0.898  0.00  0.00    -0.312 N 
ATOM     24  C   UNL     1       2.240  -1.105  -1.719  0.00  0.00    +0.218 C 
ATOM     25  O   UNL     1       1.958   0.015  -1.347  0.00  0.00    -0.275 OA
ATOM     26  H   UNL     1       2.274  -3.051  -1.195  0.00  0.00    +0.149 HD
BRANCH  23  28
ATOM     27  C   UNL     1      -0.030  -1.913   0.369  0.00  0.00    +0.028 C 
ATOM     28  C   UNL     1       1.498  -1.947   0.444  0.00  0.00    +0.070 C 
BRANCH  28  29
ATOM     29  C   UNL     1       1.939  -3.090   1.360  0.00  0.00    +0.022 C 
BRANCH  29  30
ATOM     30  C   UNL     1       3.458  -3.047   1.534  0.00  0.00    +0.005 C 
BRANCH  30  31
ATOM     31  C   UNL     1       3.899  -4.190   2.451  0.00  0.00    +0.034 C 
BRANCH  31  32
ATOM     32  C   UNL     1       5.419  -4.147   2.625  0.00  0.00    +0.061 C 
ATOM     33  C   UNL     1       5.823  -2.809   3.248  0.00  0.00    +0.041 C 
ATOM     34  C   UNL     1       5.860  -5.290   3.541  0.00  0.00    +0.041 C 
BRANCH  32  35
ATOM     35  O   UNL     1       6.049  -4.288   1.350  0.00  0.00    -0.389 OA
ATOM     36  H   UNL     1       5.837  -5.115   0.896  0.00  0.00    +0.210 HD
ENDBRANCH  32  35
ENDBRANCH  31  32
ENDBRANCH  30  31
ENDBRANCH  29  30
ENDBRANCH  28  29
ENDBRANCH  23  28
ENDBRANCH   1  24
TORSDOF 8
