REMARK  Name = ZINC10774729
REMARK  7 active torsions:
REMARK  status: ('A' for Active; 'I' for Inactive)
REMARK    1  A    between atoms: C_1  and  C_2
REMARK    2  A    between atoms: C_2  and  N_57
REMARK    3  A    between atoms: C_8  and  N_13
REMARK    4  A    between atoms: C_9  and  C_10
REMARK    5  A    between atoms: C_14  and  C_16
REMARK    6  A    between atoms: N_22  and  S_23
REMARK    7  A    between atoms: S_23  and  C_26
REMARK                            x       y       z     vdW  Elec       q    Type
REMARK                         _______ _______ _______ _____ _____    ______ ____
ROOT
ATOM      1  N   UNL     1      -2.294   1.168   3.807  0.00  0.00    -0.278 N 
ATOM      2  C   UNL     1      -2.808   1.420   2.586  0.00  0.00    +0.236 C 
ATOM      3  O   UNL     1      -3.837   2.053   2.480  0.00  0.00    -0.274 OA
ATOM      4  H   UNL     1      -1.471   0.661   3.891  0.00  0.00    +0.155 HD
ENDROOT
BRANCH   1  10
ATOM      5  C   UNL     1      -4.033   3.076   9.456  0.00  0.00    -0.074 C 
ATOM      6  C   UNL     1      -3.185   1.995   8.780  0.00  0.00    +0.018 C 
ATOM      7  C   UNL     1      -3.435   2.066   7.278  0.00  0.00    -0.027 A 
ATOM      8  C   UNL     1      -4.522   2.713   6.801  0.00  0.00    -0.021 A 
ATOM      9  S   UNL     1      -4.411   2.548   5.043  0.00  0.00    -0.079 S 
ATOM     10  C   UNL     1      -2.943   1.632   4.941  0.00  0.00    +0.084 A 
ATOM     11  C   UNL     1      -2.576   1.470   6.271  0.00  0.00    +0.068 A 
ATOM     12  C   UNL     1      -5.571   3.406   7.613  0.00  0.00    -0.035 C 
ATOM     13  N   UNL     1      -5.437   2.943   9.016  0.00  0.00    +0.383 N 
ATOM     14  H   UNL     1      -5.713   1.956   9.070  0.00  0.00    -0.081 HD
BRANCH  11  15
ATOM     15  C   UNL     1      -1.366   0.731   6.643  0.00  0.00    +0.244 C 
ATOM     16  O   UNL     1      -0.305   1.316   6.752  0.00  0.00    -0.270 OA
ATOM     17  N   UNL     1      -1.430  -0.597   6.864  0.00  0.00    -0.325 N 
ATOM     18  H   UNL     1      -2.276  -1.064   6.777  0.00  0.00    +0.145 HD
ATOM     19  H   UNL     1      -0.629  -1.087   7.110  0.00  0.00    +0.145 HD
ENDBRANCH  11  15
BRANCH  13  21
ATOM     20  C   UNL     1      -5.873   5.200   9.924  0.00  0.00    -0.017 C 
ATOM     21  C   UNL     1      -6.320   3.738   9.897  0.00  0.00    -0.082 C 
ENDBRANCH  13  21
ENDBRANCH   1  10
BRANCH   2  22
ATOM     22  C   UNL     1      -2.103   0.915   1.353  0.00  0.00    +0.166 C 
ATOM     23  C   UNL     1      -1.652   2.103   0.498  0.00  0.00    +0.030 C 
ATOM     24  C   UNL     1      -1.062   1.585  -0.816  0.00  0.00    +0.003 C 
ATOM     25  C   UNL     1      -2.134   0.813  -1.589  0.00  0.00    +0.017 C 
ATOM     26  C   UNL     1      -2.591  -0.389  -0.757  0.00  0.00    +0.110 C 
ATOM     27  N   UNL     1      -3.025   0.087   0.564  0.00  0.00    -0.164 NA
BRANCH  27  28
ATOM     28  S   UNL     1      -4.523  -0.303   1.151  0.00  0.00    +0.068 S 
ATOM     29  O   UNL     1      -4.912  -1.507   0.505  0.00  0.00    -0.152 OA
ATOM     30  O   UNL     1      -4.447  -0.188   2.566  0.00  0.00    -0.152 OA
BRANCH  28  31
ATOM     31  C   UNL     1      -5.639   0.946   0.604  0.00  0.00    +0.143 A 
ATOM     32  C   UNL     1      -6.371   0.996  -0.536  0.00  0.00    +0.036 A 
ATOM     33  C   UNL     1      -7.192   2.086  -0.757  0.00  0.00    +0.010 A 
ATOM     34  C   UNL     1      -7.232   3.077   0.166  0.00  0.00    +0.047 A 
ATOM     35  S   UNL     1      -6.091   2.478   1.401  0.00  0.00    -0.077 S 
ENDBRANCH  28  31
ENDBRANCH  27  28
ENDBRANCH   2  22
TORSDOF 6
