REMARK  Name = ZINC67480828
REMARK  7 active torsions:
REMARK  status: ('A' for Active; 'I' for Inactive)
REMARK    1  A    between atoms: C_4  and  C_7
REMARK    2  A    between atoms: C_7  and  C_9
REMARK    3  A    between atoms: C_7  and  N_12
REMARK    4  A    between atoms: N_15  and  C_16
REMARK    5  A    between atoms: C_16  and  C_17
REMARK    6  A    between atoms: N_22  and  C_23
REMARK    7  A    between atoms: C_23  and  C_24
REMARK                            x       y       z     vdW  Elec       q    Type
REMARK                         _______ _______ _______ _____ _____    ______ ____
ROOT
ATOM      1  N   UNL     1       3.913  -2.039  -0.572  0.00  0.00    -0.284 N 
ATOM      2  C   UNL     1       4.932  -2.443  -1.357  0.00  0.00    +0.300 C 
ATOM      3  O   UNL     1       5.983  -1.832  -1.351  0.00  0.00    -0.253 OA
ATOM      4  N   UNL     1       4.785  -3.525  -2.147  0.00  0.00    -0.301 N 
ATOM      5  H   UNL     1       3.074  -2.526  -0.577  0.00  0.00    +0.151 HD
ATOM      6  H   UNL     1       3.947  -4.012  -2.151  0.00  0.00    +0.150 HD
ENDROOT
BRANCH   1   7
ATOM      7  C   UNL     1       4.072  -0.863   0.287  0.00  0.00    +0.190 C 
BRANCH   7  11
ATOM      8  C   UNL     1       0.239   0.848   1.080  0.00  0.00    +0.000 A 
ATOM      9  C   UNL     1       1.326   1.668   0.840  0.00  0.00    +0.000 A 
ATOM     10  C   UNL     1       2.566   1.115   0.583  0.00  0.00    +0.006 A 
ATOM     11  C   UNL     1       2.720  -0.259   0.568  0.00  0.00    -0.018 A 
ATOM     12  C   UNL     1       1.634  -1.079   0.809  0.00  0.00    +0.006 A 
ATOM     13  C   UNL     1       0.393  -0.525   1.064  0.00  0.00    +0.000 A 
ENDBRANCH   7  11
BRANCH   7  14
ATOM     14  C   UNL     1       4.718  -1.273   1.585  0.00  0.00    +0.235 C 
ATOM     15  O   UNL     1       5.016  -2.433   1.774  0.00  0.00    -0.274 OA
ATOM     16  N   UNL     1       4.965  -0.350   2.536  0.00  0.00    -0.328 N 
ATOM     17  H   UNL     1       4.726   0.577   2.385  0.00  0.00    +0.145 HD
ATOM     18  H   UNL     1       5.381  -0.615   3.372  0.00  0.00    +0.145 HD
ENDBRANCH   7  14
ENDBRANCH   1   7
BRANCH   4  19
ATOM     19  C   UNL     1       5.893  -3.964  -2.999  0.00  0.00    +0.090 C 
BRANCH  19  20
ATOM     20  C   UNL     1       5.493  -5.245  -3.735  0.00  0.00    -0.051 C 
ATOM     21  C   UNL     1       6.718  -5.836  -4.464  0.00  0.00    -0.016 C 
ATOM     22  C   UNL     1       6.115  -6.358  -5.794  0.00  0.00    -0.020 C 
ATOM     23  C   UNL     1       5.032  -5.290  -6.088  0.00  0.00    -0.078 C 
ATOM     24  N   UNL     1       4.477  -4.939  -4.759  0.00  0.00    +0.383 N 
ATOM     25  H   UNL     1       3.644  -5.480  -4.583  0.00  0.00    -0.081 HD
BRANCH  24  26
ATOM     26  C   UNL     1       4.152  -3.507  -4.721  0.00  0.00    -0.075 C 
BRANCH  26  27
ATOM     27  C   UNL     1       2.960  -3.229  -5.639  0.00  0.00    -0.028 C 
ATOM     28  C   UNL     1       3.397  -3.369  -7.098  0.00  0.00    +0.002 C 
ATOM     29  C   UNL     1       2.205  -3.092  -8.016  0.00  0.00    +0.000 C 
ATOM     30  C   UNL     1       1.693  -1.671  -7.772  0.00  0.00    +0.000 C 
ATOM     31  C   UNL     1       1.256  -1.531  -6.312  0.00  0.00    +0.000 C 
ATOM     32  C   UNL     1       2.448  -1.809  -5.394  0.00  0.00    +0.002 C 
ENDBRANCH  26  27
ENDBRANCH  24  26
ENDBRANCH  19  20
ENDBRANCH   4  19
TORSDOF 7
