REMARK  Name = ZINC08762966
REMARK  11 active torsions:
REMARK  status: ('A' for Active; 'I' for Inactive)
REMARK    1  A    between atoms: C_1  and  C_2
REMARK    2  A    between atoms: C_2  and  C_4
REMARK    3  A    between atoms: C_2  and  N_67
REMARK    4  A    between atoms: C_14  and  C_16
REMARK    5  A    between atoms: C_14  and  C_17
REMARK    6  A    between atoms: C_14  and  N_67
REMARK    7  A    between atoms: N_19  and  C_20
REMARK    8  A    between atoms: C_23  and  C_26
REMARK    9  A    between atoms: N_28  and  C_29
REMARK   10  A    between atoms: C_34  and  O_35
REMARK   11  A    between atoms: O_35  and  C_36
REMARK                            x       y       z     vdW  Elec       q    Type
REMARK                         _______ _______ _______ _____ _____    ______ ____
ROOT
ATOM      1  C   UNL     1       3.666   0.750   0.001  0.00  0.00    +0.203 C 
ATOM      2  O   UNL     1       3.772   1.248   1.101  0.00  0.00    -0.277 OA
ATOM      3  N   UNL     1       4.767   0.357  -0.669  0.00  0.00    -0.287 N 
ATOM      4  H   UNL     1       4.689   0.017  -1.575  0.00  0.00    +0.155 HD
ENDROOT
BRANCH   3   5
ATOM      5  C   UNL     1       6.020   0.439  -0.062  0.00  0.00    +0.033 A 
ATOM      6  C   UNL     1       6.312   1.504   0.785  0.00  0.00    +0.024 A 
ATOM      7  C   UNL     1       7.546   1.585   1.390  0.00  0.00    +0.015 A 
ATOM      8  C   UNL     1       8.509   0.603   1.145  0.00  0.00    +0.037 A 
ATOM      9  C   UNL     1       8.214  -0.463   0.289  0.00  0.00    +0.015 A 
ATOM     10  C   UNL     1       6.976  -0.541  -0.308  0.00  0.00    +0.024 A 
BRANCH   8  11
ATOM     11  C   UNL     1       9.834   0.690   1.788  0.00  0.00    +0.248 C 
ATOM     12  O   UNL     1      10.671  -0.166   1.574  0.00  0.00    -0.270 OA
ATOM     13  N   UNL     1      10.117   1.718   2.612  0.00  0.00    -0.279 N 
ATOM     14  H   UNL     1       9.429   2.364   2.836  0.00  0.00    +0.155 HD
BRANCH  13  15
ATOM     15  C   UNL     1      11.405   1.853   3.146  0.00  0.00    +0.076 A 
ATOM     16  C   UNL     1      12.201   0.733   3.334  0.00  0.00    +0.027 A 
ATOM     17  C   UNL     1      13.473   0.869   3.857  0.00  0.00    +0.002 A 
ATOM     18  C   UNL     1      13.952   2.120   4.203  0.00  0.00    +0.004 A 
ATOM     19  C   UNL     1      13.162   3.240   4.023  0.00  0.00    +0.047 A 
ATOM     20  C   UNL     1      11.887   3.112   3.495  0.00  0.00    +0.141 A 
BRANCH  20  21
ATOM     21  O   UNL     1      11.109   4.213   3.318  0.00  0.00    -0.493 OA
ATOM     22  C   UNL     1      11.670   5.472   3.699  0.00  0.00    +0.277 C 
ENDBRANCH  20  21
ENDBRANCH  13  15
ENDBRANCH   8  11
ENDBRANCH   3   5
BRANCH   1  23
ATOM     23  C   UNL     1       2.303   0.570  -0.617  0.00  0.00    +0.014 C 
ATOM     24  C   UNL     1       2.233   1.349  -1.932  0.00  0.00    -0.004 C 
BRANCH  23  25
ATOM     25  N   UNL     1       1.272   1.083   0.305  0.00  0.00    +0.391 N 
ATOM     26  H   UNL     1       1.628   1.923   0.776  0.00  0.00    -0.084 HD
ATOM     27  H   UNL     1       0.429   1.322  -0.230  0.00  0.00    -0.084 HD
BRANCH  25  29
ATOM     28  C   UNL     1      -0.180  -0.836   0.781  0.00  0.00    -0.009 C 
ATOM     29  C   UNL     1       0.936   0.063   1.316  0.00  0.00    -0.043 C 
BRANCH  29  30
ATOM     30  C   UNL     1       0.470   0.749   2.574  0.00  0.00    -0.061 A 
ATOM     31  C   UNL     1      -0.343   1.864   2.496  0.00  0.00    +0.002 A 
ATOM     32  C   UNL     1      -0.764   2.488   3.652  0.00  0.00    +0.004 A 
ATOM     33  C   UNL     1      -0.378   2.004   4.896  0.00  0.00    -0.044 A 
ATOM     34  C   UNL     1       0.428   0.890   4.974  0.00  0.00    -0.044 A 
ATOM     35  C   UNL     1       0.848   0.262   3.808  0.00  0.00    +0.006 A 
ATOM     36  C   UNL     1       0.877   0.304   6.287  0.00  0.00    +0.035 C 
ATOM     37  C   UNL     1       0.708   1.321   7.414  0.00  0.00    +0.005 C 
ATOM     38  C   UNL     1      -0.724   1.867   7.362  0.00  0.00    +0.005 C 
ATOM     39  C   UNL     1      -0.862   2.741   6.117  0.00  0.00    +0.035 C 
ENDBRANCH  29  30
ENDBRANCH  25  29
ENDBRANCH  23  25
ENDBRANCH   1  23
TORSDOF 8
