REMARK  Name = ZINC11663190
REMARK  10 active torsions:
REMARK  status: ('A' for Active; 'I' for Inactive)
REMARK    1  A    between atoms: C_1  and  C_2
REMARK    2  A    between atoms: C_2  and  C_3
REMARK    3  A    between atoms: C_3  and  C_4
REMARK    4  A    between atoms: C_4  and  N_5
REMARK    5  A    between atoms: N_5  and  C_6
REMARK    6  A    between atoms: C_7  and  C_9
REMARK    7  A    between atoms: C_10  and  C_18
REMARK    8  A    between atoms: C_18  and  N_56
REMARK    9  A    between atoms: C_19  and  C_20
REMARK   10  A    between atoms: C_19  and  N_56
REMARK                            x       y       z     vdW  Elec       q    Type
REMARK                         _______ _______ _______ _____ _____    ______ ____
ROOT
ATOM      1  C   UNL     1      -1.224   2.037   0.419  0.00  0.00    +0.146 A 
ATOM      2  C   UNL     1      -2.439   1.494   0.726  0.00  0.00    +0.039 A 
ATOM      3  N   UNL     1      -3.319   2.526   0.849  0.00  0.00    -0.305 N 
ATOM      4  C   UNL     1      -4.653   2.567   1.142  0.00  0.00    +0.093 A 
ATOM      5  C   UNL     1      -5.307   3.745   1.206  0.00  0.00    +0.018 A 
ATOM      6  C   UNL     1      -4.622   4.951   0.972  0.00  0.00    +0.005 A 
ATOM      7  C   UNL     1      -3.295   4.927   0.680  0.00  0.00    +0.047 A 
ATOM      8  C   UNL     1      -2.623   3.687   0.616  0.00  0.00    +0.139 A 
ATOM      9  N   UNL     1      -1.363   3.374   0.364  0.00  0.00    -0.223 NA
ENDROOT
BRANCH   1  12
ATOM     10  N   UNL     1       1.135   1.933  -0.220  0.00  0.00    -0.299 N 
ATOM     11  C   UNL     1       1.069   3.357  -0.557  0.00  0.00    +0.132 C 
ATOM     12  C   UNL     1       0.028   1.287   0.194  0.00  0.00    +0.266 C 
ATOM     13  O   UNL     1       0.058   0.085   0.378  0.00  0.00    -0.268 OA
BRANCH  10  14
ATOM     14  C   UNL     1       2.405   1.212  -0.333  0.00  0.00    +0.108 C 
BRANCH  14  15
ATOM     15  C   UNL     1       2.534   0.622  -1.739  0.00  0.00    +0.019 C 
BRANCH  15  17
ATOM     16  C   UNL     1       3.988  -0.721  -3.263  0.00  0.00    +0.004 C 
ATOM     17  C   UNL     1       3.860  -0.132  -1.857  0.00  0.00    -0.002 C 
ENDBRANCH  15  17
ENDBRANCH  14  15
ENDBRANCH  10  14
ENDBRANCH   1  12
BRANCH   2  18
ATOM     18  C   UNL     1      -2.748   0.029   0.895  0.00  0.00    -0.025 C 
BRANCH  18  19
ATOM     19  N   UNL     1      -3.147  -0.534  -0.409  0.00  0.00    +0.386 N 
ATOM     20  H   UNL     1      -2.379  -0.415  -1.079  0.00  0.00    -0.085 HD
ATOM     21  H   UNL     1      -3.979  -0.040  -0.751  0.00  0.00    -0.085 HD
BRANCH  19  22
ATOM     22  C   UNL     1      -3.457  -1.970  -0.273  0.00  0.00    -0.023 C 
BRANCH  22  23
ATOM     23  C   UNL     1      -3.861  -2.518  -1.618  0.00  0.00    +0.052 A 
ATOM     24  C   UNL     1      -4.215  -3.930  -1.756  0.00  0.00    +0.008 A 
ATOM     25  C   UNL     1      -4.202  -4.803  -0.666  0.00  0.00    +0.010 A 
ATOM     26  C   UNL     1      -4.548  -6.114  -0.845  0.00  0.00    +0.001 A 
ATOM     27  C   UNL     1      -4.917  -6.590  -2.097  0.00  0.00    +0.001 A 
ATOM     28  C   UNL     1      -4.943  -5.751  -3.189  0.00  0.00    +0.014 A 
ATOM     29  C   UNL     1      -4.595  -4.410  -3.030  0.00  0.00    +0.050 A 
ATOM     30  C   UNL     1      -4.603  -3.466  -4.154  0.00  0.00    +0.272 A 
ATOM     31  O   UNL     1      -4.919  -3.834  -5.272  0.00  0.00    -0.266 OA
ATOM     32  N   UNL     1      -4.255  -2.182  -3.926  0.00  0.00    -0.243 N 
ATOM     33  H   UNL     1      -4.258  -1.554  -4.664  0.00  0.00    +0.192 HD
ATOM     34  N   UNL     1      -3.890  -1.736  -2.656  0.00  0.00    -0.177 NA
ENDBRANCH  22  23
ENDBRANCH  19  22
ENDBRANCH  18  19
ENDBRANCH   2  18
TORSDOF 8
