REMARK  Name = ZINC50514367
REMARK  9 active torsions:
REMARK  status: ('A' for Active; 'I' for Inactive)
REMARK    1  A    between atoms: C_4  and  C_7
REMARK    2  A    between atoms: C_7  and  N_8
REMARK    3  A    between atoms: N_8  and  C_9
REMARK    4  A    between atoms: N_8  and  C_12
REMARK    5  A    between atoms: C_9  and  C_10
REMARK    6  A    between atoms: C_10  and  O_11
REMARK    7  A    between atoms: C_12  and  C_13
REMARK    8  A    between atoms: C_16  and  C_19
REMARK    9  A    between atoms: C_19  and  N_21
REMARK                            x       y       z     vdW  Elec       q    Type
REMARK                         _______ _______ _______ _____ _____    ______ ____
ROOT
ATOM      1  N   UNL     1       4.291  -0.867   1.414  0.00  0.00    +0.387 N 
ATOM      2  H   UNL     1       4.333  -0.153   2.126  0.00  0.00    -0.081 HD
ENDROOT
BRANCH   1   3
ATOM      3  C   UNL     1       3.617  -0.332   0.223  0.00  0.00    -0.042 C 
BRANCH   3   7
ATOM      4  C   UNL     1      -0.215   1.203   1.321  0.00  0.00    +0.000 A 
ATOM      5  C   UNL     1       0.894   2.028   1.350  0.00  0.00    +0.000 A 
ATOM      6  C   UNL     1       2.134   1.531   0.995  0.00  0.00    +0.002 A 
ATOM      7  C   UNL     1       2.265   0.209   0.611  0.00  0.00    -0.064 A 
ATOM      8  C   UNL     1       1.157  -0.616   0.584  0.00  0.00    +0.002 A 
ATOM      9  C   UNL     1      -0.084  -0.119   0.937  0.00  0.00    +0.000 A 
ENDBRANCH   3   7
ENDBRANCH   1   3
BRANCH   1  10
ATOM     10  C   UNL     1       3.541  -2.023   1.923  0.00  0.00    -0.050 C 
BRANCH  10  11
ATOM     11  C   UNL     1       4.153  -2.484   3.248  0.00  0.00    +0.137 C 
BRANCH  11  12
ATOM     12  O   UNL     1       4.006  -1.452   4.225  0.00  0.00    -0.397 OA
ATOM     13  H   UNL     1       4.372  -1.676   5.092  0.00  0.00    +0.209 HD
ENDBRANCH  11  12
ENDBRANCH  10  11
ENDBRANCH   1  10
BRANCH   1  14
ATOM     14  C   UNL     1       5.654  -1.285   1.059  0.00  0.00    -0.042 C 
BRANCH  14  15
ATOM     15  C   UNL     1       6.464  -0.076   0.666  0.00  0.00    -0.064 A 
ATOM     16  C   UNL     1       6.583   0.268  -0.669  0.00  0.00    +0.002 A 
ATOM     17  C   UNL     1       7.322   1.373  -1.036  0.00  0.00    +0.010 A 
ATOM     18  C   UNL     1       7.951   2.145  -0.056  0.00  0.00    +0.003 A 
ATOM     19  C   UNL     1       7.827   1.792   1.289  0.00  0.00    +0.010 A 
ATOM     20  C   UNL     1       7.080   0.687   1.642  0.00  0.00    +0.002 A 
BRANCH  18  21
ATOM     21  C   UNL     1       8.745   3.329  -0.441  0.00  0.00    +0.077 C 
ATOM     22  S   UNL     1       8.257   4.291  -1.770  0.00  0.00    -0.035 S 
BRANCH  21  23
ATOM     23  N   UNL     1       9.854   3.652   0.254  0.00  0.00    -0.352 N 
ATOM     24  H   UNL     1      10.130   3.107   1.007  0.00  0.00    +0.143 HD
ATOM     25  H   UNL     1      10.375   4.430   0.001  0.00  0.00    +0.143 HD
ENDBRANCH  21  23
ENDBRANCH  18  21
ENDBRANCH  14  15
ENDBRANCH   1  14
TORSDOF 9
