REMARK  Name = ZINC61697530
REMARK  14 active torsions:
REMARK  status: ('A' for Active; 'I' for Inactive)
REMARK    1  A    between atoms: C_1  and  C_2
REMARK    2  A    between atoms: C_2  and  C_3
REMARK    3  A    between atoms: C_3  and  N_4
REMARK    4  A    between atoms: N_4  and  C_5
REMARK    5  A    between atoms: C_5  and  C_7
REMARK    6  A    between atoms: C_5  and  C_8
REMARK    7  A    between atoms: C_11  and  N_15
REMARK    8  A    between atoms: N_15  and  C_16
REMARK    9  A    between atoms: N_15  and  C_20
REMARK   10  A    between atoms: C_16  and  C_17
REMARK   11  A    between atoms: C_17  and  C_18
REMARK   12  A    between atoms: C_18  and  O_19
REMARK   13  A    between atoms: C_20  and  C_21
REMARK   14  A    between atoms: C_20  and  C_22
REMARK                            x       y       z     vdW  Elec       q    Type
REMARK                         _______ _______ _______ _____ _____    ______ ____
ROOT
ATOM      1  C   UNL     1       1.555  -3.941  -2.422  0.00  0.00    -0.060 A 
ATOM      2  C   UNL     1       0.505  -4.708  -1.950  0.00  0.00    +0.004 A 
ATOM      3  C   UNL     1       0.620  -6.083  -1.903  0.00  0.00    +0.024 A 
ATOM      4  C   UNL     1       1.790  -6.697  -2.329  0.00  0.00    +0.044 A 
ATOM      5  C   UNL     1       2.843  -5.923  -2.803  0.00  0.00    +0.039 A 
ATOM      6  C   UNL     1       2.720  -4.548  -2.853  0.00  0.00    +0.019 A 
ATOM      7 BR   UNL     1       4.440  -6.753  -3.384  0.00  0.00    -0.048 Br
ENDROOT
BRANCH   1   8
ATOM      8  C   UNL     1       1.426  -2.440  -2.474  0.00  0.00    -0.044 C 
ATOM      9  C   UNL     1       0.618  -2.039  -3.710  0.00  0.00    -0.009 C 
BRANCH   8  10
ATOM     10  N   UNL     1       0.738  -1.966  -1.265  0.00  0.00    +0.383 N 
ATOM     11  H   UNL     1       1.226  -2.301  -0.447  0.00  0.00    -0.085 HD
ATOM     12  H   UNL     1      -0.208  -2.316  -1.258  0.00  0.00    -0.085 HD
BRANCH  10  13
ATOM     13  C   UNL     1       0.718  -0.497  -1.257  0.00  0.00    -0.082 C 
BRANCH  13  15
ATOM     14  C   UNL     1      -0.019   1.526   0.010  0.00  0.00    +0.002 C 
ATOM     15  C   UNL     1       0.002  -0.004   0.002  0.00  0.00    -0.022 C 
ENDBRANCH  13  15
ENDBRANCH  10  13
ENDBRANCH   8  10
ENDBRANCH   1   8
BRANCH   4  16
ATOM     16  N   UNL     1       1.910  -8.088  -2.281  0.00  0.00    -0.326 N 
BRANCH  16  17
ATOM     17  C   UNL     1       2.442  -8.737  -1.081  0.00  0.00    +0.067 C 
ATOM     18  C   UNL     1       1.392  -9.691  -0.508  0.00  0.00    +0.027 C 
ATOM     19  C   UNL     1       3.703  -9.525  -1.444  0.00  0.00    +0.027 C 
ENDBRANCH  16  17
BRANCH  16  20
ATOM     20  C   UNL     1       1.502  -8.898  -3.432  0.00  0.00    +0.107 C 
BRANCH  20  21
ATOM     21  C   UNL     1       2.694  -9.084  -4.373  0.00  0.00    +0.047 C 
BRANCH  21  22
ATOM     22  C   UNL     1       2.268  -9.930  -5.575  0.00  0.00    +0.157 C 
BRANCH  22  23
ATOM     23  O   UNL     1       3.381 -10.104  -6.454  0.00  0.00    -0.395 OA
ATOM     24  H   UNL     1       3.183 -10.632  -7.239  0.00  0.00    +0.209 HD
ENDBRANCH  22  23
ENDBRANCH  21  22
ENDBRANCH  20  21
ENDBRANCH  16  20
ENDBRANCH   4  16
TORSDOF 10
