REMARK  Name = ZINC38680823
REMARK  13 active torsions:
REMARK  status: ('A' for Active; 'I' for Inactive)
REMARK    1  A    between atoms: C_1  and  O_2
REMARK    2  A    between atoms: O_2  and  C_3
REMARK    3  A    between atoms: C_8  and  C_9
REMARK    4  A    between atoms: C_9  and  O_11
REMARK    5  A    between atoms: O_11  and  C_12
REMARK    6  A    between atoms: C_19  and  N_37
REMARK    7  A    between atoms: C_20  and  C_35
REMARK    8  A    between atoms: C_21  and  C_23
REMARK    9  A    between atoms: C_26  and  O_31
REMARK   10  A    between atoms: C_27  and  O_29
REMARK   11  A    between atoms: O_29  and  C_30
REMARK   12  A    between atoms: O_31  and  C_32
REMARK   13  A    between atoms: C_32  and  C_33
REMARK                            x       y       z     vdW  Elec       q    Type
REMARK                         _______ _______ _______ _____ _____    ______ ____
ROOT
ATOM      1  C   UNL     1       1.143  -4.781  -0.002  0.00  0.00    +0.135 A 
ATOM      2  C   UNL     1       2.298  -4.015   0.068  0.00  0.00    +0.047 A 
ATOM      3  C   UNL     1       3.534  -4.630   0.087  0.00  0.00    +0.012 A 
ATOM      4  C   UNL     1       3.627  -6.010   0.036  0.00  0.00    +0.008 A 
ATOM      5  C   UNL     1       2.476  -6.780  -0.034  0.00  0.00    +0.138 A 
ATOM      6  C   UNL     1       1.232  -6.163  -0.047  0.00  0.00    +0.093 A 
ATOM      7  O   UNL     1       2.547  -8.133  -0.085  0.00  0.00    -0.441 OA
ATOM      8  C   UNL     1       3.693  -8.731  -0.451  0.00  0.00    +0.199 C 
ATOM      9  C   UNL     1       4.883  -8.087  -0.407  0.00  0.00    +0.098 C 
ATOM     10  C   UNL     1       4.984  -6.662   0.058  0.00  0.00    +0.098 C 
ENDROOT
BRANCH  10  11
ATOM     11  C   UNL     1       5.529  -6.632   1.462  0.00  0.00    -0.031 A 
ATOM     12  C   UNL     1       4.842  -7.262   2.483  0.00  0.00    +0.008 A 
ATOM     13  C   UNL     1       5.338  -7.238   3.773  0.00  0.00    +0.050 A 
ATOM     14  C   UNL     1       6.527  -6.581   4.046  0.00  0.00    +0.162 A 
ATOM     15  C   UNL     1       7.219  -5.947   3.018  0.00  0.00    +0.162 A 
ATOM     16  C   UNL     1       6.719  -5.979   1.727  0.00  0.00    +0.054 A 
BRANCH  15  17
ATOM     17  O   UNL     1       8.387  -5.301   3.281  0.00  0.00    -0.491 OA
ATOM     18  C   UNL     1       9.043  -4.673   2.178  0.00  0.00    +0.277 C 
ENDBRANCH  15  17
BRANCH  14  19
ATOM     19  O   UNL     1       7.016  -6.556   5.314  0.00  0.00    -0.484 OA
BRANCH  19  20
ATOM     20  C   UNL     1       6.252  -7.228   6.318  0.00  0.00    +0.256 C 
BRANCH  20  21
ATOM     21  C   UNL     1       6.944  -7.094   7.650  0.00  0.00    +0.006 C 
ATOM     22  C   UNL     1       6.253  -6.784   8.719  0.00  0.00    +0.007 C 
ENDBRANCH  20  21
ENDBRANCH  19  20
ENDBRANCH  14  19
ENDBRANCH  10  11
BRANCH   8  23
ATOM     23  N   UNL     1       3.656 -10.033  -0.883  0.00  0.00    -0.328 N 
ATOM     24  H   UNL     1       2.811 -10.508  -0.920  0.00  0.00    +0.145 HD
ATOM     25  H   UNL     1       4.475 -10.479  -1.151  0.00  0.00    +0.145 HD
ENDBRANCH   8  23
BRANCH   9  26
ATOM     26  C   UNL     1       6.070  -8.779  -0.811  0.00  0.00    +0.101 C 
ATOM     27  N   UNL     1       7.012  -9.327  -1.131  0.00  0.00    -0.191 NA
ENDBRANCH   9  26
BRANCH   1  28
ATOM     28  O   UNL     1      -0.075  -4.177  -0.020  0.00  0.00    -0.422 OA
BRANCH  28  29
ATOM     29  C   UNL     1      -0.798  -4.177   1.117  0.00  0.00    +0.348 C 
ATOM     30  O   UNL     1      -0.399  -4.783   2.091  0.00  0.00    -0.244 OA
BRANCH  29  36
ATOM     31  C   UNL     1      -2.831  -3.439   2.359  0.00  0.00    +0.134 A 
ATOM     32  C   UNL     1      -4.027  -2.739   2.407  0.00  0.00    +0.046 A 
ATOM     33  C   UNL     1      -4.473  -2.054   1.295  0.00  0.00    +0.004 A 
ATOM     34  C   UNL     1      -3.732  -2.058   0.124  0.00  0.00    +0.001 A 
ATOM     35  C   UNL     1      -2.541  -2.748   0.058  0.00  0.00    +0.018 A 
ATOM     36  C   UNL     1      -2.075  -3.442   1.178  0.00  0.00    +0.101 A 
BRANCH  31  38
ATOM     37  C   UNL     1      -3.215  -4.066   4.617  0.00  0.00    +0.277 C 
ATOM     38  O   UNL     1      -2.392  -4.114   3.451  0.00  0.00    -0.494 OA
ENDBRANCH  31  38
ENDBRANCH  29  36
ENDBRANCH  28  29
ENDBRANCH   1  28
TORSDOF 11
