REMARK  Name = ZINC67292323
REMARK  4 active torsions:
REMARK  status: ('A' for Active; 'I' for Inactive)
REMARK    1  A    between atoms: C_6  and  N_7
REMARK    2  A    between atoms: C_9  and  C_19
REMARK    3  A    between atoms: N_21  and  C_22
REMARK    4  A    between atoms: C_22  and  C_23
REMARK                            x       y       z     vdW  Elec       q    Type
REMARK                         _______ _______ _______ _____ _____    ______ ____
ROOT
ATOM      1  N   UNL     1      -1.170  -0.715   0.011  0.00  0.00    -0.325 N 
ATOM      2  C   UNL     1      -2.140  -0.364   0.826  0.00  0.00    +0.212 A 
ATOM      3  C   UNL     1      -3.454  -1.035   0.779  0.00  0.00    +0.097 A 
ATOM      4  C   UNL     1      -4.199  -1.050   1.950  0.00  0.00    +0.030 A 
ATOM      5  C   UNL     1      -3.617  -0.399   3.127  0.00  0.00    +0.019 A 
ATOM      6  C   UNL     1      -4.167  -0.595   4.399  0.00  0.00    +0.026 A 
ATOM      7  C   UNL     1      -3.598   0.026   5.489  0.00  0.00    +0.019 A 
ATOM      8  C   UNL     1      -2.485   0.841   5.331  0.00  0.00    +0.019 A 
ATOM      9  C   UNL     1      -1.934   1.045   4.082  0.00  0.00    +0.048 A 
ATOM     10  C   UNL     1      -2.491   0.431   2.971  0.00  0.00    +0.137 A 
ATOM     11  O   UNL     1      -1.962   0.624   1.741  0.00  0.00    -0.439 OA
ATOM     12 BR   UNL     1      -4.336  -0.234   7.211  0.00  0.00    -0.050 Br
ATOM     13  H   UNL     1      -1.282  -1.479  -0.576  0.00  0.00    +0.169 HD
ENDROOT
BRANCH   1  19
ATOM     14  C   UNL     1      -0.033   1.394  -0.019  0.00  0.00    +0.029 A 
ATOM     15  C   UNL     1       1.147   2.108  -0.041  0.00  0.00    +0.051 A 
ATOM     16  C   UNL     1       2.367   1.446  -0.052  0.00  0.00    +0.162 A 
ATOM     17  C   UNL     1       2.405   0.055  -0.040  0.00  0.00    +0.164 A 
ATOM     18  C   UNL     1       1.225  -0.669  -0.020  0.00  0.00    +0.075 A 
ATOM     19  C   UNL     1      -0.002  -0.002  -0.009  0.00  0.00    +0.046 A 
ATOM     20  O   UNL     1       3.593  -0.609  -0.042  0.00  0.00    -0.485 OA
ATOM     21  C   UNL     1       4.748   0.139  -0.438  0.00  0.00    +0.270 C 
ATOM     22  C   UNL     1       4.720   1.488   0.292  0.00  0.00    +0.270 C 
ATOM     23  O   UNL     1       3.519   2.173  -0.077  0.00  0.00    -0.485 OA
ENDBRANCH   1  19
BRANCH   3  24
ATOM     24  C   UNL     1      -3.953  -1.663  -0.457  0.00  0.00    +0.249 C 
ATOM     25  O   UNL     1      -3.243  -1.712  -1.443  0.00  0.00    -0.270 OA
ATOM     26  N   UNL     1      -5.196  -2.182  -0.495  0.00  0.00    -0.309 N 
ATOM     27  H   UNL     1      -5.788  -2.078   0.266  0.00  0.00    +0.149 HD
BRANCH  26  28
ATOM     28  C   UNL     1      -5.652  -2.905  -1.685  0.00  0.00    +0.136 C 
BRANCH  28  29
ATOM     29  C   UNL     1      -7.088  -3.387  -1.469  0.00  0.00    +0.135 C 
ATOM     30  C   UNL     1      -7.535  -4.252  -2.667  0.00  0.00    +0.035 C 
ATOM     31  C   UNL     1      -9.011  -3.811  -2.860  0.00  0.00    +0.031 C 
ATOM     32  C   UNL     1      -8.925  -2.315  -2.467  0.00  0.00    +0.160 C 
ATOM     33  O   UNL     1      -7.972  -2.263  -1.391  0.00  0.00    -0.375 OA
ENDBRANCH  28  29
ENDBRANCH  26  28
ENDBRANCH   3  24
TORSDOF 4
