REMARK  Name = ZINC40720824
REMARK  12 active torsions:
REMARK  status: ('A' for Active; 'I' for Inactive)
REMARK    1  A    between atoms: C_4  and  C_8
REMARK    2  A    between atoms: C_8  and  O_9
REMARK    3  A    between atoms: O_9  and  C_10
REMARK    4  A    between atoms: C_15  and  C_16
REMARK    5  A    between atoms: C_16  and  N_17
REMARK    6  A    between atoms: N_17  and  C_18
REMARK    7  A    between atoms: C_18  and  C_19
REMARK    8  A    between atoms: C_19  and  C_20
REMARK    9  A    between atoms: C_20  and  N_21
REMARK   10  A    between atoms: N_21  and  C_22
REMARK   11  A    between atoms: C_22  and  C_23
REMARK   12  A    between atoms: C_23  and  O_24
REMARK                            x       y       z     vdW  Elec       q    Type
REMARK                         _______ _______ _______ _____ _____    ______ ____
ROOT
ATOM      1  C   UNL     1       5.319  -1.609   1.467  0.00  0.00    +0.122 A 
ATOM      2  C   UNL     1       6.049  -2.011   0.358  0.00  0.00    +0.047 A 
ATOM      3  C   UNL     1       7.246  -2.680   0.526  0.00  0.00    +0.019 A 
ATOM      4  C   UNL     1       7.716  -2.950   1.799  0.00  0.00    +0.018 A 
ATOM      5  C   UNL     1       6.989  -2.550   2.906  0.00  0.00    +0.020 A 
ATOM      6  C   UNL     1       5.795  -1.875   2.742  0.00  0.00    -0.022 A 
ATOM      7 BR   UNL     1       9.354  -3.867   2.025  0.00  0.00    -0.050 Br
ENDROOT
BRANCH   1   8
ATOM      8  O   UNL     1       4.142  -0.949   1.304  0.00  0.00    -0.487 OA
BRANCH   8   9
ATOM      9  C   UNL     1       3.713  -0.710  -0.038  0.00  0.00    +0.268 C 
BRANCH   9  13
ATOM     10  C   UNL     1      -0.017   1.378   0.010  0.00  0.00    +0.004 A 
ATOM     11  C   UNL     1       1.170   2.086   0.002  0.00  0.00    +0.039 A 
ATOM     12  C   UNL     1       2.379   1.411  -0.013  0.00  0.00    +0.131 A 
ATOM     13  C   UNL     1       2.398   0.026  -0.021  0.00  0.00    +0.043 A 
ATOM     14  C   UNL     1       1.209  -0.680  -0.013  0.00  0.00    +0.050 A 
ATOM     15  C   UNL     1       0.002  -0.004   0.002  0.00  0.00    +0.020 A 
ATOM     16 CL   UNL     1       1.232  -2.416  -0.022  0.00  0.00    -0.083 Cl
ATOM     17  F   UNL     1       3.539   2.103  -0.021  0.00  0.00    -0.205 F 
ENDBRANCH   9  13
ENDBRANCH   8   9
ENDBRANCH   1   8
BRANCH   6  18
ATOM     18  C   UNL     1       5.008  -1.433   3.949  0.00  0.00    -0.043 C 
BRANCH  18  19
ATOM     19  N   UNL     1       3.917  -2.385   4.197  0.00  0.00    +0.382 N 
ATOM     20  H   UNL     1       3.309  -2.418   3.393  0.00  0.00    -0.085 HD
ATOM     21  H   UNL     1       4.303  -3.302   4.365  0.00  0.00    -0.085 HD
BRANCH  19  22
ATOM     22  C   UNL     1       3.149  -1.954   5.373  0.00  0.00    -0.084 C 
BRANCH  22  23
ATOM     23  C   UNL     1       2.014  -2.946   5.632  0.00  0.00    -0.038 C 
BRANCH  23  24
ATOM     24  C   UNL     1       1.214  -2.498   6.857  0.00  0.00    -0.084 C 
BRANCH  24  25
ATOM     25  N   UNL     1       0.123  -3.450   7.105  0.00  0.00    +0.380 N 
ATOM     26  H   UNL     1      -0.484  -3.483   6.301  0.00  0.00    -0.086 HD
ATOM     27  H   UNL     1       0.509  -4.367   7.273  0.00  0.00    -0.086 HD
BRANCH  25  28
ATOM     28  C   UNL     1      -0.644  -3.019   8.281  0.00  0.00    -0.054 C 
BRANCH  28  29
ATOM     29  C   UNL     1      -1.780  -4.011   8.540  0.00  0.00    +0.137 C 
BRANCH  29  30
ATOM     30  O   UNL     1      -1.232  -5.283   8.892  0.00  0.00    -0.397 OA
ATOM     31  H   UNL     1      -1.896  -5.962   9.070  0.00  0.00    +0.209 HD
ENDBRANCH  29  30
ENDBRANCH  28  29
ENDBRANCH  25  28
ENDBRANCH  24  25
ENDBRANCH  23  24
ENDBRANCH  22  23
ENDBRANCH  19  22
ENDBRANCH  18  19
ENDBRANCH   6  18
TORSDOF 12
