REMARK  Name = ZINC67263414
REMARK  13 active torsions:
REMARK  status: ('A' for Active; 'I' for Inactive)
REMARK    1  A    between atoms: C_1  and  C_2
REMARK    2  A    between atoms: C_2  and  N_3
REMARK    3  A    between atoms: N_3  and  C_4
REMARK    4  A    between atoms: N_3  and  C_6
REMARK    5  A    between atoms: C_4  and  C_5
REMARK    6  A    between atoms: C_6  and  C_7
REMARK    7  A    between atoms: C_12  and  N_13
REMARK    8  A    between atoms: N_16  and  C_17
REMARK    9  A    between atoms: C_17  and  C_18
REMARK   10  A    between atoms: C_22  and  C_24
REMARK   11  A    between atoms: N_26  and  C_27
REMARK   12  A    between atoms: C_27  and  C_28
REMARK   13  A    between atoms: C_27  and  C_29
REMARK                            x       y       z     vdW  Elec       q    Type
REMARK                         _______ _______ _______ _____ _____    ______ ____
ROOT
ATOM      1  N   UNL     1      -1.319  -1.814  -4.140  0.00  0.00    -0.269 N 
ATOM      2  C   UNL     1      -2.067  -1.507  -5.218  0.00  0.00    +0.304 C 
ATOM      3  O   UNL     1      -3.280  -1.571  -5.154  0.00  0.00    -0.252 OA
ATOM      4  N   UNL     1      -1.472  -1.128  -6.366  0.00  0.00    -0.295 N 
ATOM      5  H   UNL     1      -0.356  -1.700  -4.169  0.00  0.00    +0.156 HD
ATOM      6  H   UNL     1      -0.504  -1.077  -6.416  0.00  0.00    +0.151 HD
ENDROOT
BRANCH   1  12
ATOM      7  C   UNL     1      -1.392  -2.001  -1.733  0.00  0.00    -0.043 A 
ATOM      8  C   UNL     1      -2.001  -2.475  -0.587  0.00  0.00    +0.003 A 
ATOM      9  C   UNL     1      -3.143  -3.249  -0.680  0.00  0.00    +0.000 A 
ATOM     10  C   UNL     1      -3.679  -3.551  -1.919  0.00  0.00    +0.002 A 
ATOM     11  C   UNL     1      -3.074  -3.080  -3.067  0.00  0.00    +0.023 A 
ATOM     12  C   UNL     1      -1.931  -2.298  -2.978  0.00  0.00    +0.036 A 
BRANCH   7  13
ATOM     13  C   UNL     1      -0.147  -1.158  -1.631  0.00  0.00    -0.041 C 
BRANCH  13  14
ATOM     14  N   UNL     1      -0.503   0.260  -1.774  0.00  0.00    +0.382 N 
ATOM     15  H   UNL     1      -1.011   0.395  -2.635  0.00  0.00    -0.081 HD
BRANCH  14  17
ATOM     16  C   UNL     1      -1.831   2.104  -0.860  0.00  0.00    -0.017 C 
ATOM     17  C   UNL     1      -1.344   0.670  -0.641  0.00  0.00    -0.082 C 
ENDBRANCH  14  17
BRANCH  14  18
ATOM     18  C   UNL     1       0.720   1.073  -1.794  0.00  0.00    -0.082 C 
ATOM     19  C   UNL     1       1.530   0.744  -3.050  0.00  0.00    -0.017 C 
ENDBRANCH  14  18
ENDBRANCH  13  14
ENDBRANCH   7  13
ENDBRANCH   1  12
BRANCH   4  20
ATOM     20  C   UNL     1      -2.285  -0.794  -7.537  0.00  0.00    +0.141 C 
BRANCH  20  21
ATOM     21  C   UNL     1      -1.384  -0.405  -8.681  0.00  0.00    -0.030 A 
ATOM     22  C   UNL     1      -1.008   0.916  -8.846  0.00  0.00    +0.005 A 
ATOM     23  C   UNL     1      -0.181   1.281  -9.892  0.00  0.00    +0.001 A 
ATOM     24  C   UNL     1       0.275   0.328 -10.780  0.00  0.00    +0.013 A 
ATOM     25  C   UNL     1      -0.100  -1.006 -10.619  0.00  0.00    +0.037 A 
ATOM     26  C   UNL     1      -0.930  -1.369  -9.557  0.00  0.00    +0.018 A 
BRANCH  25  27
ATOM     27  C   UNL     1       0.385  -2.033 -11.566  0.00  0.00    +0.244 C 
ATOM     28  O   UNL     1       0.057  -3.195 -11.424  0.00  0.00    -0.270 OA
ATOM     29  N   UNL     1       1.191  -1.681 -12.588  0.00  0.00    -0.309 N 
ATOM     30  H   UNL     1       1.453  -0.753 -12.701  0.00  0.00    +0.149 HD
BRANCH  29  31
ATOM     31  C   UNL     1       1.671  -2.698 -13.526  0.00  0.00    +0.067 C 
ATOM     32  C   UNL     1       0.625  -2.917 -14.621  0.00  0.00    +0.027 C 
ATOM     33  C   UNL     1       2.982  -2.228 -14.161  0.00  0.00    +0.027 C 
ENDBRANCH  29  31
ENDBRANCH  25  27
ENDBRANCH  20  21
ENDBRANCH   4  20
TORSDOF 9
