REMARK  Name = ZINC39708719
REMARK  8 active torsions:
REMARK  status: ('A' for Active; 'I' for Inactive)
REMARK    1  A    between atoms: C_1  and  C_2
REMARK    2  A    between atoms: C_2  and  C_3
REMARK    3  A    between atoms: C_3  and  C_5
REMARK    4  A    between atoms: C_3  and  S_18
REMARK    5  A    between atoms: N_7  and  C_8
REMARK    6  A    between atoms: C_11  and  S_14
REMARK    7  A    between atoms: S_14  and  N_17
REMARK    8  A    between atoms: S_18  and  C_19
REMARK                            x       y       z     vdW  Elec       q    Type
REMARK                         _______ _______ _______ _____ _____    ______ ____
ROOT
ATOM      1  C   UNL     1       0.552  -0.873  -1.502  0.00  0.00    +0.140 C 
ENDROOT
BRANCH   1   2
ATOM      2  C   UNL     1       0.543  -2.372  -1.344  0.00  0.00    +0.231 C 
ATOM      3  O   UNL     1      -0.244  -3.044  -1.975  0.00  0.00    -0.274 OA
ATOM      4  N   UNL     1       1.411  -2.966  -0.501  0.00  0.00    -0.285 N 
ATOM      5  H   UNL     1       2.087  -2.437  -0.048  0.00  0.00    +0.155 HD
BRANCH   4   6
ATOM      6  C   UNL     1       1.339  -4.345  -0.280  0.00  0.00    +0.034 A 
ATOM      7  C   UNL     1       2.496  -5.072  -0.028  0.00  0.00    +0.025 A 
ATOM      8  C   UNL     1       2.421  -6.433   0.190  0.00  0.00    +0.030 A 
ATOM      9  C   UNL     1       1.196  -7.074   0.158  0.00  0.00    +0.105 A 
ATOM     10  C   UNL     1       0.042  -6.354  -0.094  0.00  0.00    +0.030 A 
ATOM     11  C   UNL     1       0.110  -4.991  -0.306  0.00  0.00    +0.025 A 
BRANCH   9  12
ATOM     12  S   UNL     1       1.104  -8.811   0.436  0.00  0.00    +0.056 S 
ATOM     13  O   UNL     1      -0.091  -9.260  -0.187  0.00  0.00    -0.153 OA
ATOM     14  O   UNL     1       2.381  -9.343   0.108  0.00  0.00    -0.153 OA
BRANCH  12  15
ATOM     15  N   UNL     1       0.903  -9.036   2.064  0.00  0.00    -0.204 NA
ATOM     16  H   UNL     1       0.415  -9.808   2.391  0.00  0.00    +0.144 HD
ATOM     17  H   UNL     1       1.273  -8.396   2.692  0.00  0.00    +0.144 HD
ENDBRANCH  12  15
ENDBRANCH   9  12
ENDBRANCH   4   6
ENDBRANCH   1   2
BRANCH   1  19
ATOM     18  C   UNL     1      -0.067   1.289  -0.413  0.00  0.00    +0.005 C 
ATOM     19  C   UNL     1      -0.203  -0.233  -0.335  0.00  0.00    +0.020 C 
ENDBRANCH   1  19
BRANCH   1  20
ATOM     20  S   UNL     1      -0.256  -0.425  -3.062  0.00  0.00    -0.072 S 
BRANCH  20  21
ATOM     21  C   UNL     1       0.801  -1.101  -4.299  0.00  0.00    +0.208 C 
ATOM     22  N   UNL     1       1.863  -1.764  -3.909  0.00  0.00    -0.227 NA
ATOM     23  C   UNL     1       2.776  -2.253  -4.940  0.00  0.00    +0.252 C 
ATOM     24  C   UNL     1       1.931  -2.484  -6.185  0.00  0.00    +0.117 C 
ATOM     25  C   UNL     1       2.257  -3.732  -6.622  0.00  0.00    +0.025 A 
ATOM     26  C   UNL     1       1.890  -4.460  -7.781  0.00  0.00    +0.012 A 
ATOM     27  C   UNL     1       2.389  -5.719  -7.912  0.00  0.00    +0.001 A 
ATOM     28  C   UNL     1       3.232  -6.331  -6.980  0.00  0.00    +0.002 A 
ATOM     29  C   UNL     1       3.654  -5.726  -5.838  0.00  0.00    +0.026 A 
ATOM     30  C   UNL     1       3.169  -4.354  -5.614  0.00  0.00    +0.046 A 
ATOM     31  N   UNL     1       3.412  -3.528  -4.641  0.00  0.00    -0.358 N 
ATOM     32  N   UNL     1       0.994  -1.607  -6.559  0.00  0.00    -0.147 NA
ATOM     33  N   UNL     1       0.466  -0.911  -5.599  0.00  0.00    -0.122 NA
ATOM     34  H   UNL     1       3.931  -3.728  -3.847  0.00  0.00    +0.162 HD
ENDBRANCH  20  21
ENDBRANCH   1  20
TORSDOF 7
