REMARK  Name = ZINC26805819
REMARK  8 active torsions:
REMARK  status: ('A' for Active; 'I' for Inactive)
REMARK    1  A    between atoms: C_1  and  C_2
REMARK    2  A    between atoms: C_7  and  C_8
REMARK    3  A    between atoms: N_10  and  C_11
REMARK    4  A    between atoms: C_11  and  C_22
REMARK    5  A    between atoms: C_12  and  C_13
REMARK    6  A    between atoms: N_24  and  C_25
REMARK    7  A    between atoms: C_25  and  C_26
REMARK    8  A    between atoms: C_26  and  N_27
REMARK                            x       y       z     vdW  Elec       q    Type
REMARK                         _______ _______ _______ _____ _____    ______ ____
ROOT
ATOM      1  C   UNL     1       0.506   0.951   0.383  0.00  0.00    +0.097 C 
ATOM      2  C   UNL     1      -0.755   0.555   0.676  0.00  0.00    +0.036 C 
ENDROOT
BRANCH   2   3
ATOM      3  C   UNL     1      -1.056  -0.874   0.849  0.00  0.00    -0.019 A 
ATOM      4  C   UNL     1      -0.278  -1.838   0.199  0.00  0.00    +0.012 A 
ATOM      5  C   UNL     1      -0.559  -3.176   0.366  0.00  0.00    +0.050 A 
ATOM      6  C   UNL     1      -1.619  -3.573   1.171  0.00  0.00    +0.166 A 
ATOM      7  C   UNL     1      -2.402  -2.617   1.819  0.00  0.00    +0.167 A 
ATOM      8  C   UNL     1      -2.124  -1.273   1.660  0.00  0.00    +0.057 A 
ATOM      9  O   UNL     1      -3.367  -3.260   2.540  0.00  0.00    -0.453 OA
ATOM     10  C   UNL     1      -2.915  -4.622   2.655  0.00  0.00    +0.466 C 
ATOM     11  O   UNL     1      -2.095  -4.812   1.488  0.00  0.00    -0.453 OA
ENDBRANCH   2   3
BRANCH   1  14
ATOM     12  C   UNL     1       2.213  -0.096  -0.901  0.00  0.00    +0.249 C 
ATOM     13  O   UNL     1       2.009   0.698  -1.799  0.00  0.00    -0.270 OA
ATOM     14  N   UNL     1       1.525   0.001   0.253  0.00  0.00    -0.277 N 
ATOM     15  H   UNL     1       1.765  -0.666   1.094  0.00  0.00    +0.155 HD
BRANCH  12  22
ATOM     16  C   UNL     1       3.743  -0.238  -3.353  0.00  0.00    +0.044 C 
ATOM     17  C   UNL     1       3.960  -1.246  -2.255  0.00  0.00    -0.038 A 
ATOM     18  C   UNL     1       4.895  -2.248  -2.411  0.00  0.00    +0.004 A 
ATOM     19  C   UNL     1       5.096  -3.174  -1.403  0.00  0.00    +0.000 A 
ATOM     20  C   UNL     1       4.362  -3.102  -0.232  0.00  0.00    +0.001 A 
ATOM     21  C   UNL     1       3.428  -2.102  -0.061  0.00  0.00    +0.013 A 
ATOM     22  C   UNL     1       3.216  -1.167  -1.076  0.00  0.00    +0.040 A 
ENDBRANCH  12  22
ENDBRANCH   1  14
BRANCH   1  23
ATOM     23  C   UNL     1       0.804   2.377   0.199  0.00  0.00    +0.258 C 
ATOM     24  O   UNL     1      -0.099   3.193   0.210  0.00  0.00    -0.269 OA
ATOM     25  N   UNL     1       2.076   2.782   0.014  0.00  0.00    -0.309 N 
ATOM     26  H   UNL     1       2.881   2.038  -0.082  0.00  0.00    +0.149 HD
BRANCH  25  27
ATOM     27  C   UNL     1       2.387   4.211  -0.060  0.00  0.00    +0.120 C 
BRANCH  27  28
ATOM     28  C   UNL     1       3.890   4.396  -0.273  0.00  0.00    +0.103 C 
BRANCH  28  29
ATOM     29  N   UNL     1       4.202   5.830  -0.347  0.00  0.00    -0.304 NA
ATOM     30  C   UNL     1       3.531   6.571   0.730  0.00  0.00    +0.065 C 
ATOM     31  C   UNL     1       3.816   8.066   0.571  0.00  0.00    -0.067 C 
ATOM     32  N   UNL     1       5.268   8.292   0.605  0.00  0.00    +0.381 N 
ATOM     33  C   UNL     1       5.939   7.551  -0.473  0.00  0.00    -0.067 C 
ATOM     34  C   UNL     1       5.654   6.056  -0.314  0.00  0.00    +0.065 C 
ATOM     35  H   UNL     1       5.475   9.365   0.478  0.00  0.00    -0.086 HD
ATOM     36  H   UNL     1       5.670   7.952   1.571  0.00  0.00    -0.086 HD
ENDBRANCH  28  29
ENDBRANCH  27  28
ENDBRANCH  25  27
ENDBRANCH   1  23
TORSDOF 7
