REMARK  Name = ZINC66246600
REMARK  7 active torsions:
REMARK  status: ('A' for Active; 'I' for Inactive)
REMARK    1  A    between atoms: C_1  and  C_2
REMARK    2  A    between atoms: C_5  and  C_8
REMARK    3  A    between atoms: C_10  and  C_13
REMARK    4  A    between atoms: C_13  and  C_14
REMARK    5  A    between atoms: C_14  and  N_15
REMARK    6  A    between atoms: N_17  and  C_18
REMARK    7  A    between atoms: C_18  and  C_19
REMARK                            x       y       z     vdW  Elec       q    Type
REMARK                         _______ _______ _______ _____ _____    ______ ____
ROOT
ATOM      1  C   UNL     1       1.279  -6.987   2.900  0.00  0.00    +0.121 C 
ENDROOT
BRANCH   1   2
ATOM      2  N   UNL     1       1.292  -7.899   4.047  0.00  0.00    -0.357 N 
ATOM      3  C   UNL     1       2.265  -7.778   5.010  0.00  0.00    +0.169 C 
ATOM      4  N   UNL     1       2.277  -8.589   6.030  0.00  0.00    -0.355 N 
ATOM      5  N   UNL     1       3.227  -6.803   4.897  0.00  0.00    -0.371 N 
ATOM      6  H   UNL     1       0.613  -8.587   4.127  0.00  0.00    +0.162 HD
ATOM      7  H   UNL     1       3.219  -6.199   4.138  0.00  0.00    +0.159 HD
ATOM      8  H   UNL     1       3.914  -6.718   5.577  0.00  0.00    +0.159 HD
ATOM      9  H   UNL     1       1.598  -9.278   6.110  0.00  0.00    +0.162 HD
BRANCH   4  10
ATOM     10  C   UNL     1       3.314  -8.461   7.057  0.00  0.00    +0.147 C 
BRANCH  10  11
ATOM     11  C   UNL     1       3.100  -9.526   8.134  0.00  0.00    +0.137 C 
ATOM     12  C   UNL     1       4.167  -9.385   9.249  0.00  0.00    +0.035 C 
ATOM     13  C   UNL     1       3.427 -10.036  10.449  0.00  0.00    +0.031 C 
ATOM     14  C   UNL     1       1.960  -9.636  10.186  0.00  0.00    +0.160 C 
ATOM     15  O   UNL     1       1.839  -9.323   8.792  0.00  0.00    -0.375 OA
ENDBRANCH  10  11
ENDBRANCH   4  10
ENDBRANCH   1   2
BRANCH   1  16
ATOM     16  C   UNL     1       0.102  -7.334   1.986  0.00  0.00    +0.077 C 
BRANCH  16  19
ATOM     17  C   UNL     1       0.061  -4.251  -0.021  0.00  0.00    +0.109 A 
ATOM     18  N   UNL     1       0.072  -5.098   0.998  0.00  0.00    -0.244 NA
ATOM     19  C   UNL     1       0.089  -6.396   0.806  0.00  0.00    +0.051 A 
ATOM     20  C   UNL     1       0.097  -6.894  -0.459  0.00  0.00    +0.070 A 
ATOM     21  S   UNL     1       0.068  -5.379  -1.409  0.00  0.00    -0.075 S 
BRANCH  17  26
ATOM     22  C   UNL     1      -0.018   1.503   0.010  0.00  0.00    +0.044 C 
ATOM     23  C   UNL     1       0.002  -0.004   0.002  0.00  0.00    -0.050 A 
ATOM     24  C   UNL     1       0.006  -0.686  -1.202  0.00  0.00    +0.004 A 
ATOM     25  C   UNL     1       0.025  -2.066  -1.216  0.00  0.00    +0.011 A 
ATOM     26  C   UNL     1       0.041  -2.773  -0.013  0.00  0.00    +0.007 A 
ATOM     27  C   UNL     1       0.037  -2.079   1.197  0.00  0.00    +0.011 A 
ATOM     28  C   UNL     1       0.023  -0.699   1.198  0.00  0.00    +0.004 A 
ENDBRANCH  17  26
ENDBRANCH  16  19
ENDBRANCH   1  16
TORSDOF 6
