REMARK  Name = ZINC08653438
REMARK  9 active torsions:
REMARK  status: ('A' for Active; 'I' for Inactive)
REMARK    1  A    between atoms: C_4  and  C_7
REMARK    2  A    between atoms: C_9  and  C_33
REMARK    3  A    between atoms: N_13  and  N_14
REMARK    4  A    between atoms: N_14  and  C_15
REMARK    5  A    between atoms: C_16  and  C_17
REMARK    6  A    between atoms: C_17  and  C_19
REMARK    7  A    between atoms: C_17  and  S_25
REMARK    8  A    between atoms: S_25  and  C_26
REMARK    9  A    between atoms: C_31  and  N_32
REMARK                            x       y       z     vdW  Elec       q    Type
REMARK                         _______ _______ _______ _____ _____    ______ ____
ROOT
ATOM      1  C   UNL     1      -6.762   1.700  -6.546  0.00  0.00    +0.163 C 
ATOM      2  C   UNL     1      -6.759   0.956  -7.850  0.00  0.00    +0.093 C 
ATOM      3  N   UNL     1      -6.541  -0.318  -7.904  0.00  0.00    -0.182 NA
ATOM      4  N   UNL     1      -6.287  -1.036  -6.729  0.00  0.00    -0.209 N 
ATOM      5  C   UNL     1      -5.930  -0.356  -5.587  0.00  0.00    +0.191 C 
ATOM      6  N   UNL     1      -5.345  -1.037  -4.545  0.00  0.00    -0.239 N 
ATOM      7  H   UNL     1      -6.367  -2.002  -6.720  0.00  0.00    +0.177 HD
ATOM      8  H   UNL     1      -5.191  -1.992  -4.615  0.00  0.00    +0.173 HD
ATOM      9  N   UNL     1      -6.108   0.960  -5.412  0.00  0.00    -0.346 N 
ATOM     10  H   UNL     1      -5.815   1.438  -4.551  0.00  0.00    +0.163 HD
ENDROOT
BRANCH   1  14
ATOM     11  C   UNL     1     -10.797   2.562  -5.441  0.00  0.00    +0.000 A 
ATOM     12  C   UNL     1     -10.305   1.276  -5.311  0.00  0.00    +0.000 A 
ATOM     13  C   UNL     1      -8.999   0.998  -5.669  0.00  0.00    +0.006 A 
ATOM     14  C   UNL     1      -8.186   2.004  -6.157  0.00  0.00    -0.019 A 
ATOM     15  C   UNL     1      -8.677   3.290  -6.281  0.00  0.00    +0.006 A 
ATOM     16  C   UNL     1      -9.984   3.568  -5.928  0.00  0.00    +0.000 A 
ENDBRANCH   1  14
BRANCH   2  17
ATOM     17  C   UNL     1      -7.011   1.696  -9.101  0.00  0.00    +0.000 A 
ATOM     18  C   UNL     1      -7.093   3.091  -9.086  0.00  0.00    +0.010 A 
ATOM     19  C   UNL     1      -7.324   3.777 -10.260  0.00  0.00    +0.001 A 
ATOM     20  C   UNL     1      -7.484   3.087 -11.449  0.00  0.00    +0.000 A 
ATOM     21  C   UNL     1      -7.410   1.705 -11.470  0.00  0.00    +0.001 A 
ATOM     22  C   UNL     1      -7.174   1.006 -10.304  0.00  0.00    +0.010 A 
ENDBRANCH   2  17
BRANCH   6  23
ATOM     23  N   UNL     1      -4.973  -0.351  -3.381  0.00  0.00    -0.272 N 
ATOM     24  H   UNL     1      -5.128   0.604  -3.310  0.00  0.00    +0.169 HD
BRANCH  23  25
ATOM     25  C   UNL     1      -4.383  -1.038  -2.328  0.00  0.00    +0.085 C 
ATOM     26  C   UNL     1      -4.032  -0.392  -1.232  0.00  0.00    +0.008 C 
BRANCH  26  27
ATOM     27  C   UNL     1      -3.392  -1.138  -0.090  0.00  0.00    +0.105 C 
BRANCH  27  28
ATOM     28  C   UNL     1      -2.077  -0.489   0.260  0.00  0.00    -0.030 A 
ATOM     29  C   UNL     1      -0.904  -1.215   0.176  0.00  0.00    +0.005 A 
ATOM     30  C   UNL     1       0.302  -0.618   0.491  0.00  0.00    +0.000 A 
ATOM     31  C   UNL     1       0.335   0.704   0.895  0.00  0.00    +0.000 A 
ATOM     32  C   UNL     1      -0.839   1.428   0.983  0.00  0.00    +0.000 A 
ATOM     33  C   UNL     1      -2.045   0.831   0.668  0.00  0.00    +0.005 A 
ENDBRANCH  27  28
BRANCH  27  34
ATOM     34  S   UNL     1      -4.490  -1.094   1.353  0.00  0.00    -0.111 S 
BRANCH  34  35
ATOM     35  C   UNL     1      -3.681  -2.118   2.537  0.00  0.00    +0.029 A 
ATOM     36  C   UNL     1      -2.478  -2.731   2.219  0.00  0.00    +0.016 A 
ATOM     37  C   UNL     1      -1.842  -3.530   3.151  0.00  0.00    +0.001 A 
ATOM     38  C   UNL     1      -2.407  -3.729   4.397  0.00  0.00    +0.002 A 
ATOM     39  C   UNL     1      -3.609  -3.127   4.720  0.00  0.00    +0.024 A 
ATOM     40  C   UNL     1      -4.251  -2.319   3.794  0.00  0.00    +0.038 A 
BRANCH  40  41
ATOM     41  N   UNL     1      -5.468  -1.709   4.119  0.00  0.00    -0.357 N 
ATOM     42  H   UNL     1      -5.917  -1.145   3.469  0.00  0.00    +0.142 HD
ATOM     43  H   UNL     1      -5.864  -1.850   4.993  0.00  0.00    +0.142 HD
ENDBRANCH  40  41
ENDBRANCH  34  35
ENDBRANCH  27  34
ENDBRANCH  26  27
ENDBRANCH  23  25
ENDBRANCH   6  23
TORSDOF 9
