REMARK  Name = ZINC26803963
REMARK  7 active torsions:
REMARK  status: ('A' for Active; 'I' for Inactive)
REMARK    1  A    between atoms: C_5  and  C_7
REMARK    2  A    between atoms: C_8  and  C_9
REMARK    3  A    between atoms: C_8  and  N_20
REMARK    4  A    between atoms: N_11  and  C_12
REMARK    5  A    between atoms: C_12  and  C_13
REMARK    6  A    between atoms: C_13  and  N_14
REMARK    7  A    between atoms: C_21  and  C_23
REMARK                            x       y       z     vdW  Elec       q    Type
REMARK                         _______ _______ _______ _____ _____    ______ ____
ROOT
ATOM      1  C   UNL     1      -2.557   1.665  -0.063  0.00  0.00    +0.038 C 
ATOM      2  C   UNL     1      -3.715   2.330   0.158  0.00  0.00    +0.097 C 
ENDROOT
BRANCH   1   7
ATOM      3  C   UNL     1      -0.309   4.304  -1.492  0.00  0.00    +0.001 A 
ATOM      4  C   UNL     1       0.939   3.799  -1.166  0.00  0.00    +0.001 A 
ATOM      5  C   UNL     1       1.052   2.604  -0.479  0.00  0.00    +0.020 A 
ATOM      6  C   UNL     1      -0.081   1.905  -0.113  0.00  0.00    +0.048 A 
ATOM      7  C   UNL     1      -1.345   2.406  -0.443  0.00  0.00    -0.005 A 
ATOM      8  C   UNL     1      -1.450   3.619  -1.133  0.00  0.00    +0.009 A 
ATOM      9 CL   UNL     1       0.063   0.405   0.749  0.00  0.00    -0.083 Cl
ENDBRANCH   1   7
BRANCH   2  10
ATOM     10  C   UNL     1      -4.960   1.582   0.388  0.00  0.00    +0.258 C 
ATOM     11  O   UNL     1      -6.000   2.179   0.586  0.00  0.00    -0.269 OA
ATOM     12  N   UNL     1      -4.947   0.234   0.379  0.00  0.00    -0.309 N 
ATOM     13  H   UNL     1      -4.006  -0.306   0.200  0.00  0.00    +0.149 HD
BRANCH  12  14
ATOM     14  C   UNL     1      -6.187  -0.511   0.609  0.00  0.00    +0.120 C 
BRANCH  14  15
ATOM     15  C   UNL     1      -5.899  -2.013   0.547  0.00  0.00    +0.103 C 
BRANCH  15  16
ATOM     16  N   UNL     1      -7.142  -2.760   0.777  0.00  0.00    -0.304 NA
ATOM     17  C   UNL     1      -8.245  -2.206  -0.021  0.00  0.00    +0.065 C 
ATOM     18  C   UNL     1      -9.536  -2.959   0.306  0.00  0.00    -0.067 C 
ATOM     19  N   UNL     1      -9.351  -4.389   0.022  0.00  0.00    +0.381 N 
ATOM     20  C   UNL     1      -8.249  -4.943   0.820  0.00  0.00    -0.067 C 
ATOM     21  C   UNL     1      -6.957  -4.190   0.493  0.00  0.00    +0.065 C 
ATOM     22  H   UNL     1     -10.275  -4.934   0.268  0.00  0.00    -0.086 HD
ATOM     23  H   UNL     1      -9.119  -4.524  -1.044  0.00  0.00    -0.086 HD
ENDBRANCH  15  16
ENDBRANCH  14  15
ENDBRANCH  12  14
ENDBRANCH   2  10
BRANCH   2  24
ATOM     24  N   UNL     1      -3.728   3.728   0.167  0.00  0.00    -0.277 N 
ATOM     25  C   UNL     1      -4.538   4.400  -0.675  0.00  0.00    +0.250 C 
ATOM     26  O   UNL     1      -5.188   3.795  -1.506  0.00  0.00    -0.270 OA
ATOM     27  H   UNL     1      -3.077   4.279   0.861  0.00  0.00    +0.155 HD
BRANCH  25  28
ATOM     28  C   UNL     1      -4.635   5.871  -0.590  0.00  0.00    +0.055 A 
ATOM     29  C   UNL     1      -3.792   6.582   0.267  0.00  0.00    +0.014 A 
ATOM     30  C   UNL     1      -3.885   7.955   0.339  0.00  0.00    +0.001 A 
ATOM     31  C   UNL     1      -4.819   8.631  -0.427  0.00  0.00    +0.001 A 
ATOM     32  C   UNL     1      -5.661   7.935  -1.275  0.00  0.00    +0.021 A 
ATOM     33  C   UNL     1      -5.576   6.559  -1.361  0.00  0.00    +0.053 A 
ATOM     34 CL   UNL     1      -6.634   5.686  -2.425  0.00  0.00    -0.083 Cl
ENDBRANCH  25  28
ENDBRANCH   2  24
TORSDOF 7
