REMARK  Name = ZINC44690216
REMARK  14 active torsions:
REMARK  status: ('A' for Active; 'I' for Inactive)
REMARK    1  A    between atoms: C_1  and  C_2
REMARK    2  A    between atoms: C_2  and  C_3
REMARK    3  A    between atoms: C_2  and  C_4
REMARK    4  A    between atoms: C_11  and  C_37
REMARK    5  A    between atoms: C_19  and  C_20
REMARK    6  A    between atoms: C_19  and  C_21
REMARK    7  A    between atoms: N_23  and  C_24
REMARK    8  A    between atoms: C_24  and  C_26
REMARK    9  A    between atoms: C_24  and  C_33
REMARK   10  A    between atoms: C_26  and  C_27
REMARK   11  A    between atoms: C_27  and  C_28
REMARK   12  A    between atoms: C_28  and  N_29
REMARK   13  A    between atoms: C_33  and  O_35
REMARK   14  A    between atoms: O_35  and  C_36
REMARK                            x       y       z     vdW  Elec       q    Type
REMARK                         _______ _______ _______ _____ _____    ______ ____
ROOT
ATOM      1  C   UNL     1      -7.889  -0.805  -0.786  0.00  0.00    +0.220 C 
ATOM      2  O   UNL     1      -7.420   0.243  -0.397  0.00  0.00    -0.275 OA
ATOM      3  N   UNL     1      -9.131  -1.168  -0.411  0.00  0.00    -0.302 N 
ATOM      4  H   UNL     1      -9.506  -2.007  -0.722  0.00  0.00    +0.150 HD
ENDROOT
BRANCH   1  18
ATOM      5  C   UNL     1      -1.398  -1.810   1.258  0.00  0.00    -0.067 C 
ATOM      6  C   UNL     1      -1.673  -2.256   0.044  0.00  0.00    +0.003 C 
ATOM      7  C   UNL     1      -3.085  -2.389  -0.384  0.00  0.00    -0.048 C 
ATOM      8  C   UNL     1      -3.362  -2.536  -1.667  0.00  0.00    -0.023 C 
ATOM      9  C   UNL     1      -4.791  -2.610  -2.145  0.00  0.00    +0.032 C 
ATOM     10  C   UNL     1      -5.632  -1.728  -1.214  0.00  0.00    +0.014 C 
ATOM     11  C   UNL     1      -5.550  -2.300   0.199  0.00  0.00    -0.021 C 
ATOM     12  C   UNL     1      -4.124  -2.344   0.697  0.00  0.00    +0.025 C 
ATOM     13  C   UNL     1      -3.795  -1.173   1.624  0.00  0.00    +0.013 C 
ATOM     14  C   UNL     1      -2.434  -1.437   2.274  0.00  0.00    +0.031 C 
ATOM     15  C   UNL     1      -6.154  -3.707   0.223  0.00  0.00    +0.007 C 
ATOM     16  C   UNL     1      -7.611  -3.650  -0.237  0.00  0.00    +0.002 C 
ATOM     17  C   UNL     1      -7.670  -3.107  -1.666  0.00  0.00    +0.016 C 
ATOM     18  C   UNL     1      -7.082  -1.703  -1.689  0.00  0.00    +0.048 C 
ATOM     19  C   UNL     1      -7.139  -1.164  -3.120  0.00  0.00    +0.021 C 
ATOM     20  C   UNL     1      -6.372  -1.414   1.137  0.00  0.00    +0.012 C 
BRANCH   5  22
ATOM     21  C   UNL     1       0.348  -0.215   2.004  0.00  0.00    +0.012 C 
ATOM     22  C   UNL     1       0.051  -1.673   1.647  0.00  0.00    +0.009 C 
ATOM     23  C   UNL     1       0.341  -2.564   2.857  0.00  0.00    +0.012 C 
ENDBRANCH   5  22
ENDBRANCH   1  18
BRANCH   3  24
ATOM     24  C   UNL     1      -9.915  -0.296   0.467  0.00  0.00    +0.182 C 
BRANCH  24  25
ATOM     25  C   UNL     1     -10.626   0.743  -0.361  0.00  0.00    +0.327 C 
ATOM     26  O   UNL     1     -10.491   0.754  -1.562  0.00  0.00    -0.249 OA
BRANCH  25  27
ATOM     27  O   UNL     1     -11.408   1.657   0.234  0.00  0.00    -0.467 OA
ATOM     28  C   UNL     1     -12.050   2.612  -0.612  0.00  0.00    +0.280 C 
ENDBRANCH  25  27
ENDBRANCH  24  25
BRANCH  24  29
ATOM     29  C   UNL     1     -10.946  -1.132   1.229  0.00  0.00    +0.035 C 
BRANCH  29  30
ATOM     30  C   UNL     1     -10.223  -2.104   2.164  0.00  0.00    +0.023 C 
BRANCH  30  31
ATOM     31  C   UNL     1     -11.254  -2.940   2.926  0.00  0.00    +0.115 C 
BRANCH  31  32
ATOM     32  N   UNL     1     -10.562  -3.870   3.821  0.00  0.00    -0.358 N 
ATOM     33  C   UNL     1     -11.283  -4.726   4.609  0.00  0.00    +0.166 C 
ATOM     34  N   UNL     1     -10.653  -5.571   5.423  0.00  0.00    -0.372 N 
ATOM     35  N   UNL     1     -12.614  -4.712   4.562  0.00  0.00    -0.372 N 
ATOM     36  H   UNL     1      -9.592  -3.880   3.856  0.00  0.00    +0.162 HD
ATOM     37  H   UNL     1      -9.684  -5.581   5.458  0.00  0.00    +0.159 HD
ATOM     38  H   UNL     1     -13.072  -4.096   3.969  0.00  0.00    +0.159 HD
ATOM     39  H   UNL     1     -13.125  -5.319   5.120  0.00  0.00    +0.159 HD
ATOM     40  H   UNL     1     -11.165  -6.178   5.982  0.00  0.00    +0.159 HD
ENDBRANCH  31  32
ENDBRANCH  30  31
ENDBRANCH  29  30
ENDBRANCH  24  29
ENDBRANCH   3  24
TORSDOF 9
