REMARK  Name = ZINC04084148
REMARK  9 active torsions:
REMARK  status: ('A' for Active; 'I' for Inactive)
REMARK    1  A    between atoms: C_1  and  C_2
REMARK    2  A    between atoms: C_17  and  C_31
REMARK    3  A    between atoms: C_22  and  C_23
REMARK    4  A    between atoms: C_22  and  O_30
REMARK    5  A    between atoms: C_23  and  C_25
REMARK    6  A    between atoms: C_25  and  O_26
REMARK    7  A    between atoms: O_26  and  C_27
REMARK    8  A    between atoms: C_27  and  C_29
REMARK    9  A    between atoms: C_29  and  N_62
REMARK                            x       y       z     vdW  Elec       q    Type
REMARK                         _______ _______ _______ _____ _____    ______ ____
ROOT
ATOM      1  C   UNL     1       2.109   2.207   1.259  0.00  0.00    +0.016 C 
ATOM      2  C   UNL     1       1.371   2.304  -0.078  0.00  0.00    -0.007 C 
ATOM      3  C   UNL     1       1.160   3.778  -0.375  0.00  0.00    +0.019 C 
ATOM      4  C   UNL     1      -0.037   4.343   0.388  0.00  0.00    +0.080 C 
ATOM      5  C   UNL     1      -1.252   3.526  -0.004  0.00  0.00    +0.156 C 
ATOM      6  O   UNL     1      -2.288   4.049  -0.358  0.00  0.00    -0.293 OA
ATOM      7  C   UNL     1      -1.109   2.067   0.067  0.00  0.00    +0.046 C 
ATOM      8  C   UNL     1       0.103   1.514   0.034  0.00  0.00    -0.060 C 
ATOM      9  C   UNL     1       0.192   0.002   0.129  0.00  0.00    +0.032 C 
ATOM     10  C   UNL     1       1.110  -0.507  -0.985  0.00  0.00    +0.008 C 
ATOM     11  C   UNL     1       2.465   0.199  -0.881  0.00  0.00    -0.003 C 
ATOM     12  C   UNL     1       2.272   1.696  -1.161  0.00  0.00    +0.002 C 
ATOM     13  C   UNL     1       3.601   2.445  -1.183  0.00  0.00    +0.005 C 
ATOM     14  C   UNL     1       4.598   1.805  -2.162  0.00  0.00    +0.010 C 
ATOM     15  C   UNL     1       4.777   0.360  -1.738  0.00  0.00    +0.007 C 
ATOM     16  C   UNL     1       3.409  -0.347  -1.937  0.00  0.00    +0.002 C 
ATOM     17  C   UNL     1       3.797  -1.822  -1.785  0.00  0.00    +0.008 C 
ATOM     18  C   UNL     1       5.137  -1.912  -2.566  0.00  0.00    +0.043 C 
ATOM     19  C   UNL     1       5.733  -0.482  -2.577  0.00  0.00    +0.133 C 
ATOM     20  C   UNL     1       5.185   0.295  -0.265  0.00  0.00    +0.015 C 
ENDROOT
BRANCH  19  21
ATOM     21  C   UNL     1       7.107  -0.484  -1.958  0.00  0.00    +0.202 C 
ATOM     22  O   UNL     1       7.410  -1.343  -1.165  0.00  0.00    -0.291 OA
BRANCH  21  23
ATOM     23  C   UNL     1       8.102   0.585  -2.329  0.00  0.00    +0.309 C 
BRANCH  23  24
ATOM     24  O   UNL     1       9.341   0.365  -1.604  0.00  0.00    -0.458 OA
BRANCH  24  25
ATOM     25  C   UNL     1      10.338   1.237  -1.823  0.00  0.00    +0.290 C 
ATOM     26  O   UNL     1      10.180   2.154  -2.595  0.00  0.00    -0.253 OA
BRANCH  25  27
ATOM     27  C   UNL     1      11.653   1.073  -1.107  0.00  0.00    +0.036 C 
BRANCH  27  30
ATOM     28  H   UNL     1      13.460   2.058  -1.048  0.00  0.00    -0.089 HD
ATOM     29  H   UNL     1      12.687   2.159  -2.517  0.00  0.00    -0.089 HD
ATOM     30  N   UNL     1      12.557   2.166  -1.507  0.00  0.00    +0.385 N 
ATOM     31  H   UNL     1      12.145   3.064  -1.228  0.00  0.00    -0.089 HD
ENDBRANCH  27  30
ENDBRANCH  25  27
ENDBRANCH  24  25
ENDBRANCH  23  24
ENDBRANCH  21  23
ENDBRANCH  19  21
BRANCH  19  32
ATOM     32  O   UNL     1       5.793   0.019  -3.914  0.00  0.00    -0.380 OA
ATOM     33  H   UNL     1       6.356  -0.502  -4.503  0.00  0.00    +0.211 HD
ENDBRANCH  19  32
TORSDOF 7
