REMARK  Name = ZINC63572292
REMARK  7 active torsions:
REMARK  status: ('A' for Active; 'I' for Inactive)
REMARK    1  A    between atoms: C_1  and  O_2
REMARK    2  A    between atoms: O_2  and  C_3
REMARK    3  A    between atoms: C_6  and  C_9
REMARK    4  A    between atoms: N_27  and  C_28
REMARK    5  A    between atoms: C_28  and  C_29
REMARK    6  A    between atoms: C_33  and  O_35
REMARK    7  A    between atoms: O_35  and  C_36
REMARK                            x       y       z     vdW  Elec       q    Type
REMARK                         _______ _______ _______ _____ _____    ______ ____
ROOT
ATOM      1  C   UNL     1      -4.988  -2.618   0.021  0.00  0.00    +0.134 C 
ATOM      2  C   UNL     1      -5.239  -3.190   1.421  0.00  0.00    +0.131 C 
ATOM      3  C   UNL     1      -6.430  -4.132   1.298  0.00  0.00    -0.035 C 
ATOM      4  C   UNL     1      -7.334  -3.710   2.174  0.00  0.00    +0.001 A 
ATOM      5  C   UNL     1      -8.648  -4.248   2.562  0.00  0.00    +0.030 A 
ATOM      6  C   UNL     1      -9.331  -3.543   3.503  0.00  0.00    +0.042 A 
ATOM      7  C   UNL     1      -8.843  -2.370   4.090  0.00  0.00    +0.022 A 
ATOM      8  C   UNL     1      -7.644  -1.807   3.796  0.00  0.00    +0.027 A 
ATOM      9  C   UNL     1      -6.833  -2.460   2.823  0.00  0.00    +0.043 A 
ATOM     10  N   UNL     1      -5.630  -2.149   2.373  0.00  0.00    -0.375 N 
ATOM     11 CL   UNL     1     -10.887  -4.128   4.002  0.00  0.00    -0.084 Cl
ATOM     12  C   UNL     1      -6.482  -5.245   0.279  0.00  0.00    +0.052 C 
ATOM     13  C   UNL     1      -6.133  -4.615  -1.082  0.00  0.00    +0.114 C 
ATOM     14  N   UNL     1      -4.965  -3.741  -0.929  0.00  0.00    -0.276 N 
ATOM     15  C   UNL     1      -3.860  -3.969  -1.666  0.00  0.00    +0.303 C 
ATOM     16  O   UNL     1      -2.851  -3.319  -1.466  0.00  0.00    -0.253 OA
ATOM     17  N   UNL     1      -3.872  -4.917  -2.624  0.00  0.00    -0.295 N 
ATOM     18  H   UNL     1      -4.696  -5.382  -2.835  0.00  0.00    +0.151 HD
ATOM     19  H   UNL     1      -5.099  -1.375   2.616  0.00  0.00    +0.160 HD
ENDROOT
BRANCH   1  23
ATOM     20  C   UNL     1      -1.233  -0.580  -0.057  0.00  0.00    +0.120 A 
ATOM     21  C   UNL     1      -1.464  -1.575   0.882  0.00  0.00    +0.046 A 
ATOM     22  C   UNL     1      -2.679  -2.232   0.905  0.00  0.00    +0.009 A 
ATOM     23  C   UNL     1      -3.664  -1.899  -0.006  0.00  0.00    -0.024 A 
ATOM     24  C   UNL     1      -3.436  -0.908  -0.943  0.00  0.00    +0.009 A 
ATOM     25  C   UNL     1      -2.225  -0.243  -0.966  0.00  0.00    +0.046 A 
BRANCH  20  27
ATOM     26  C   UNL     1       0.935  -0.330   0.885  0.00  0.00    +0.277 C 
ATOM     27  O   UNL     1      -0.039   0.069  -0.081  0.00  0.00    -0.495 OA
ENDBRANCH  20  27
ENDBRANCH   1  23
BRANCH  17  28
ATOM     28  C   UNL     1      -2.640  -5.244  -3.346  0.00  0.00    +0.141 C 
BRANCH  28  29
ATOM     29  C   UNL     1      -2.923  -6.327  -4.356  0.00  0.00    -0.027 A 
ATOM     30  C   UNL     1      -2.797  -7.656  -3.996  0.00  0.00    +0.005 A 
ATOM     31  C   UNL     1      -3.056  -8.652  -4.920  0.00  0.00    +0.004 A 
ATOM     32  C   UNL     1      -3.439  -8.321  -6.205  0.00  0.00    +0.045 A 
ATOM     33  C   UNL     1      -3.566  -6.988  -6.569  0.00  0.00    +0.120 A 
ATOM     34  C   UNL     1      -3.312  -5.990  -5.638  0.00  0.00    +0.050 A 
BRANCH  33  35
ATOM     35  O   UNL     1      -3.943  -6.660  -7.832  0.00  0.00    -0.495 OA
ATOM     36  C   UNL     1      -4.194  -7.738  -8.735  0.00  0.00    +0.277 C 
ENDBRANCH  33  35
ENDBRANCH  28  29
ENDBRANCH  17  28
TORSDOF 5
