REMARK  Name = ZINC63572037
REMARK  9 active torsions:
REMARK  status: ('A' for Active; 'I' for Inactive)
REMARK    1  A    between atoms: C_1  and  C_2
REMARK    2  A    between atoms: C_2  and  O_3
REMARK    3  A    between atoms: O_3  and  C_4
REMARK    4  A    between atoms: C_4  and  C_6
REMARK    5  A    between atoms: C_9  and  C_12
REMARK    6  A    between atoms: C_12  and  N_13
REMARK    7  A    between atoms: C_29  and  C_31
REMARK    8  A    between atoms: C_34  and  O_37
REMARK    9  A    between atoms: O_37  and  C_38
REMARK                            x       y       z     vdW  Elec       q    Type
REMARK                         _______ _______ _______ _____ _____    ______ ____
ROOT
ATOM      1  N   UNL     1      -2.007  -6.230   3.467  0.00  0.00    -0.299 N 
ATOM      2  C   UNL     1      -1.419  -6.718   4.577  0.00  0.00    +0.303 C 
ATOM      3  O   UNL     1      -0.882  -5.962   5.363  0.00  0.00    -0.253 OA
ATOM      4  N   UNL     1      -1.427  -8.044   4.816  0.00  0.00    -0.276 N 
ATOM      5  C   UNL     1      -1.968  -8.960   3.806  0.00  0.00    +0.114 C 
ATOM      6  C   UNL     1      -0.886  -9.982   3.409  0.00  0.00    +0.052 C 
ATOM      7  C   UNL     1      -0.259 -10.468   4.691  0.00  0.00    -0.035 C 
ATOM      8  C   UNL     1      -0.050 -11.694   5.157  0.00  0.00    -0.001 A 
ATOM      9  C   UNL     1      -0.251 -13.020   4.550  0.00  0.00    +0.010 A 
ATOM     10  C   UNL     1       0.054 -14.089   5.331  0.00  0.00    +0.001 A 
ATOM     11  C   UNL     1       0.534 -13.974   6.640  0.00  0.00    +0.002 A 
ATOM     12  C   UNL     1       0.756 -12.795   7.274  0.00  0.00    +0.026 A 
ATOM     13  C   UNL     1       0.480 -11.598   6.551  0.00  0.00    +0.043 A 
ATOM     14  N   UNL     1       0.622 -10.354   6.899  0.00  0.00    -0.375 N 
ATOM     15  C   UNL     1       0.262  -9.511   5.758  0.00  0.00    +0.131 C 
ATOM     16  C   UNL     1      -0.887  -8.559   6.085  0.00  0.00    +0.134 C 
ATOM     17  H   UNL     1      -2.372  -6.837   2.804  0.00  0.00    +0.150 HD
ATOM     18  H   UNL     1       0.916 -10.037   7.768  0.00  0.00    +0.160 HD
ENDROOT
BRANCH  16  19
ATOM     19  C   UNL     1      -1.963  -9.300   6.834  0.00  0.00    -0.024 A 
ATOM     20  C   UNL     1      -2.610 -10.366   6.238  0.00  0.00    +0.009 A 
ATOM     21  C   UNL     1      -3.598 -11.047   6.923  0.00  0.00    +0.046 A 
ATOM     22  C   UNL     1      -3.939 -10.661   8.211  0.00  0.00    +0.120 A 
ATOM     23  C   UNL     1      -3.288  -9.591   8.807  0.00  0.00    +0.046 A 
ATOM     24  C   UNL     1      -2.298  -8.917   8.120  0.00  0.00    +0.009 A 
BRANCH  22  25
ATOM     25  O   UNL     1      -4.911 -11.330   8.886  0.00  0.00    -0.495 OA
ATOM     26  C   UNL     1      -5.210 -10.877  10.208  0.00  0.00    +0.277 C 
ENDBRANCH  22  25
ENDBRANCH  16  19
BRANCH   1  27
ATOM     27  C   UNL     1      -2.095  -4.782   3.261  0.00  0.00    +0.109 C 
BRANCH  27  31
ATOM     28  C   UNL     1      -2.858  -3.228  -0.705  0.00  0.00    +0.098 C 
ATOM     29  C   UNL     1      -3.713  -2.705   0.451  0.00  0.00    +0.015 C 
ATOM     30  C   UNL     1      -3.006  -2.990   1.778  0.00  0.00    +0.006 C 
ATOM     31  C   UNL     1      -2.803  -4.498   1.934  0.00  0.00    +0.006 C 
ATOM     32  C   UNL     1      -1.948  -5.020   0.778  0.00  0.00    +0.006 C 
ATOM     33  C   UNL     1      -2.655  -4.736  -0.548  0.00  0.00    +0.015 C 
BRANCH  28  34
ATOM     34  C   UNL     1      -1.519  -2.536  -0.692  0.00  0.00    +0.310 C 
ATOM     35  O   UNL     1      -0.506  -3.184  -0.570  0.00  0.00    -0.251 OA
BRANCH  34  36
ATOM     36  O   UNL     1      -1.452  -1.202  -0.816  0.00  0.00    -0.465 OA
BRANCH  36  38
ATOM     37  C   UNL     1      -0.273   0.904  -0.948  0.00  0.00    +0.048 C 
ATOM     38  C   UNL     1      -0.150  -0.613  -0.795  0.00  0.00    +0.229 C 
ENDBRANCH  36  38
ENDBRANCH  34  36
ENDBRANCH  28  34
ENDBRANCH  27  31
ENDBRANCH   1  27
TORSDOF 7
