REMARK  Name = ZINC63517896
REMARK  9 active torsions:
REMARK  status: ('A' for Active; 'I' for Inactive)
REMARK    1  A    between atoms: C_1  and  N_2
REMARK    2  A    between atoms: C_6  and  C_8
REMARK    3  A    between atoms: C_8  and  C_9
REMARK    4  A    between atoms: C_9  and  C_10
REMARK    5  A    between atoms: C_10  and  N_11
REMARK    6  A    between atoms: N_11  and  C_12
REMARK    7  A    between atoms: N_11  and  C_13
REMARK    8  A    between atoms: C_13  and  C_14
REMARK    9  A    between atoms: N_16  and  C_17
REMARK                            x       y       z     vdW  Elec       q    Type
REMARK                         _______ _______ _______ _____ _____    ______ ____
ROOT
ATOM      1  N   UNL     1      -5.066  -6.805   0.031  0.00  0.00    +0.384 N 
ATOM      2  C   UNL     1      -5.730  -6.417  -1.220  0.00  0.00    -0.096 C 
ATOM      3  H   UNL     1      -5.569  -6.415   0.814  0.00  0.00    -0.082 HD
ENDROOT
BRANCH   1   4
ATOM      4  C   UNL     1      -3.688  -6.296   0.032  0.00  0.00    -0.078 C 
BRANCH   4   5
ATOM      5  C   UNL     1      -3.709  -4.766   0.043  0.00  0.00    -0.009 C 
BRANCH   5   6
ATOM      6  C   UNL     1      -2.274  -4.236   0.044  0.00  0.00    +0.094 C 
BRANCH   6  12
ATOM      7  C   UNL     1      -0.018   1.463   0.079  0.00  0.00    +0.129 C 
ATOM      8  N   UNL     1       0.002  -0.002   0.069  0.00  0.00    -0.302 N 
ATOM      9  C   UNL     1      -1.156  -0.692   0.066  0.00  0.00    +0.306 C 
ATOM     10  O   UNL     1      -2.217  -0.099   0.072  0.00  0.00    -0.252 OA
ATOM     11  N   UNL     1      -1.137  -2.039   0.057  0.00  0.00    -0.240 N 
ATOM     12  C   UNL     1      -2.295  -2.729   0.054  0.00  0.00    +0.220 C 
ATOM     13  O   UNL     1      -3.353  -2.138   0.060  0.00  0.00    -0.275 OA
ATOM     14  H   UNL     1       0.849  -0.475   0.064  0.00  0.00    +0.150 HD
ATOM     15  H   UNL     1      -0.290  -2.513   0.052  0.00  0.00    +0.159 HD
ENDBRANCH   6  12
ENDBRANCH   5   6
ENDBRANCH   4   5
ENDBRANCH   1   4
BRANCH   1  16
ATOM     16  C   UNL     1      -5.047  -8.270   0.142  0.00  0.00    +0.018 C 
BRANCH  16  17
ATOM     17  C   UNL     1      -6.459  -8.782   0.264  0.00  0.00    +0.201 C 
ATOM     18  O   UNL     1      -7.389  -8.004   0.260  0.00  0.00    -0.278 OA
ATOM     19  N   UNL     1      -6.688 -10.105   0.379  0.00  0.00    -0.286 N 
ATOM     20  H   UNL     1      -5.952 -10.733   0.302  0.00  0.00    +0.155 HD
BRANCH  19  21
ATOM     21  C   UNL     1      -7.987 -10.574   0.609  0.00  0.00    +0.052 A 
ATOM     22  C   UNL     1      -8.926  -9.751   1.216  0.00  0.00    +0.025 A 
ATOM     23  C   UNL     1     -10.207 -10.216   1.441  0.00  0.00    +0.002 A 
ATOM     24  C   UNL     1     -10.555 -11.499   1.062  0.00  0.00    +0.002 A 
ATOM     25  C   UNL     1      -9.623 -12.322   0.457  0.00  0.00    +0.022 A 
ATOM     26  C   UNL     1      -8.341 -11.861   0.224  0.00  0.00    +0.062 A 
ATOM     27 CL   UNL     1      -7.173 -12.891  -0.543  0.00  0.00    -0.082 Cl
ENDBRANCH  19  21
ENDBRANCH  16  17
ENDBRANCH   1  16
TORSDOF 7
