REMARK  Name = ZINC21263128
REMARK  14 active torsions:
REMARK  status: ('A' for Active; 'I' for Inactive)
REMARK    1  A    between atoms: C_1  and  C_2
REMARK    2  A    between atoms: C_2  and  O_3
REMARK    3  A    between atoms: O_3  and  C_4
REMARK    4  A    between atoms: C_9  and  C_10
REMARK    5  A    between atoms: C_10  and  N_11
REMARK    6  A    between atoms: N_11  and  C_12
REMARK    7  A    between atoms: N_11  and  C_19
REMARK    8  A    between atoms: C_12  and  C_13
REMARK    9  A    between atoms: C_19  and  N_21
REMARK   10  A    between atoms: N_21  and  C_22
REMARK   11  A    between atoms: C_24  and  C_30
REMARK   12  A    between atoms: C_24  and  C_31
REMARK   13  A    between atoms: C_26  and  C_28
REMARK   14  A    between atoms: C_26  and  C_29
REMARK                            x       y       z     vdW  Elec       q    Type
REMARK                         _______ _______ _______ _____ _____    ______ ____
ROOT
ATOM      1  N   UNL     1       3.349   3.594   0.806  0.00  0.00    -0.306 N 
ENDROOT
BRANCH   1   2
ATOM      2  C   UNL     1       4.457   3.295   1.513  0.00  0.00    +0.133 C 
ATOM      3  S   UNL     1       5.919   4.132   1.207  0.00  0.00    -0.019 S 
BRANCH   2   4
ATOM      4  N   UNL     1       4.414   2.338   2.461  0.00  0.00    -0.324 N 
ATOM      5  H   UNL     1       3.475   1.800   2.658  0.00  0.00    +0.148 HD
BRANCH   4   6
ATOM      6  C   UNL     1       5.621   2.013   3.232  0.00  0.00    +0.069 C 
ATOM      7  C   UNL     1       6.450   0.987   2.459  0.00  0.00    +0.009 C 
ATOM      8  C   UNL     1       7.703   0.614   3.248  0.00  0.00    -0.072 C 
ATOM      9  N   UNL     1       7.421   0.269   4.625  0.00  0.00    +0.386 N 
ATOM     10  C   UNL     1       6.451   1.029   5.385  0.00  0.00    -0.072 C 
ATOM     11  C   UNL     1       5.214   1.399   4.571  0.00  0.00    +0.009 C 
ATOM     12  C   UNL     1       7.078   2.300   5.970  0.00  0.00    -0.010 C 
ATOM     13  C   UNL     1       5.983   0.161   6.574  0.00  0.00    -0.010 C 
ATOM     14  C   UNL     1       8.723   1.757   3.161  0.00  0.00    -0.010 C 
ATOM     15  C   UNL     1       8.336  -0.616   2.561  0.00  0.00    -0.010 C 
ATOM     16  H   UNL     1       7.044  -0.763   4.674  0.00  0.00    -0.084 HD
ATOM     17  H   UNL     1       8.343   0.350   5.220  0.00  0.00    -0.084 HD
ENDBRANCH   4   6
ENDBRANCH   2   4
ENDBRANCH   1   2
BRANCH   1  18
ATOM     18  C   UNL     1       3.420   4.559  -0.294  0.00  0.00    +0.145 C 
BRANCH  18  24
ATOM     19  C   UNL     1       1.918   6.406   0.492  0.00  0.00    +0.125 A 
ATOM     20  C   UNL     1       1.722   7.686   0.991  0.00  0.00    +0.046 A 
ATOM     21  C   UNL     1       2.808   8.505   1.231  0.00  0.00    +0.004 A 
ATOM     22  C   UNL     1       4.089   8.050   0.979  0.00  0.00    +0.001 A 
ATOM     23  C   UNL     1       4.286   6.774   0.485  0.00  0.00    +0.009 A 
ATOM     24  C   UNL     1       3.204   5.950   0.244  0.00  0.00    +0.011 A 
BRANCH  19  25
ATOM     25  O   UNL     1       0.851   5.599   0.250  0.00  0.00    -0.492 OA
BRANCH  25  27
ATOM     26  C   UNL     1      -1.511   5.090   0.196  0.00  0.00    +0.048 C 
ATOM     27  C   UNL     1      -0.444   6.136   0.528  0.00  0.00    +0.225 C 
ENDBRANCH  25  27
ENDBRANCH  19  25
ENDBRANCH  18  24
ENDBRANCH   1  18
BRANCH   1  28
ATOM     28  C   UNL     1       2.074   2.953   1.138  0.00  0.00    +0.138 C 
BRANCH  28  29
ATOM     29  C   UNL     1       1.929   1.660   0.333  0.00  0.00    +0.136 C 
ATOM     30  C   UNL     1       0.538   1.031   0.572  0.00  0.00    +0.035 C 
ATOM     31  C   UNL     1       0.811  -0.489   0.590  0.00  0.00    +0.031 C 
ATOM     32  C   UNL     1       2.335  -0.600   0.360  0.00  0.00    +0.160 C 
ATOM     33  O   UNL     1       2.868   0.667   0.803  0.00  0.00    -0.375 OA
ENDBRANCH  28  29
ENDBRANCH   1  28
TORSDOF 9
