REMARK  Name = ZINC15229090
REMARK  5 active torsions:
REMARK  status: ('A' for Active; 'I' for Inactive)
REMARK    1  A    between atoms: C_1  and  C_2
REMARK    2  A    between atoms: C_11  and  C_14
REMARK    3  A    between atoms: C_11  and  S_20
REMARK    4  A    between atoms: C_14  and  N_51
REMARK    5  A    between atoms: S_20  and  C_21
REMARK                            x       y       z     vdW  Elec       q    Type
REMARK                         _______ _______ _______ _____ _____    ______ ____
ROOT
ATOM      1  C   UNL     1       4.902   3.206  -0.908  0.00  0.00    +0.045 C 
ATOM      2  C   UNL     1       3.529   2.620  -0.701  0.00  0.00    -0.033 A 
ATOM      3  C   UNL     1       2.420   3.440  -0.766  0.00  0.00    +0.050 A 
ATOM      4  C   UNL     1       1.151   2.910  -0.577  0.00  0.00    +0.131 A 
ATOM      5  C   UNL     1       1.013   1.536  -0.325  0.00  0.00    +0.062 A 
ATOM      6  C   UNL     1       2.140   0.716  -0.258  0.00  0.00    +0.030 A 
ATOM      7  C   UNL     1       3.393   1.264  -0.447  0.00  0.00    +0.022 A 
ATOM      8 BR   UNL     1       4.927   0.163  -0.358  0.00  0.00    -0.050 Br
ATOM      9  C   UNL     1      -0.337   0.976  -0.134  0.00  0.00    +0.184 C 
ATOM     10  O   UNL     1      -0.537  -0.220  -0.129  0.00  0.00    -0.290 OA
ATOM     11  C   UNL     1      -1.465   1.975   0.051  0.00  0.00    +0.103 C 
ATOM     12  C   UNL     1      -1.208   3.138  -0.913  0.00  0.00    +0.253 C 
ATOM     13  O   UNL     1       0.065   3.718  -0.630  0.00  0.00    -0.489 OA
ENDROOT
BRANCH  11  14
ATOM     14  C   UNL     1      -1.475   2.490   1.491  0.00  0.00    -0.049 C 
BRANCH  14  20
ATOM     15  C   UNL     1      -2.279   1.790   3.665  0.00  0.00    -0.079 C 
ATOM     16  C   UNL     1      -2.566   0.568   4.540  0.00  0.00    -0.019 C 
ATOM     17  C   UNL     1      -1.253  -0.159   4.840  0.00  0.00    -0.004 C 
ATOM     18  C   UNL     1      -0.584  -0.554   3.520  0.00  0.00    -0.019 C 
ATOM     19  C   UNL     1      -0.354   0.701   2.675  0.00  0.00    -0.079 C 
ATOM     20  N   UNL     1      -1.658   1.341   2.401  0.00  0.00    +0.381 N 
ATOM     21  H   UNL     1      -2.277   0.655   1.951  0.00  0.00    -0.082 HD
ENDBRANCH  14  20
ENDBRANCH  11  14
BRANCH  11  22
ATOM     22  S   UNL     1      -3.055   1.192  -0.338  0.00  0.00    -0.109 S 
BRANCH  22  23
ATOM     23  C   UNL     1      -4.211   2.520  -0.277  0.00  0.00    +0.009 A 
ATOM     24  C   UNL     1      -3.809   3.773   0.169  0.00  0.00    +0.016 A 
ATOM     25  C   UNL     1      -4.716   4.813   0.211  0.00  0.00    +0.021 A 
ATOM     26  C   UNL     1      -6.028   4.605  -0.180  0.00  0.00    +0.041 A 
ATOM     27  C   UNL     1      -6.432   3.357  -0.620  0.00  0.00    +0.021 A 
ATOM     28  C   UNL     1      -5.528   2.314  -0.669  0.00  0.00    +0.016 A 
ATOM     29 CL   UNL     1      -7.167   5.914  -0.120  0.00  0.00    -0.084 Cl
ENDBRANCH  22  23
ENDBRANCH  11  22
TORSDOF 4
