REMARK  Name = ZINC16610270
REMARK  12 active torsions:
REMARK  status: ('A' for Active; 'I' for Inactive)
REMARK    1  A    between atoms: C_1  and  C_2
REMARK    2  A    between atoms: C_3  and  C_29
REMARK    3  A    between atoms: C_4  and  C_11
REMARK    4  A    between atoms: N_9  and  C_10
REMARK    5  A    between atoms: C_14  and  N_17
REMARK    6  A    between atoms: N_20  and  C_21
REMARK    7  A    between atoms: C_24  and  S_27
REMARK    8  A    between atoms: S_27  and  C_28
REMARK    9  A    between atoms: C_29  and  O_31
REMARK   10  A    between atoms: O_31  and  C_32
REMARK   11  A    between atoms: C_32  and  C_33
REMARK   12  A    between atoms: C_32  and  C_34
REMARK                            x       y       z     vdW  Elec       q    Type
REMARK                         _______ _______ _______ _____ _____    ______ ____
ROOT
ATOM      1  C   UNL     1      -1.308   3.367   4.687  0.00  0.00    -0.022 A 
ATOM      2  C   UNL     1      -0.303   2.490   5.054  0.00  0.00    +0.007 A 
ATOM      3  C   UNL     1       0.273   2.584   6.306  0.00  0.00    +0.024 A 
ATOM      4  C   UNL     1      -0.166   3.552   7.200  0.00  0.00    +0.035 A 
ATOM      5  C   UNL     1      -1.178   4.427   6.830  0.00  0.00    +0.024 A 
ATOM      6  C   UNL     1      -1.746   4.332   5.574  0.00  0.00    +0.007 A 
ENDROOT
BRANCH   1  10
ATOM      7  C   UNL     1       0.281   4.271   0.324  0.00  0.00    +0.061 C 
ATOM      8  C   UNL     1      -0.557   3.479   1.294  0.00  0.00    +0.021 C 
ATOM      9  C   UNL     1      -1.099   4.100   2.364  0.00  0.00    +0.078 C 
ATOM     10  C   UNL     1      -1.930   3.266   3.318  0.00  0.00    +0.141 C 
ATOM     11  N   UNL     1      -2.083   1.837   2.993  0.00  0.00    -0.315 N 
ATOM     12  C   UNL     1      -1.484   1.364   1.883  0.00  0.00    +0.137 C 
ATOM     13  S   UNL     1      -1.655  -0.294   1.493  0.00  0.00    -0.018 S 
ATOM     14  N   UNL     1      -0.760   2.148   1.074  0.00  0.00    -0.289 N 
ATOM     15  C   UNL     1      -0.148   1.541  -0.110  0.00  0.00    +0.137 C 
ATOM     16  H   UNL     1      -2.603   1.251   3.566  0.00  0.00    +0.149 HD
BRANCH   9  17
ATOM     17  C   UNL     1      -0.894   5.481   2.590  0.00  0.00    +0.339 C 
ATOM     18  O   UNL     1      -0.223   6.132   1.811  0.00  0.00    -0.245 OA
BRANCH  17  19
ATOM     19  O   UNL     1      -1.442   6.077   3.670  0.00  0.00    -0.459 OA
BRANCH  19  20
ATOM     20  C   UNL     1      -1.193   7.475   3.835  0.00  0.00    +0.171 C 
ATOM     21  C   UNL     1      -2.288   8.275   3.127  0.00  0.00    +0.052 C 
ATOM     22  C   UNL     1      -1.193   7.819   5.326  0.00  0.00    +0.052 C 
ENDBRANCH  19  20
ENDBRANCH  17  19
ENDBRANCH   9  17
ENDBRANCH   1  10
BRANCH   4  23
ATOM     23  N   UNL     1       0.411   3.646   8.472  0.00  0.00    -0.269 N 
ATOM     24  C   UNL     1      -0.336   4.035   9.524  0.00  0.00    +0.308 C 
ATOM     25  O   UNL     1      -1.531   4.214   9.388  0.00  0.00    -0.252 OA
ATOM     26  N   UNL     1       0.242   4.226  10.726  0.00  0.00    -0.269 N 
ATOM     27  H   UNL     1       1.349   3.430   8.596  0.00  0.00    +0.156 HD
ATOM     28  H   UNL     1       1.205   4.156  10.818  0.00  0.00    +0.156 HD
BRANCH  26  29
ATOM     29  C   UNL     1      -0.549   4.524  11.845  0.00  0.00    +0.035 A 
ATOM     30  C   UNL     1      -0.054   5.349  12.845  0.00  0.00    +0.024 A 
ATOM     31  C   UNL     1      -0.835   5.648  13.944  0.00  0.00    +0.016 A 
ATOM     32  C   UNL     1      -2.112   5.113  14.054  0.00  0.00    +0.008 A 
ATOM     33  C   UNL     1      -2.606   4.283  13.055  0.00  0.00    +0.016 A 
ATOM     34  C   UNL     1      -1.826   3.990  11.954  0.00  0.00    +0.024 A 
BRANCH  32  35
ATOM     35  S   UNL     1      -3.106   5.488  15.460  0.00  0.00    -0.129 S 
ATOM     36  C   UNL     1      -2.058   6.580  16.460  0.00  0.00    +0.090 C 
ENDBRANCH  32  35
ENDBRANCH  26  29
ENDBRANCH   4  23
TORSDOF 7
