REMARK  Name = ZINC62943182
REMARK  4 active torsions:
REMARK  status: ('A' for Active; 'I' for Inactive)
REMARK    1  A    between atoms: C_15  and  C_17
REMARK    2  A    between atoms: C_17  and  O_18
REMARK    3  A    between atoms: O_18  and  C_19
REMARK    4  A    between atoms: C_19  and  C_20
REMARK                            x       y       z     vdW  Elec       q    Type
REMARK                         _______ _______ _______ _____ _____    ______ ____
ROOT
ATOM      1  C   UNL     1      -0.019   1.547   0.011  0.00  0.00    -0.020 C 
ATOM      2  C   UNL     1       1.477   1.973  -0.002  0.00  0.00    -0.016 C 
ATOM      3  C   UNL     1       2.173   0.725   0.555  0.00  0.00    -0.051 C 
ATOM      4  C   UNL     1       3.645   0.607   0.306  0.00  0.00    +0.094 C 
ATOM      5  N   UNL     1       3.944  -0.025  -0.970  0.00  0.00    -0.287 N 
ATOM      6  C   UNL     1       4.120  -1.498  -0.920  0.00  0.00    +0.107 C 
ATOM      7  C   UNL     1       2.775  -2.143  -0.967  0.00  0.00    +0.000 C 
ATOM      8  C   UNL     1       1.844  -1.697   0.190  0.00  0.00    -0.077 C 
ATOM      9  N   UNL     1       1.398  -0.378  -0.102  0.00  0.00    +0.383 N 
ATOM     10  C   UNL     1       0.002  -0.004   0.002  0.00  0.00    -0.078 C 
ATOM     11  C   UNL     1       4.055   0.677  -2.115  0.00  0.00    +0.308 C 
ATOM     12  O   UNL     1       3.902   1.883  -2.106  0.00  0.00    -0.252 OA
ATOM     13  N   UNL     1       4.334   0.042  -3.271  0.00  0.00    -0.238 N 
ATOM     14  C   UNL     1       4.444   0.744  -4.416  0.00  0.00    +0.246 C 
ATOM     15  O   UNL     1       4.292   1.947  -4.406  0.00  0.00    -0.273 OA
ATOM     16  H   UNL     1       4.456  -0.920  -3.278  0.00  0.00    +0.159 HD
ATOM     17  H   UNL     1       1.599  -0.245  -1.081  0.00  0.00    -0.081 HD
ENDROOT
BRANCH  14  18
ATOM     18  C   UNL     1       4.756   0.035  -5.708  0.00  0.00    +0.256 C 
BRANCH  18  19
ATOM     19  O   UNL     1       4.821   0.987  -6.771  0.00  0.00    -0.359 OA
BRANCH  19  20
ATOM     20  C   UNL     1       5.113   0.414  -8.047  0.00  0.00    +0.285 C 
BRANCH  20  21
ATOM     21  C   UNL     1       5.157   1.503  -9.088  0.00  0.00    +0.381 C 
ATOM     22  O   UNL     1       4.957   2.662  -8.767  0.00  0.00    -0.244 OA
ATOM     23  O   UNL     1       5.393   1.225 -10.252  0.00  0.00    -0.244 OA
ENDBRANCH  20  21
ENDBRANCH  19  20
ENDBRANCH  18  19
ENDBRANCH  14  18
TORSDOF 4
