REMARK  Name = ZINC35324012
REMARK  6 active torsions:
REMARK  status: ('A' for Active; 'I' for Inactive)
REMARK    1  A    between atoms: N_15  and  C_17
REMARK    2  A    between atoms: C_19  and  O_32
REMARK    3  A    between atoms: C_21  and  O_31
REMARK    4  A    between atoms: C_23  and  O_30
REMARK    5  A    between atoms: C_25  and  C_28
REMARK    6  A    between atoms: C_28  and  O_29
REMARK                            x       y       z     vdW  Elec       q    Type
REMARK                         _______ _______ _______ _____ _____    ______ ____
ROOT
ATOM      1  C   UNL     1      -0.021   1.330   0.012  0.00  0.00    +0.007 A 
ATOM      2  C   UNL     1       1.190   2.032   0.004  0.00  0.00    +0.022 A 
ATOM      3  C   UNL     1       2.373   1.366  -0.043  0.00  0.00    +0.023 A 
ATOM      4  N   UNL     1       2.400   0.017  -0.139  0.00  0.00    -0.312 N 
ATOM      5  C   UNL     1       1.247  -0.689  -0.036  0.00  0.00    +0.251 A 
ATOM      6  O   UNL     1       1.288  -1.908   0.025  0.00  0.00    -0.268 OA
ATOM      7  C   UNL     1       0.009  -0.033   0.002  0.00  0.00    +0.070 A 
ATOM      8  C   UNL     1       3.621  -0.743  -0.409  0.00  0.00    +0.126 C 
ATOM      9  C   UNL     1       4.877   0.052  -0.093  0.00  0.00    -0.007 C 
ATOM     10  C   UNL     1       4.762   1.450  -0.709  0.00  0.00    +0.011 C 
ATOM     11  C   UNL     1       3.641   2.188   0.033  0.00  0.00    +0.020 C 
ATOM     12  C   UNL     1       4.039   2.285   1.515  0.00  0.00    -0.065 C 
ATOM     13  N   UNL     1       4.074   0.923   2.068  0.00  0.00    +0.400 N 
ATOM     14  C   UNL     1       5.117   0.155   1.406  0.00  0.00    -0.070 C 
ATOM     15  H   UNL     1       3.181   0.477   1.919  0.00  0.00    -0.078 HD
ENDROOT
BRANCH  13  16
ATOM     16  C   UNL     1       4.351   0.988   3.510  0.00  0.00    +0.098 C 
ATOM     17  C   UNL     1       4.252  -0.416   4.113  0.00  0.00    +0.157 C 
ATOM     18  C   UNL     1       4.483  -0.331   5.625  0.00  0.00    +0.174 C 
ATOM     19  C   UNL     1       3.462   0.636   6.232  0.00  0.00    +0.176 C 
ATOM     20  C   UNL     1       3.591   1.999   5.547  0.00  0.00    +0.172 C 
ATOM     21  O   UNL     1       3.397   1.844   4.140  0.00  0.00    -0.384 OA
BRANCH  19  22
ATOM     22  O   UNL     1       2.143   0.124   6.034  0.00  0.00    -0.386 OA
ATOM     23  H   UNL     1       1.444   0.687   6.395  0.00  0.00    +0.210 HD
ENDBRANCH  19  22
BRANCH  18  24
ATOM     24  O   UNL     1       4.322  -1.626   6.206  0.00  0.00    -0.387 OA
ATOM     25  H   UNL     1       4.454  -1.647   7.164  0.00  0.00    +0.210 HD
ENDBRANCH  18  24
BRANCH  17  26
ATOM     26  O   UNL     1       2.954  -0.956   3.856  0.00  0.00    -0.389 OA
ATOM     27  H   UNL     1       2.821  -1.845   4.211  0.00  0.00    +0.210 HD
ENDBRANCH  17  26
BRANCH  20  28
ATOM     28  C   UNL     1       2.534   2.954   6.107  0.00  0.00    +0.190 C 
BRANCH  28  29
ATOM     29  O   UNL     1       2.729   4.257   5.554  0.00  0.00    -0.392 OA
ATOM     30  H   UNL     1       2.093   4.915   5.865  0.00  0.00    +0.210 HD
ENDBRANCH  28  29
ENDBRANCH  20  28
ENDBRANCH  13  16
TORSDOF 6
