REMARK  Name = ZINC14999059
REMARK  10 active torsions:
REMARK  status: ('A' for Active; 'I' for Inactive)
REMARK    1  A    between atoms: C_1  and  O_2
REMARK    2  A    between atoms: O_2  and  C_3
REMARK    3  A    between atoms: C_5  and  C_11
REMARK    4  A    between atoms: C_7  and  O_9
REMARK    5  A    between atoms: O_9  and  C_10
REMARK    6  A    between atoms: N_13  and  C_14
REMARK    7  A    between atoms: N_13  and  C_33
REMARK    8  A    between atoms: C_14  and  C_15
REMARK    9  A    between atoms: C_23  and  N_24
REMARK   10  A    between atoms: C_33  and  C_34
REMARK                            x       y       z     vdW  Elec       q    Type
REMARK                         _______ _______ _______ _____ _____    ______ ____
ROOT
ATOM      1  C   UNL     1      -1.218   7.390   0.162  0.00  0.00    +0.146 C 
ENDROOT
BRANCH   1   2
ATOM      2  C   UNL     1      -1.543   8.114  -1.120  0.00  0.00    +0.008 A 
ATOM      3  C   UNL     1      -0.540   8.512  -1.952  0.00  0.00    +0.018 A 
ATOM      4  C   UNL     1      -0.886   9.181  -3.143  0.00  0.00    -0.001 A 
ATOM      5  C   UNL     1       0.093   9.615  -4.048  0.00  0.00    +0.014 A 
ATOM      6  C   UNL     1      -0.274  10.263  -5.192  0.00  0.00    -0.043 A 
ATOM      7  C   UNL     1      -1.618  10.500  -5.474  0.00  0.00    -0.042 A 
ATOM      8  C   UNL     1      -2.595  10.090  -4.613  0.00  0.00    +0.030 A 
ATOM      9  C   UNL     1      -2.253   9.422  -3.427  0.00  0.00    +0.048 A 
ATOM     10  C   UNL     1      -2.877   8.384  -1.455  0.00  0.00    +0.104 A 
ATOM     11  C   UNL     1      -1.737  11.229  -6.797  0.00  0.00    +0.036 C 
ATOM     12  C   UNL     1      -0.378  11.022  -7.498  0.00  0.00    +0.009 C 
ATOM     13  C   UNL     1       0.585  10.820  -6.309  0.00  0.00    +0.036 C 
ATOM     14  N   UNL     1      -3.268   9.027  -2.584  0.00  0.00    -0.343 N 
ATOM     15  H   UNL     1      -4.256   9.207  -2.796  0.00  0.00    +0.167 HD
BRANCH  10  16
ATOM     16  N   UNL     1      -3.887   7.979  -0.596  0.00  0.00    -0.312 N 
ATOM     17  C   UNL     1      -5.056   7.496  -1.346  0.00  0.00    +0.134 C 
ATOM     18  C   UNL     1      -6.120   7.004  -0.361  0.00  0.00    +0.178 C 
ATOM     19  O   UNL     1      -6.455   8.063   0.539  0.00  0.00    -0.377 OA
ATOM     20  C   UNL     1      -5.340   8.557   1.287  0.00  0.00    +0.178 C 
ATOM     21  C   UNL     1      -4.268   9.065   0.319  0.00  0.00    +0.134 C 
ENDBRANCH  10  16
ENDBRANCH   1   2
BRANCH   1  24
ATOM     22  C   UNL     1      -0.305   5.248  -0.555  0.00  0.00    +0.247 C 
ATOM     23  O   UNL     1       0.767   5.793  -0.730  0.00  0.00    -0.270 OA
ATOM     24  N   UNL     1      -1.341   5.946  -0.049  0.00  0.00    -0.291 N 
BRANCH  22  27
ATOM     25  C   UNL     1      -1.457   1.669  -0.446  0.00  0.00    +0.124 A 
ATOM     26  C   UNL     1      -1.298   3.006  -0.119  0.00  0.00    +0.059 A 
ATOM     27  C   UNL     1      -0.473   3.819  -0.897  0.00  0.00    +0.044 A 
ATOM     28  C   UNL     1       0.193   3.280  -1.998  0.00  0.00    +0.059 A 
ATOM     29  C   UNL     1       0.033   1.941  -2.315  0.00  0.00    +0.124 A 
ATOM     30  C   UNL     1      -0.789   1.136  -1.539  0.00  0.00    +0.091 A 
BRANCH  25  32
ATOM     31  C   UNL     1      -2.379  -0.492  -0.084  0.00  0.00    +0.277 C 
ATOM     32  O   UNL     1      -2.265   0.877   0.307  0.00  0.00    -0.495 OA
ENDBRANCH  25  32
BRANCH  29  33
ATOM     33  O   UNL     1       0.680   1.416  -3.388  0.00  0.00    -0.495 OA
ATOM     34  C   UNL     1       0.470   0.028  -3.657  0.00  0.00    +0.277 C 
ENDBRANCH  29  33
ENDBRANCH  22  27
BRANCH  24  35
ATOM     35  C   UNL     1      -2.591   5.260   0.290  0.00  0.00    +0.140 C 
BRANCH  35  36
ATOM     36  C   UNL     1      -2.775   5.257   1.809  0.00  0.00    +0.136 C 
ATOM     37  C   UNL     1      -4.048   4.473   2.182  0.00  0.00    +0.035 C 
ATOM     38  C   UNL     1      -3.540   3.345   3.113  0.00  0.00    +0.031 C 
ATOM     39  C   UNL     1      -2.182   3.912   3.599  0.00  0.00    +0.160 C 
ATOM     40  O   UNL     1      -1.665   4.591   2.435  0.00  0.00    -0.375 OA
ENDBRANCH  35  36
ENDBRANCH  24  35
ENDBRANCH   1  24
TORSDOF 8
