REMARK  Name = ZINC34792120
REMARK  12 active torsions:
REMARK  status: ('A' for Active; 'I' for Inactive)
REMARK    1  A    between atoms: C_1  and  N_2
REMARK    2  A    between atoms: C_5  and  C_10
REMARK    3  A    between atoms: C_15  and  C_16
REMARK    4  A    between atoms: N_22  and  C_24
REMARK    5  A    between atoms: C_24  and  C_25
REMARK    6  A    between atoms: N_27  and  C_28
REMARK    7  A    between atoms: N_27  and  C_33
REMARK    8  A    between atoms: C_28  and  C_29
REMARK    9  A    between atoms: C_29  and  N_30
REMARK   10  A    between atoms: N_30  and  C_31
REMARK   11  A    between atoms: N_30  and  C_32
REMARK   12  A    between atoms: C_33  and  C_34
REMARK                            x       y       z     vdW  Elec       q    Type
REMARK                         _______ _______ _______ _____ _____    ______ ____
ROOT
ATOM      1  C   UNL     1      -1.867   1.072   0.129  0.00  0.00    +0.139 C 
ATOM      2  N   UNL     1      -1.323  -0.287   0.089  0.00  0.00    -0.260 N 
ATOM      3  C   UNL     1      -2.191  -1.334   0.213  0.00  0.00    +0.042 C 
ATOM      4  C   UNL     1      -1.756  -2.610   0.184  0.00  0.00    +0.058 C 
ATOM      5  C   UNL     1      -0.270  -2.844   0.009  0.00  0.00    +0.142 C 
ATOM      6  N   UNL     1       0.583  -1.650  -0.117  0.00  0.00    -0.288 N 
ATOM      7  C   UNL     1      -0.002  -0.436  -0.074  0.00  0.00    +0.307 C 
ATOM      8  O   UNL     1       0.693   0.555  -0.181  0.00  0.00    -0.252 OA
ATOM      9  C   UNL     1      -2.840  -3.501   0.333  0.00  0.00    +0.247 C 
ATOM     10  O   UNL     1      -2.737  -4.714   0.343  0.00  0.00    -0.270 OA
ATOM     11  N   UNL     1      -4.002  -2.835   0.461  0.00  0.00    -0.283 N 
ATOM     12  C   UNL     1      -3.691  -1.399   0.397  0.00  0.00    +0.160 C 
ATOM     13  H   UNL     1       1.542  -1.735  -0.232  0.00  0.00    +0.151 HD
ENDROOT
BRANCH   5  14
ATOM     14  C   UNL     1      -0.074  -3.685  -1.226  0.00  0.00    -0.011 A 
ATOM     15  C   UNL     1      -0.275  -3.133  -2.478  0.00  0.00    +0.006 A 
ATOM     16  C   UNL     1      -0.096  -3.905  -3.611  0.00  0.00    +0.000 A 
ATOM     17  C   UNL     1       0.284  -5.229  -3.492  0.00  0.00    +0.001 A 
ATOM     18  C   UNL     1       0.486  -5.780  -2.241  0.00  0.00    +0.013 A 
ATOM     19  C   UNL     1       0.311  -5.008  -1.108  0.00  0.00    +0.060 A 
BRANCH  19  20
ATOM     20  C   UNL     1       0.536  -5.608   0.256  0.00  0.00    +0.418 C 
ATOM     21  F   UNL     1       0.851  -6.964   0.122  0.00  0.00    -0.166 F 
ATOM     22  F   UNL     1       1.592  -4.944   0.889  0.00  0.00    -0.166 F 
ATOM     23  F   UNL     1      -0.626  -5.472   1.022  0.00  0.00    -0.166 F 
ENDBRANCH  19  20
ENDBRANCH   5  14
BRANCH  11  24
ATOM     24  C   UNL     1      -5.329  -3.430   0.633  0.00  0.00    +0.204 C 
BRANCH  24  25
ATOM     25  C   UNL     1      -5.614  -3.607   2.102  0.00  0.00    +0.233 C 
ATOM     26  O   UNL     1      -4.789  -3.270   2.925  0.00  0.00    -0.274 OA
ATOM     27  N   UNL     1      -6.785  -4.141   2.502  0.00  0.00    -0.298 N 
BRANCH  27  28
ATOM     28  C   UNL     1      -7.782  -4.548   1.509  0.00  0.00    +0.089 C 
BRANCH  28  29
ATOM     29  C   UNL     1      -7.544  -6.008   1.117  0.00  0.00    -0.060 C 
BRANCH  29  30
ATOM     30  N   UNL     1      -8.543  -6.416   0.120  0.00  0.00    +0.377 N 
ATOM     31  C   UNL     1      -8.347  -5.646  -1.115  0.00  0.00    -0.097 C 
ATOM     32  C   UNL     1      -8.391  -7.849  -0.167  0.00  0.00    -0.097 C 
ATOM     33  H   UNL     1      -9.469  -6.242   0.482  0.00  0.00    -0.083 HD
ENDBRANCH  29  30
ENDBRANCH  28  29
ENDBRANCH  27  28
BRANCH  27  34
ATOM     34  C   UNL     1      -7.062  -4.314   3.930  0.00  0.00    +0.142 C 
BRANCH  34  35
ATOM     35  C   UNL     1      -7.732  -3.075   4.466  0.00  0.00    -0.030 A 
ATOM     36  C   UNL     1      -6.969  -2.038   4.970  0.00  0.00    +0.005 A 
ATOM     37  C   UNL     1      -7.584  -0.902   5.460  0.00  0.00    +0.000 A 
ATOM     38  C   UNL     1      -8.963  -0.801   5.447  0.00  0.00    +0.000 A 
ATOM     39  C   UNL     1      -9.726  -1.837   4.942  0.00  0.00    +0.000 A 
ATOM     40  C   UNL     1      -9.111  -2.972   4.447  0.00  0.00    +0.005 A 
ENDBRANCH  34  35
ENDBRANCH  27  34
ENDBRANCH  24  25
ENDBRANCH  11  24
TORSDOF 9
