REMARK  Name = ZINC59912833
REMARK  12 active torsions:
REMARK  status: ('A' for Active; 'I' for Inactive)
REMARK    1  A    between atoms: C_1  and  C_2
REMARK    2  A    between atoms: C_5  and  N_9
REMARK    3  A    between atoms: C_6  and  C_8
REMARK    4  A    between atoms: N_9  and  S_10
REMARK    5  A    between atoms: S_10  and  C_13
REMARK    6  A    between atoms: C_16  and  N_19
REMARK    7  A    between atoms: C_20  and  C_22
REMARK    8  A    between atoms: C_22  and  C_23
REMARK    9  A    between atoms: C_23  and  S_24
REMARK   10  A    between atoms: S_24  and  C_25
REMARK   11  A    between atoms: C_28  and  C_31
REMARK   12  A    between atoms: N_29  and  N_30
REMARK                            x       y       z     vdW  Elec       q    Type
REMARK                         _______ _______ _______ _____ _____    ______ ____
ROOT
ATOM      1  C   UNL     1       2.518  -4.718  -1.151  0.00  0.00    +0.109 A 
ATOM      2  C   UNL     1       3.113  -3.640  -1.779  0.00  0.00    +0.030 A 
ATOM      3  C   UNL     1       4.473  -3.433  -1.661  0.00  0.00    +0.025 A 
ATOM      4  C   UNL     1       5.244  -4.310  -0.909  0.00  0.00    +0.033 A 
ATOM      5  C   UNL     1       4.644  -5.392  -0.279  0.00  0.00    +0.025 A 
ATOM      6  C   UNL     1       3.283  -5.590  -0.397  0.00  0.00    +0.030 A 
ENDROOT
BRANCH   4   7
ATOM      7  N   UNL     1       6.623  -4.103  -0.788  0.00  0.00    -0.285 N 
ATOM      8  C   UNL     1       7.114  -2.849  -0.730  0.00  0.00    +0.218 C 
ATOM      9  O   UNL     1       6.372  -1.900  -0.868  0.00  0.00    -0.275 OA
ATOM     10  H   UNL     1       7.225  -4.862  -0.745  0.00  0.00    +0.155 HD
BRANCH   8  11
ATOM     11  C   UNL     1       8.586  -2.627  -0.495  0.00  0.00    +0.107 C 
BRANCH  11  12
ATOM     12  C   UNL     1       8.878  -1.125  -0.474  0.00  0.00    +0.086 C 
BRANCH  12  13
ATOM     13  S   UNL     1      10.649  -0.857  -0.191  0.00  0.00    -0.084 S 
BRANCH  13  14
ATOM     14  C   UNL     1      10.821   0.896  -0.194  0.00  0.00    +0.208 A 
ATOM     15  N   UNL     1       9.860   1.774  -0.360  0.00  0.00    -0.121 NA
ATOM     16  N   UNL     1      10.341   2.965  -0.305  0.00  0.00    -0.132 NA
ATOM     17  C   UNL     1      11.627   2.918  -0.102  0.00  0.00    +0.154 A 
ATOM     18  N   UNL     1      11.979   1.599  -0.018  0.00  0.00    -0.228 N 
BRANCH  18  19
ATOM     19  N   UNL     1      13.228   1.090   0.194  0.00  0.00    -0.295 N 
ATOM     20  H   UNL     1      13.710   0.939  -0.679  0.00  0.00    +0.163 HD
ATOM     21  H   UNL     1      13.764   1.689   0.804  0.00  0.00    +0.163 HD
ENDBRANCH  18  19
BRANCH  17  22
ATOM     22  C   UNL     1      12.555   4.099   0.024  0.00  0.00    +0.059 C 
ATOM     23  C   UNL     1      11.922   5.489   0.107  0.00  0.00    +0.012 C 
ATOM     24  C   UNL     1      12.648   5.054  -1.168  0.00  0.00    +0.012 C 
ENDBRANCH  17  22
ENDBRANCH  13  14
ENDBRANCH  12  13
ENDBRANCH  11  12
ENDBRANCH   8  11
ENDBRANCH   4   7
BRANCH   1  25
ATOM     25  S   UNL     1       0.783  -4.979  -1.304  0.00  0.00    +0.072 S 
ATOM     26  O   UNL     1       0.556  -6.361  -1.065  0.00  0.00    -0.150 OA
ATOM     27  O   UNL     1       0.381  -4.338  -2.507  0.00  0.00    -0.150 OA
BRANCH  25  28
ATOM     28  N   UNL     1       0.053  -4.159  -0.064  0.00  0.00    -0.216 N 
ATOM     29  H   UNL     1      -0.484  -4.639   0.585  0.00  0.00    +0.174 HD
BRANCH  28  34
ATOM     30  C   UNL     1       0.697   1.458   0.388  0.00  0.00    +0.044 C 
ATOM     31  C   UNL     1       0.526  -0.035   0.268  0.00  0.00    -0.050 A 
ATOM     32  C   UNL     1       0.442  -0.622  -0.982  0.00  0.00    +0.005 A 
ATOM     33  C   UNL     1       0.286  -1.989  -1.096  0.00  0.00    +0.025 A 
ATOM     34  C   UNL     1       0.212  -2.775   0.047  0.00  0.00    +0.051 A 
ATOM     35  C   UNL     1       0.296  -2.183   1.301  0.00  0.00    -0.028 A 
ATOM     36  C   UNL     1       0.458  -0.815   1.407  0.00  0.00    +0.008 A 
ATOM     37  C   UNL     1       0.216  -3.032   2.543  0.00  0.00    +0.046 C 
ENDBRANCH  28  34
ENDBRANCH  25  28
ENDBRANCH   1  25
TORSDOF 10
