REMARK  Name = ZINC63425406
REMARK  7 active torsions:
REMARK  status: ('A' for Active; 'I' for Inactive)
REMARK    1  A    between atoms: C_1  and  O_2
REMARK    2  A    between atoms: O_2  and  C_3
REMARK    3  A    between atoms: C_3  and  C_5
REMARK    4  A    between atoms: C_5  and  C_7
REMARK    5  A    between atoms: C_5  and  N_17
REMARK    6  A    between atoms: C_7  and  C_8
REMARK    7  A    between atoms: C_18  and  C_19
REMARK                            x       y       z     vdW  Elec       q    Type
REMARK                         _______ _______ _______ _____ _____    ______ ____
ROOT
ATOM      1  C   UNL     1       0.657  -2.104  -1.120  0.00  0.00    +0.217 C 
ENDROOT
BRANCH   1   2
ATOM      2  C   UNL     1       0.598  -0.600  -1.043  0.00  0.00    +0.332 C 
ATOM      3  O   UNL     1       1.088   0.070  -1.921  0.00  0.00    -0.248 OA
BRANCH   2   5
ATOM      4  C   UNL     1      -0.017   1.425   0.010  0.00  0.00    +0.280 C 
ATOM      5  O   UNL     1       0.002  -0.004   0.002  0.00  0.00    -0.466 OA
ENDBRANCH   2   5
ENDBRANCH   1   2
BRANCH   1   6
ATOM      6  N   UNL     1       1.354  -2.503  -2.345  0.00  0.00    -0.276 NA
ATOM      7  C   UNL     1       0.744  -3.229  -3.231  0.00  0.00    +0.124 C 
BRANCH   7   8
ATOM      8  C   UNL     1       1.442  -3.629  -4.459  0.00  0.00    +0.123 A 
ATOM      9  C   UNL     1       0.799  -4.406  -5.426  0.00  0.00    +0.265 A 
ATOM     10  N   UNL     1       1.487  -4.753  -6.549  0.00  0.00    -0.301 N 
ATOM     11  C   UNL     1       2.759  -4.352  -6.718  0.00  0.00    +0.184 A 
ATOM     12  N   UNL     1       3.387  -3.612  -5.807  0.00  0.00    -0.184 NA
ATOM     13  C   UNL     1       2.781  -3.232  -4.694  0.00  0.00    +0.286 A 
ATOM     14  O   UNL     1       3.436  -2.475  -3.787  0.00  0.00    -0.265 OA
ATOM     15  S   UNL     1       3.594  -4.807  -8.142  0.00  0.00    -0.011 S 
ATOM     16  O   UNL     1      -0.476  -4.804  -5.250  0.00  0.00    -0.267 OA
ATOM     17  H   UNL     1       1.056  -5.292  -7.231  0.00  0.00    +0.171 HD
ENDBRANCH   7   8
ENDBRANCH   1   6
BRANCH   1  18
ATOM     18  C   UNL     1       1.412  -2.647   0.096  0.00  0.00    +0.071 C 
BRANCH  18  19
ATOM     19  C   UNL     1       1.365  -4.153   0.083  0.00  0.00    -0.039 C 
ATOM     20  C   UNL     1       2.303  -4.992  -0.414  0.00  0.00    -0.001 A 
ATOM     21  C   UNL     1       3.596  -4.761  -1.068  0.00  0.00    +0.010 A 
ATOM     22  C   UNL     1       4.329  -5.826  -1.467  0.00  0.00    +0.001 A 
ATOM     23  C   UNL     1       3.884  -7.141  -1.272  0.00  0.00    +0.002 A 
ATOM     24  C   UNL     1       2.707  -7.433  -0.679  0.00  0.00    +0.026 A 
ATOM     25  C   UNL     1       1.856  -6.390  -0.220  0.00  0.00    +0.043 A 
ATOM     26  N   UNL     1       0.688  -6.415   0.375  0.00  0.00    -0.380 N 
ATOM     27  C   UNL     1       0.264  -5.034   0.630  0.00  0.00    +0.144 C 
ATOM     28  H   UNL     1       0.189  -7.213   0.610  0.00  0.00    +0.160 HD
ENDBRANCH  18  19
ENDBRANCH   1  18
TORSDOF 6
