REMARK  Name = ZINC39394506
REMARK  14 active torsions:
REMARK  status: ('A' for Active; 'I' for Inactive)
REMARK    1  A    between atoms: C_1  and  N_2
REMARK    2  A    between atoms: N_2  and  C_3
REMARK    3  A    between atoms: N_2  and  C_29
REMARK    4  A    between atoms: C_3  and  C_4
REMARK    5  A    between atoms: C_4  and  C_6
REMARK    6  A    between atoms: C_4  and  O_28
REMARK    7  A    between atoms: C_6  and  O_7
REMARK    8  A    between atoms: O_7  and  C_8
REMARK    9  A    between atoms: C_11  and  C_16
REMARK   10  A    between atoms: C_13  and  O_14
REMARK   11  A    between atoms: O_14  and  C_15
REMARK   12  A    between atoms: C_16  and  N_17
REMARK   13  A    between atoms: N_17  and  C_18
REMARK   14  A    between atoms: C_18  and  C_19
REMARK                            x       y       z     vdW  Elec       q    Type
REMARK                         _______ _______ _______ _____ _____    ______ ____
ROOT
ATOM      1  C   UNL     1      -5.626  -0.804  -2.217  0.00  0.00    +0.162 A 
ATOM      2  C   UNL     1      -6.236  -1.268  -1.062  0.00  0.00    +0.049 A 
ATOM      3  C   UNL     1      -7.577  -1.601  -1.075  0.00  0.00    +0.005 A 
ATOM      4  C   UNL     1      -8.314  -1.473  -2.238  0.00  0.00    -0.061 A 
ATOM      5  C   UNL     1      -7.712  -1.011  -3.393  0.00  0.00    +0.051 A 
ATOM      6  C   UNL     1      -6.369  -0.669  -3.386  0.00  0.00    +0.162 A 
ENDROOT
BRANCH   6   7
ATOM      7  O   UNL     1      -5.777  -0.209  -4.520  0.00  0.00    -0.491 OA
ATOM      8  C   UNL     1      -6.600  -0.097  -5.683  0.00  0.00    +0.277 C 
ENDBRANCH   6   7
BRANCH   1   9
ATOM      9  O   UNL     1      -4.307  -0.475  -2.206  0.00  0.00    -0.486 OA
BRANCH   9  10
ATOM     10  C   UNL     1      -3.608  -0.639  -0.971  0.00  0.00    +0.258 C 
BRANCH  10  11
ATOM     11  C   UNL     1      -2.147  -0.221  -1.152  0.00  0.00    +0.135 C 
BRANCH  11  12
ATOM     12  O   UNL     1      -2.083   1.177  -1.440  0.00  0.00    -0.390 OA
ATOM     13  H   UNL     1      -2.456   1.739  -0.748  0.00  0.00    +0.210 HD
ENDBRANCH  11  12
BRANCH  11  14
ATOM     14  C   UNL     1      -1.370  -0.513   0.133  0.00  0.00    -0.044 C 
BRANCH  14  16
ATOM     15  C   UNL     1       0.308   1.135  -0.339  0.00  0.00    -0.096 C 
ATOM     16  N   UNL     1       0.064  -0.293  -0.101  0.00  0.00    +0.381 N 
ATOM     17  H   UNL     1       0.358  -0.824  -0.907  0.00  0.00    -0.082 HD
BRANCH  16  18
ATOM     18  C   UNL     1       0.825  -0.731   1.077  0.00  0.00    -0.069 C 
ATOM     19  C   UNL     1       2.318  -0.502   0.833  0.00  0.00    -0.015 C 
ATOM     20  C   UNL     1       3.111  -0.958   2.060  0.00  0.00    -0.002 C 
ATOM     21  C   UNL     1       2.857  -2.446   2.307  0.00  0.00    -0.000 C 
ATOM     22  C   UNL     1       1.364  -2.675   2.551  0.00  0.00    -0.002 C 
ATOM     23  C   UNL     1       0.571  -2.219   1.324  0.00  0.00    -0.015 C 
ENDBRANCH  16  18
ENDBRANCH  14  16
ENDBRANCH  11  14
ENDBRANCH  10  11
ENDBRANCH   9  10
ENDBRANCH   1   9
BRANCH   4  24
ATOM     24  C   UNL     1      -9.776  -1.838  -2.246  0.00  0.00    -0.047 C 
BRANCH  24  25
ATOM     25  N   UNL     1     -10.578  -0.657  -1.899  0.00  0.00    +0.383 N 
ATOM     26  H   UNL     1     -10.317  -0.333  -0.980  0.00  0.00    -0.085 HD
ATOM     27  H   UNL     1     -10.410   0.073  -2.574  0.00  0.00    -0.085 HD
BRANCH  25  28
ATOM     28  C   UNL     1     -12.003  -1.014  -1.907  0.00  0.00    -0.049 C 
BRANCH  28  29
ATOM     29  C   UNL     1     -12.838   0.216  -1.545  0.00  0.00    +0.139 C 
ATOM     30  C   UNL     1     -14.315  -0.067  -1.723  0.00  0.00    -0.023 C 
ATOM     31  C   UNL     1     -14.716   0.796  -2.655  0.00  0.00    +0.064 C 
ATOM     32  C   UNL     1     -16.199   0.611  -2.924  0.00  0.00    +0.057 C 
ATOM     33  C   UNL     1     -16.545  -0.774  -2.334  0.00  0.00    +0.011 C 
ATOM     34  C   UNL     1     -15.453  -0.934  -1.252  0.00  0.00    +0.035 C 
ATOM     35  N   UNL     1     -13.666   1.561  -3.060  0.00  0.00    -0.159 NA
ATOM     36  N   UNL     1     -12.594   1.312  -2.500  0.00  0.00    -0.181 NA
ENDBRANCH  28  29
ENDBRANCH  25  28
ENDBRANCH  24  25
ENDBRANCH   4  24
TORSDOF 12
