REMARK  Name = ZINC67406934
REMARK  8 active torsions:
REMARK  status: ('A' for Active; 'I' for Inactive)
REMARK    1  A    between atoms: C_1  and  C_2
REMARK    2  A    between atoms: C_6  and  C_7
REMARK    3  A    between atoms: N_9  and  N_10
REMARK    4  A    between atoms: N_13  and  C_14
REMARK    5  A    between atoms: C_14  and  C_15
REMARK    6  A    between atoms: C_15  and  C_17
REMARK    7  A    between atoms: C_15  and  C_18
REMARK    8  A    between atoms: C_18  and  N_19
REMARK                            x       y       z     vdW  Elec       q    Type
REMARK                         _______ _______ _______ _____ _____    ______ ____
ROOT
ATOM      1  N   UNL     1      -0.221  -1.022   4.215  0.00  0.00    -0.218 N 
ATOM      2  C   UNL     1      -0.207  -1.751   5.348  0.00  0.00    +0.316 C 
ATOM      3  O   UNL     1      -0.390  -1.210   6.421  0.00  0.00    -0.251 OA
ATOM      4  N   UNL     1       0.009  -3.080   5.291  0.00  0.00    -0.298 N 
ATOM      5  H   UNL     1      -0.377  -0.065   4.255  0.00  0.00    +0.174 HD
ATOM      6  H   UNL     1       0.154  -3.512   4.435  0.00  0.00    +0.150 HD
ENDROOT
BRANCH   1   9
ATOM      7  C   UNL     1      -0.025  -0.916   1.844  0.00  0.00    +0.267 C 
ATOM      8  O   UNL     1      -0.221   0.284   1.896  0.00  0.00    -0.268 OA
ATOM      9  N   UNL     1      -0.011  -1.645   2.978  0.00  0.00    -0.229 N 
ATOM     10  H   UNL     1       0.144  -2.602   2.937  0.00  0.00    +0.173 HD
BRANCH   7  16
ATOM     11  C   UNL     1       0.005   0.466  -0.947  0.00  0.00    +0.045 C 
ATOM     12  C   UNL     1       0.219  -1.008  -0.718  0.00  0.00    -0.031 A 
ATOM     13  C   UNL     1       0.457  -1.881  -1.752  0.00  0.00    +0.011 A 
ATOM     14  C   UNL     1       0.640  -3.196  -1.475  0.00  0.00    +0.046 A 
ATOM     15  S   UNL     1       0.497  -3.289   0.196  0.00  0.00    -0.092 S 
ATOM     16  C   UNL     1       0.194  -1.568   0.550  0.00  0.00    +0.078 A 
ENDBRANCH   7  16
ENDBRANCH   1   9
BRANCH   4  17
ATOM     17  C   UNL     1       0.024  -3.873   6.523  0.00  0.00    +0.107 C 
BRANCH  17  18
ATOM     18  C   UNL     1       0.288  -5.341   6.181  0.00  0.00    -0.014 C 
ATOM     19  C   UNL     1       1.692  -5.483   5.591  0.00  0.00    +0.007 C 
BRANCH  18  20
ATOM     20  C   UNL     1       0.180  -6.187   7.452  0.00  0.00    -0.074 C 
BRANCH  20  21
ATOM     21  N   UNL     1       0.313  -7.609   7.105  0.00  0.00    +0.380 N 
ATOM     22  C   UNL     1       0.367  -8.407   8.336  0.00  0.00    -0.079 C 
ATOM     23  C   UNL     1       0.586  -9.880   7.983  0.00  0.00    -0.019 C 
ATOM     24  C   UNL     1      -0.572 -10.367   7.107  0.00  0.00    -0.004 C 
ATOM     25  C   UNL     1      -0.666  -9.480   5.863  0.00  0.00    -0.019 C 
ATOM     26  C   UNL     1      -0.839  -8.022   6.294  0.00  0.00    -0.079 C 
ATOM     27  H   UNL     1       1.162  -7.748   6.578  0.00  0.00    -0.082 HD
ENDBRANCH  20  21
ENDBRANCH  18  20
ENDBRANCH  17  18
ENDBRANCH   4  17
TORSDOF 6
