REMARK  Name = ZINC56156197
REMARK  12 active torsions:
REMARK  status: ('A' for Active; 'I' for Inactive)
REMARK    1  A    between atoms: C_1  and  C_2
REMARK    2  A    between atoms: N_8  and  C_9
REMARK    3  A    between atoms: C_9  and  C_10
REMARK    4  A    between atoms: C_15  and  C_16
REMARK    5  A    between atoms: C_16  and  N_17
REMARK    6  A    between atoms: N_17  and  C_18
REMARK    7  A    between atoms: C_18  and  C_20
REMARK    8  A    between atoms: C_18  and  C_21
REMARK    9  A    between atoms: N_26  and  C_27
REMARK   10  A    between atoms: C_27  and  C_28
REMARK   11  A    between atoms: C_27  and  C_29
REMARK   12  A    between atoms: C_27  and  C_30
REMARK                            x       y       z     vdW  Elec       q    Type
REMARK                         _______ _______ _______ _____ _____    ______ ____
ROOT
ATOM      1  C   UNL     1       2.259   1.147   3.460  0.00  0.00    +0.117 C 
ENDROOT
BRANCH   1   7
ATOM      2  C   UNL     1       0.652  -0.768   3.568  0.00  0.00    -0.060 A 
ATOM      3  C   UNL     1       0.191  -1.935   4.148  0.00  0.00    +0.002 A 
ATOM      4  C   UNL     1       0.827  -2.451   5.262  0.00  0.00    +0.000 A 
ATOM      5  C   UNL     1       1.925  -1.801   5.794  0.00  0.00    +0.000 A 
ATOM      6  C   UNL     1       2.386  -0.635   5.213  0.00  0.00    +0.005 A 
ATOM      7  C   UNL     1       1.753  -0.121   4.097  0.00  0.00    -0.032 A 
BRANCH   2   8
ATOM      8  C   UNL     1      -0.041  -0.206   2.354  0.00  0.00    -0.042 C 
BRANCH   8  15
ATOM      9  C   UNL     1      -1.072  -0.653  -0.219  0.00  0.00    -0.013 C 
ATOM     10  C   UNL     1      -1.991  -0.362   0.969  0.00  0.00    -0.071 C 
ATOM     11  C   UNL     1      -3.327  -1.081   0.767  0.00  0.00    -0.016 C 
ATOM     12  C   UNL     1      -4.244  -0.787   1.959  0.00  0.00    -0.003 C 
ATOM     13  C   UNL     1      -3.541  -1.219   3.249  0.00  0.00    -0.019 C 
ATOM     14  C   UNL     1      -2.197  -0.496   3.359  0.00  0.00    -0.078 C 
ATOM     15  N   UNL     1      -1.358  -0.839   2.204  0.00  0.00    +0.384 N 
ATOM     16  H   UNL     1      -1.244  -1.841   2.158  0.00  0.00    -0.081 HD
ENDBRANCH   8  15
ENDBRANCH   2   8
ENDBRANCH   1   7
BRANCH   1  17
ATOM     17  N   UNL     1       1.480   2.290   3.957  0.00  0.00    -0.302 NA
ATOM     18  H   UNL     1       0.490   2.120   3.864  0.00  0.00    +0.123 HD
BRANCH  17  19
ATOM     19  C   UNL     1       1.869   3.530   3.273  0.00  0.00    +0.138 C 
ATOM     20  C   UNL     1       1.109   3.642   1.949  0.00  0.00    +0.034 C 
BRANCH  19  21
ATOM     21  C   UNL     1       1.535   4.712   4.146  0.00  0.00    +0.237 C 
ATOM     22  O   UNL     1       1.023   4.538   5.231  0.00  0.00    -0.274 OA
ATOM     23  N   UNL     1       1.804   5.962   3.720  0.00  0.00    -0.239 N 
ATOM     24  C   UNL     1       1.505   7.019   4.501  0.00  0.00    +0.306 C 
ATOM     25  O   UNL     1       0.992   6.845   5.589  0.00  0.00    -0.252 OA
ATOM     26  N   UNL     1       1.775   8.269   4.075  0.00  0.00    -0.294 N 
ATOM     27  H   UNL     1       2.214   6.101   2.852  0.00  0.00    +0.159 HD
ATOM     28  H   UNL     1       2.184   8.408   3.207  0.00  0.00    +0.151 HD
BRANCH  26  29
ATOM     29  C   UNL     1       1.450   9.418   4.924  0.00  0.00    +0.028 C 
ATOM     30  C   UNL     1       2.209   9.306   6.247  0.00  0.00    +0.031 C 
ATOM     31  C   UNL     1       1.855  10.709   4.211  0.00  0.00    +0.031 C 
ATOM     32  C   UNL     1      -0.055   9.438   5.200  0.00  0.00    +0.031 C 
ENDBRANCH  26  29
ENDBRANCH  19  21
ENDBRANCH  17  19
ENDBRANCH   1  17
TORSDOF 7
