REMARK  Name = ZINC39639271
REMARK  8 active torsions:
REMARK  status: ('A' for Active; 'I' for Inactive)
REMARK    1  A    between atoms: C_1  and  C_2
REMARK    2  A    between atoms: C_5  and  C_8
REMARK    3  A    between atoms: C_8  and  C_10
REMARK    4  A    between atoms: C_8  and  N_11
REMARK    5  A    between atoms: C_12  and  C_14
REMARK    6  A    between atoms: C_25  and  C_27
REMARK    7  A    between atoms: C_30  and  O_33
REMARK    8  A    between atoms: O_33  and  C_34
REMARK                            x       y       z     vdW  Elec       q    Type
REMARK                         _______ _______ _______ _____ _____    ______ ____
ROOT
ATOM      1  C   UNL     1       2.722  -6.231   1.403  0.00  0.00    +0.100 C 
ATOM      2  C   UNL     1       3.991  -5.434   1.782  0.00  0.00    +0.121 C 
ATOM      3  N   UNL     1       4.993  -6.469   2.129  0.00  0.00    -0.296 N 
ATOM      4  C   UNL     1       4.770  -7.546   1.134  0.00  0.00    +0.115 C 
ATOM      5  C   UNL     1       3.238  -7.616   0.978  0.00  0.00    -0.004 C 
ATOM      6  C   UNL     1       2.869  -7.893  -0.476  0.00  0.00    -0.010 C 
ATOM      7  C   UNL     1       3.341  -9.299  -0.859  0.00  0.00    -0.082 C 
ATOM      8  N   UNL     1       2.709 -10.286   0.024  0.00  0.00    +0.379 N 
ATOM      9  C   UNL     1       3.143 -10.069   1.410  0.00  0.00    -0.082 C 
ATOM     10  C   UNL     1       2.663  -8.696   1.888  0.00  0.00    -0.010 C 
ATOM     11  C   UNL     1       5.902  -6.439   3.124  0.00  0.00    +0.247 C 
ATOM     12  O   UNL     1       5.878  -5.539   3.941  0.00  0.00    -0.270 OA
ATOM     13  H   UNL     1       1.706 -10.192  -0.031  0.00  0.00    -0.086 HD
ATOM     14  H   UNL     1       2.974 -11.215  -0.268  0.00  0.00    -0.086 HD
ENDROOT
BRANCH  11  15
ATOM     15  C   UNL     1       6.926  -7.497   3.220  0.00  0.00    +0.037 A 
ATOM     16  C   UNL     1       7.249  -8.264   2.098  0.00  0.00    +0.016 A 
ATOM     17  C   UNL     1       8.206  -9.250   2.192  0.00  0.00    +0.047 A 
ATOM     18  C   UNL     1       8.849  -9.484   3.401  0.00  0.00    +0.130 A 
ATOM     19  C   UNL     1       8.531  -8.723   4.521  0.00  0.00    +0.047 A 
ATOM     20  C   UNL     1       7.580  -7.731   4.433  0.00  0.00    +0.016 A 
BRANCH  18  21
ATOM     21  O   UNL     1       9.790 -10.457   3.490  0.00  0.00    -0.406 OA
BRANCH  21  22
ATOM     22  C   UNL     1      10.412 -10.644   4.763  0.00  0.00    +0.575 C 
ATOM     23  F   UNL     1       9.440 -10.973   5.714  0.00  0.00    -0.133 F 
ATOM     24  F   UNL     1      11.350 -11.679   4.677  0.00  0.00    -0.133 F 
ATOM     25  F   UNL     1      11.056  -9.462   5.146  0.00  0.00    -0.133 F 
ENDBRANCH  21  22
ENDBRANCH  18  21
ENDBRANCH  11  15
BRANCH   1  27
ATOM     26  N   UNL     1       0.667  -5.668   0.147  0.00  0.00    -0.308 N 
ATOM     27  C   UNL     1       2.006  -5.563   0.258  0.00  0.00    +0.219 C 
ATOM     28  O   UNL     1       2.635  -4.931  -0.564  0.00  0.00    -0.275 OA
ATOM     29  H   UNL     1       0.164  -6.174   0.804  0.00  0.00    +0.149 HD
BRANCH  26  30
ATOM     30  C   UNL     1      -0.029  -5.019  -0.967  0.00  0.00    +0.100 C 
ATOM     31  C   UNL     1      -0.003  -5.938  -2.190  0.00  0.00    +0.033 C 
BRANCH  30  36
ATOM     32  C   UNL     1      -5.511  -3.972   0.534  0.00  0.00    +0.044 C 
ATOM     33  C   UNL     1      -4.081  -4.245   0.142  0.00  0.00    -0.050 A 
ATOM     34  C   UNL     1      -3.373  -3.308  -0.587  0.00  0.00    +0.004 A 
ATOM     35  C   UNL     1      -2.062  -3.559  -0.946  0.00  0.00    +0.006 A 
ATOM     36  C   UNL     1      -1.458  -4.746  -0.575  0.00  0.00    -0.027 A 
ATOM     37  C   UNL     1      -2.166  -5.682   0.156  0.00  0.00    +0.006 A 
ATOM     38  C   UNL     1      -3.476  -5.430   0.518  0.00  0.00    +0.004 A 
ENDBRANCH  30  36
ENDBRANCH  26  30
ENDBRANCH   1  27
TORSDOF 6
