REMARK  Name = ZINC39655354
REMARK  6 active torsions:
REMARK  status: ('A' for Active; 'I' for Inactive)
REMARK    1  A    between atoms: C_4  and  N_7
REMARK    2  A    between atoms: N_7  and  C_8
REMARK    3  A    between atoms: C_8  and  C_9
REMARK    4  A    between atoms: C_9  and  N_10
REMARK    5  A    between atoms: C_11  and  C_13
REMARK    6  A    between atoms: C_24  and  C_26
REMARK                            x       y       z     vdW  Elec       q    Type
REMARK                         _______ _______ _______ _____ _____    ______ ____
ROOT
ATOM      1  C   UNL     1       6.452  -5.883   0.501  0.00  0.00    +0.100 C 
ATOM      2  C   UNL     1       5.778  -6.691   1.633  0.00  0.00    +0.121 C 
ATOM      3  N   UNL     1       6.639  -7.885   1.805  0.00  0.00    -0.296 N 
ATOM      4  C   UNL     1       8.021  -7.367   1.656  0.00  0.00    +0.115 C 
ATOM      5  C   UNL     1       7.924  -6.329   0.520  0.00  0.00    -0.004 C 
ATOM      6  C   UNL     1       8.832  -5.139   0.815  0.00  0.00    -0.010 C 
ATOM      7  C   UNL     1      10.293  -5.595   0.771  0.00  0.00    -0.082 C 
ATOM      8  N   UNL     1      10.595  -6.150  -0.554  0.00  0.00    +0.379 N 
ATOM      9  C   UNL     1       9.783  -7.350  -0.790  0.00  0.00    -0.082 C 
ATOM     10  C   UNL     1       8.300  -6.968  -0.813  0.00  0.00    -0.010 C 
ATOM     11  C   UNL     1       6.255  -9.154   2.043  0.00  0.00    +0.247 C 
ATOM     12  O   UNL     1       5.075  -9.448   2.011  0.00  0.00    -0.270 OA
ATOM     13  H   UNL     1      10.389  -5.461  -1.261  0.00  0.00    -0.086 HD
ATOM     14  H   UNL     1      11.573  -6.394  -0.600  0.00  0.00    -0.086 HD
ENDROOT
BRANCH  11  15
ATOM     15  C   UNL     1       7.266 -10.189   2.342  0.00  0.00    +0.037 A 
ATOM     16  C   UNL     1       8.531  -9.820   2.802  0.00  0.00    +0.014 A 
ATOM     17  C   UNL     1       9.471 -10.791   3.080  0.00  0.00    +0.016 A 
ATOM     18  C   UNL     1       9.162 -12.129   2.903  0.00  0.00    +0.018 A 
ATOM     19  C   UNL     1       7.908 -12.501   2.447  0.00  0.00    +0.016 A 
ATOM     20  C   UNL     1       6.958 -11.540   2.172  0.00  0.00    +0.014 A 
ATOM     21 BR   UNL     1      10.456 -13.454   3.286  0.00  0.00    -0.050 Br
ENDBRANCH  11  15
BRANCH   1  23
ATOM     22  N   UNL     1       6.290  -3.531  -0.247  0.00  0.00    -0.314 N 
ATOM     23  C   UNL     1       6.347  -4.406   0.777  0.00  0.00    +0.218 C 
ATOM     24  O   UNL     1       6.314  -4.003   1.921  0.00  0.00    -0.275 OA
ATOM     25  H   UNL     1       6.316  -3.853  -1.161  0.00  0.00    +0.149 HD
BRANCH  22  26
ATOM     26  C   UNL     1       6.188  -2.095   0.022  0.00  0.00    +0.123 C 
BRANCH  26  27
ATOM     27  C   UNL     1       6.139  -1.331  -1.303  0.00  0.00    +0.120 C 
BRANCH  27  28
ATOM     28  N   UNL     1       6.037   0.106  -1.034  0.00  0.00    -0.342 N 
ATOM     29  H   UNL     1       6.011   0.428  -0.120  0.00  0.00    +0.146 HD
BRANCH  28  33
ATOM     30  C   UNL     1       5.861   2.808  -4.198  0.00  0.00    +0.000 A 
ATOM     31  C   UNL     1       5.823   3.268  -2.894  0.00  0.00    +0.002 A 
ATOM     32  C   UNL     1       5.881   2.375  -1.843  0.00  0.00    +0.023 A 
ATOM     33  C   UNL     1       5.978   1.012  -2.095  0.00  0.00    +0.027 A 
ATOM     34  C   UNL     1       6.015   0.553  -3.406  0.00  0.00    +0.023 A 
ATOM     35  C   UNL     1       5.957   1.452  -4.453  0.00  0.00    +0.002 A 
ENDBRANCH  28  33
ENDBRANCH  27  28
ENDBRANCH  26  27
ENDBRANCH  22  26
ENDBRANCH   1  23
TORSDOF 6
