REMARK  Name = ZINC66513311
REMARK  9 active torsions:
REMARK  status: ('A' for Active; 'I' for Inactive)
REMARK    1  A    between atoms: C_1  and  C_2
REMARK    2  A    between atoms: C_2  and  C_3
REMARK    3  A    between atoms: C_3  and  C_4
REMARK    4  A    between atoms: C_4  and  N_5
REMARK    5  A    between atoms: C_11  and  N_14
REMARK    6  A    between atoms: C_15  and  C_17
REMARK    7  A    between atoms: C_20  and  C_22
REMARK    8  A    between atoms: C_22  and  N_23
REMARK    9  A    between atoms: C_24  and  C_26
REMARK                            x       y       z     vdW  Elec       q    Type
REMARK                         _______ _______ _______ _____ _____    ______ ____
ROOT
ATOM      1  N   UNL     1      -2.100  -6.856  -0.977  0.00  0.00    -0.281 N 
ATOM      2  C   UNL     1      -1.342  -7.863  -1.454  0.00  0.00    +0.255 C 
ATOM      3  O   UNL     1      -0.921  -7.819  -2.596  0.00  0.00    -0.269 OA
ATOM      4  H   UNL     1      -2.369  -6.851  -0.044  0.00  0.00    +0.155 HD
ENDROOT
BRANCH   1  11
ATOM      5  N   UNL     1      -2.808  -2.571  -0.001  0.00  0.00    +0.385 N 
ATOM      6  C   UNL     1      -3.475  -2.320  -1.298  0.00  0.00    -0.042 C 
ATOM      7  C   UNL     1      -3.205  -3.547  -2.140  0.00  0.00    -0.061 A 
ATOM      8  C   UNL     1      -3.291  -3.765  -3.502  0.00  0.00    +0.002 A 
ATOM      9  C   UNL     1      -2.982  -5.006  -4.029  0.00  0.00    +0.002 A 
ATOM     10  C   UNL     1      -2.587  -6.033  -3.194  0.00  0.00    +0.023 A 
ATOM     11  C   UNL     1      -2.499  -5.818  -1.825  0.00  0.00    +0.035 A 
ATOM     12  C   UNL     1      -2.809  -4.571  -1.299  0.00  0.00    -0.041 A 
ATOM     13  C   UNL     1      -2.808  -4.047   0.119  0.00  0.00    -0.040 C 
ATOM     14  H   UNL     1      -3.331  -2.155   0.755  0.00  0.00    -0.081 HD
BRANCH   5  15
ATOM     15  C   UNL     1      -1.432  -2.056  -0.020  0.00  0.00    -0.078 C 
BRANCH  15  16
ATOM     16  C   UNL     1      -1.461  -0.526  -0.018  0.00  0.00    -0.019 C 
BRANCH  16  18
ATOM     17  C   UNL     1      -0.057   1.540  -0.036  0.00  0.00    +0.004 C 
ATOM     18  C   UNL     1      -0.028   0.011  -0.038  0.00  0.00    -0.005 C 
ENDBRANCH  16  18
ENDBRANCH  15  16
ENDBRANCH   5  15
ENDBRANCH   1  11
BRANCH   2  19
ATOM     19  C   UNL     1      -1.025  -9.011  -0.600  0.00  0.00    +0.074 A 
ATOM     20  C   UNL     1      -0.267 -10.134  -0.892  0.00  0.00    +0.021 A 
ATOM     21  C   UNL     1      -0.145 -11.052   0.124  0.00  0.00    +0.013 A 
ATOM     22  C   UNL     1      -0.755 -10.808   1.310  0.00  0.00    +0.008 A 
ATOM     23  S   UNL     1      -1.507  -9.322   1.088  0.00  0.00    -0.087 S 
BRANCH  22  24
ATOM     24  C   UNL     1      -0.753 -11.669   2.546  0.00  0.00    +0.146 C 
BRANCH  24  25
ATOM     25  N   UNL     1       0.381 -11.300   3.397  0.00  0.00    -0.311 N 
ATOM     26  C   UNL     1       0.585 -11.941   4.565  0.00  0.00    +0.210 C 
ATOM     27  O   UNL     1      -0.171 -12.824   4.911  0.00  0.00    -0.276 OA
ATOM     28  C   UNL     1       1.751 -11.562   5.439  0.00  0.00    +0.109 C 
ATOM     29  H   UNL     1       0.985 -10.594   3.120  0.00  0.00    +0.149 HD
ENDBRANCH  24  25
ENDBRANCH  22  24
ENDBRANCH   2  19
TORSDOF 7
