REMARK  Name = ZINC66737452
REMARK  6 active torsions:
REMARK  status: ('A' for Active; 'I' for Inactive)
REMARK    1  A    between atoms: C_3  and  C_8
REMARK    2  A    between atoms: C_8  and  C_9
REMARK    3  A    between atoms: C_9  and  C_10
REMARK    4  A    between atoms: C_10  and  N_11
REMARK    5  A    between atoms: N_13  and  C_14
REMARK    6  A    between atoms: C_14  and  C_15
REMARK                            x       y       z     vdW  Elec       q    Type
REMARK                         _______ _______ _______ _____ _____    ______ ____
ROOT
ATOM      1  N   UNL     1       5.871   3.463   2.787  0.00  0.00    -0.358 N 
ATOM      2  C   UNL     1       7.035   4.154   3.030  0.00  0.00    +0.169 C 
ATOM      3  N   UNL     1       7.420   4.370   4.256  0.00  0.00    -0.355 N 
ATOM      4  N   UNL     1       7.792   4.618   1.980  0.00  0.00    -0.371 N 
ATOM      5  H   UNL     1       5.337   3.136   3.527  0.00  0.00    +0.162 HD
ATOM      6  H   UNL     1       7.505   4.457   1.067  0.00  0.00    +0.159 HD
ATOM      7  H   UNL     1       8.612   5.105   2.152  0.00  0.00    +0.159 HD
ATOM      8  H   UNL     1       8.241   4.858   4.428  0.00  0.00    +0.162 HD
ENDROOT
BRANCH   1   9
ATOM      9  C   UNL     1       5.438   3.221   1.408  0.00  0.00    +0.116 C 
BRANCH   9  10
ATOM     10  C   UNL     1       4.124   2.437   1.417  0.00  0.00    +0.026 C 
BRANCH  10  11
ATOM     11  C   UNL     1       3.672   2.183  -0.022  0.00  0.00    +0.037 C 
BRANCH  11  14
ATOM     12  C   UNL     1      -0.017   1.378   0.010  0.00  0.00    +0.001 A 
ATOM     13  C   UNL     1       1.171   2.086   0.002  0.00  0.00    +0.004 A 
ATOM     14  C   UNL     1       2.378   1.411  -0.013  0.00  0.00    -0.046 A 
ATOM     15  C   UNL     1       2.397   0.029  -0.022  0.00  0.00    +0.019 A 
ATOM     16  C   UNL     1       1.210  -0.679  -0.014  0.00  0.00    +0.018 A 
ATOM     17  C   UNL     1       0.002  -0.004   0.002  0.00  0.00    +0.015 A 
ATOM     18 BR   UNL     1       1.236  -2.570  -0.025  0.00  0.00    -0.050 Br
ENDBRANCH  11  14
ENDBRANCH  10  11
ENDBRANCH   9  10
ENDBRANCH   1   9
BRANCH   3  19
ATOM     19  C   UNL     1       6.613   3.877   5.375  0.00  0.00    +0.147 C 
BRANCH  19  20
ATOM     20  C   UNL     1       7.284   4.261   6.696  0.00  0.00    +0.137 C 
ATOM     21  C   UNL     1       6.464   3.718   7.893  0.00  0.00    +0.035 C 
ATOM     22  C   UNL     1       7.564   3.627   8.986  0.00  0.00    +0.031 C 
ATOM     23  C   UNL     1       8.813   3.247   8.163  0.00  0.00    +0.160 C 
ATOM     24  O   UNL     1       8.571   3.633   6.803  0.00  0.00    -0.375 OA
ENDBRANCH  19  20
ENDBRANCH   3  19
TORSDOF 6
