REMARK  Name = ZINC22194933
REMARK  8 active torsions:
REMARK  status: ('A' for Active; 'I' for Inactive)
REMARK    1  A    between atoms: C_1  and  C_2
REMARK    2  A    between atoms: C_2  and  C_4
REMARK    3  A    between atoms: C_2  and  N_10
REMARK    4  A    between atoms: N_6  and  C_7
REMARK    5  A    between atoms: N_13  and  C_16
REMARK    6  A    between atoms: C_16  and  C_18
REMARK    7  A    between atoms: C_16  and  C_19
REMARK    8  A    between atoms: N_24  and  C_25
REMARK                            x       y       z     vdW  Elec       q    Type
REMARK                         _______ _______ _______ _____ _____    ______ ____
ROOT
ATOM      1  N   UNL     1      -4.828  -0.314  -1.423  0.00  0.00    +0.389 N 
ATOM      2  C   UNL     1      -4.560   0.727  -0.421  0.00  0.00    -0.062 C 
ATOM      3  C   UNL     1      -3.481   1.675  -0.950  0.00  0.00    +0.066 C 
ATOM      4  N   UNL     1      -2.263   0.909  -1.247  0.00  0.00    -0.295 NA
ATOM      5  C   UNL     1      -2.531  -0.132  -2.249  0.00  0.00    +0.066 C 
ATOM      6  C   UNL     1      -3.610  -1.080  -1.720  0.00  0.00    -0.062 C 
ATOM      7  H   UNL     1      -5.152   0.182  -2.349  0.00  0.00    -0.081 HD
ENDROOT
BRANCH   1   9
ATOM      8  C   UNL     1      -5.663  -1.635   0.463  0.00  0.00    -0.004 C 
ATOM      9  C   UNL     1      -5.913  -1.201  -0.983  0.00  0.00    +0.016 C 
BRANCH   9  10
ATOM     10  C   UNL     1      -7.227  -0.467  -1.067  0.00  0.00    +0.199 C 
ATOM     11  O   UNL     1      -7.241   0.737  -1.212  0.00  0.00    -0.278 OA
ATOM     12  N   UNL     1      -8.386  -1.149  -0.980  0.00  0.00    -0.314 N 
ATOM     13  H   UNL     1      -8.374  -2.241  -0.848  0.00  0.00    +0.149 HD
BRANCH  12  14
ATOM     14  C   UNL     1      -9.663  -0.435  -1.062  0.00  0.00    +0.073 C 
ATOM     15  C   UNL     1     -10.757  -0.829  -0.067  0.00  0.00    +0.024 C 
ATOM     16  C   UNL     1     -10.884  -1.224  -1.539  0.00  0.00    +0.024 C 
ENDBRANCH  12  14
ENDBRANCH   9  10
ENDBRANCH   1   9
BRANCH   4  17
ATOM     17  C   UNL     1      -1.178   1.796  -1.687  0.00  0.00    +0.140 C 
ATOM     18  C   UNL     1      -1.559   2.448  -3.018  0.00  0.00    +0.034 C 
BRANCH  17  19
ATOM     19  C   UNL     1       0.086   0.994  -1.864  0.00  0.00    +0.237 C 
ATOM     20  O   UNL     1       0.083  -0.199  -1.646  0.00  0.00    -0.274 OA
ATOM     21  N   UNL     1       1.218   1.601  -2.271  0.00  0.00    -0.239 N 
ATOM     22  C   UNL     1       2.347   0.883  -2.435  0.00  0.00    +0.306 C 
ATOM     23  O   UNL     1       2.343  -0.312  -2.216  0.00  0.00    -0.252 OA
ATOM     24  N   UNL     1       3.479   1.491  -2.841  0.00  0.00    -0.296 N 
ATOM     25  H   UNL     1       1.221   2.683  -2.469  0.00  0.00    +0.159 HD
ATOM     26  H   UNL     1       3.482   2.573  -3.039  0.00  0.00    +0.151 HD
BRANCH  24  27
ATOM     27  C   UNL     1       4.706   0.710  -3.019  0.00  0.00    +0.075 C 
ATOM     28  C   UNL     1       6.008   1.308  -2.484  0.00  0.00    +0.024 C 
ATOM     29  C   UNL     1       5.754   1.253  -3.992  0.00  0.00    +0.024 C 
ENDBRANCH  24  27
ENDBRANCH  17  19
ENDBRANCH   4  17
TORSDOF 6
