REMARK  Name = ZINC19540275
REMARK  8 active torsions:
REMARK  status: ('A' for Active; 'I' for Inactive)
REMARK    1  A    between atoms: C_1  and  C_2
REMARK    2  A    between atoms: C_2  and  C_4
REMARK    3  A    between atoms: C_2  and  N_17
REMARK    4  A    between atoms: N_6  and  C_7
REMARK    5  A    between atoms: C_10  and  S_13
REMARK    6  A    between atoms: S_13  and  N_16
REMARK    7  A    between atoms: N_20  and  C_23
REMARK    8  A    between atoms: C_23  and  C_24
REMARK                            x       y       z     vdW  Elec       q    Type
REMARK                         _______ _______ _______ _____ _____    ______ ____
ROOT
ATOM      1  C   UNL     1      -1.514   5.823  -5.604  0.00  0.00    +0.203 C 
ATOM      2  O   UNL     1      -0.469   6.053  -5.032  0.00  0.00    -0.277 OA
ATOM      3  N   UNL     1      -1.753   6.366  -6.814  0.00  0.00    -0.287 N 
ATOM      4  H   UNL     1      -2.661   6.090  -7.371  0.00  0.00    +0.155 HD
ENDROOT
BRANCH   3   5
ATOM      5  C   UNL     1      -0.847   7.280  -7.363  0.00  0.00    +0.033 A 
ATOM      6  C   UNL     1      -0.144   8.145  -6.535  0.00  0.00    +0.025 A 
ATOM      7  C   UNL     1       0.754   9.042  -7.079  0.00  0.00    +0.030 A 
ATOM      8  C   UNL     1       0.945   9.088  -8.447  0.00  0.00    +0.105 A 
ATOM      9  C   UNL     1       0.242   8.232  -9.275  0.00  0.00    +0.030 A 
ATOM     10  C   UNL     1      -0.653   7.329  -8.737  0.00  0.00    +0.025 A 
BRANCH   8  11
ATOM     11  S   UNL     1       2.086  10.239  -9.138  0.00  0.00    +0.056 S 
ATOM     12  O   UNL     1       3.018  10.552  -8.112  0.00  0.00    -0.153 OA
ATOM     13  O   UNL     1       2.486   9.710 -10.395  0.00  0.00    -0.153 OA
BRANCH  11  14
ATOM     14  N   UNL     1       1.247  11.630  -9.456  0.00  0.00    -0.204 NA
ATOM     15  H   UNL     1       1.927  12.378  -9.890  0.00  0.00    +0.144 HD
ATOM     16  H   UNL     1       0.820  12.023  -8.521  0.00  0.00    +0.144 HD
ENDBRANCH  11  14
ENDBRANCH   8  11
ENDBRANCH   3   5
BRANCH   1  18
ATOM     17  C   UNL     1      -2.807   3.723  -5.862  0.00  0.00    -0.004 C 
ATOM     18  C   UNL     1      -2.544   4.932  -4.961  0.00  0.00    +0.017 C 
BRANCH  18  19
ATOM     19  N   UNL     1      -2.048   4.471  -3.657  0.00  0.00    +0.389 N 
ATOM     20  C   UNL     1      -3.074   3.695  -2.947  0.00  0.00    -0.062 C 
ATOM     21  C   UNL     1      -2.548   3.303  -1.564  0.00  0.00    +0.066 C 
ATOM     22  N   UNL     1      -1.313   2.522  -1.717  0.00  0.00    -0.301 NA
ATOM     23  C   UNL     1      -0.286   3.298  -2.427  0.00  0.00    +0.066 C 
ATOM     24  C   UNL     1      -0.813   3.690  -3.809  0.00  0.00    -0.062 C 
ATOM     25  H   UNL     1      -1.815   5.360  -3.052  0.00  0.00    -0.081 HD
BRANCH  22  26
ATOM     26  C   UNL     1      -0.816   2.061  -0.413  0.00  0.00    +0.126 C 
BRANCH  26  27
ATOM     27  C   UNL     1       0.298   1.069  -0.622  0.00  0.00    +0.004 A 
ATOM     28  C   UNL     1       1.631   1.293  -0.735  0.00  0.00    +0.012 A 
ATOM     29  C   UNL     1       2.477   0.218  -0.930  0.00  0.00    +0.008 A 
ATOM     30  C   UNL     1       1.950  -1.029  -1.002  0.00  0.00    +0.045 A 
ATOM     31  S   UNL     1       0.207  -0.706  -0.792  0.00  0.00    -0.100 S 
ENDBRANCH  26  27
ENDBRANCH  22  26
ENDBRANCH  18  19
ENDBRANCH   1  18
TORSDOF 7
