REMARK  Name = ZINC54162040
REMARK  10 active torsions:
REMARK  status: ('A' for Active; 'I' for Inactive)
REMARK    1  A    between atoms: C_1  and  C_2
REMARK    2  A    between atoms: C_2  and  C_3
REMARK    3  A    between atoms: C_3  and  C_5
REMARK    4  A    between atoms: C_3  and  N_8
REMARK    5  A    between atoms: C_5  and  C_6
REMARK    6  A    between atoms: C_6  and  N_7
REMARK    7  A    between atoms: N_8  and  S_9
REMARK    8  A    between atoms: S_9  and  C_12
REMARK    9  A    between atoms: N_14  and  C_21
REMARK   10  A    between atoms: N_17  and  C_20
REMARK                            x       y       z     vdW  Elec       q    Type
REMARK                         _______ _______ _______ _____ _____    ______ ____
ROOT
ATOM      1  S   UNL     1      -3.012   1.232  -1.165  0.00  0.00    +0.065 S 
ATOM      2  O   UNL     1      -3.592   1.361  -2.456  0.00  0.00    -0.153 OA
ATOM      3  O   UNL     1      -3.789   1.248   0.024  0.00  0.00    -0.153 OA
ENDROOT
BRANCH   1   4
ATOM      4  C   UNL     1      -1.831   2.531  -1.012  0.00  0.00    +0.186 A 
ATOM      5  C   UNL     1      -1.659   3.163   0.169  0.00  0.00    +0.124 A 
ATOM      6  N   UNL     1      -0.738   4.170   0.271  0.00  0.00    -0.301 N 
ATOM      7  C   UNL     1      -0.002   4.536  -0.795  0.00  0.00    +0.332 A 
ATOM      8  O   UNL     1       0.811   5.433  -0.682  0.00  0.00    -0.246 OA
ATOM      9  N   UNL     1      -0.153   3.922  -1.983  0.00  0.00    -0.262 N 
ATOM     10  C   UNL     1      -1.046   2.922  -2.123  0.00  0.00    +0.283 A 
ATOM     11  O   UNL     1      -1.179   2.363  -3.197  0.00  0.00    -0.265 OA
ATOM     12  C   UNL     1       0.660   4.340  -3.128  0.00  0.00    +0.157 C 
ATOM     13  C   UNL     1      -0.551   4.856   1.552  0.00  0.00    +0.153 C 
ENDBRANCH   1   4
BRANCH   1  14
ATOM     14  N   UNL     1      -2.173  -0.195  -1.164  0.00  0.00    -0.187 NA
ATOM     15  H   UNL     1      -2.158  -0.750  -1.959  0.00  0.00    +0.148 HD
BRANCH  14  16
ATOM     16  C   UNL     1      -1.453  -0.620   0.039  0.00  0.00    +0.075 C 
BRANCH  16  18
ATOM     17  C   UNL     1       0.681   0.375  -0.796  0.00  0.00    +0.005 C 
ATOM     18  C   UNL     1       0.006  -0.911  -0.316  0.00  0.00    +0.017 C 
ENDBRANCH  16  18
BRANCH  16  19
ATOM     19  C   UNL     1      -2.103  -1.886   0.602  0.00  0.00    +0.001 C 
BRANCH  19  20
ATOM     20  C   UNL     1      -3.523  -1.564   1.072  0.00  0.00    -0.085 C 
BRANCH  20  21
ATOM     21  N   UNL     1      -4.147  -2.779   1.613  0.00  0.00    +0.378 N 
ATOM     22  H   UNL     1      -4.184  -3.486   0.894  0.00  0.00    -0.090 HD
ATOM     23  H   UNL     1      -3.604  -3.118   2.392  0.00  0.00    -0.090 HD
ATOM     24  H   UNL     1      -5.084  -2.566   1.923  0.00  0.00    -0.090 HD
ENDBRANCH  20  21
ENDBRANCH  19  20
ENDBRANCH  16  19
ENDBRANCH  14  16
ENDBRANCH   1  14
TORSDOF 7
