REMARK  Name = ZINC61768193
REMARK  9 active torsions:
REMARK  status: ('A' for Active; 'I' for Inactive)
REMARK    1  A    between atoms: C_1  and  C_2
REMARK    2  A    between atoms: C_5  and  C_8
REMARK    3  A    between atoms: C_8  and  C_9
REMARK    4  A    between atoms: C_8  and  N_25
REMARK    5  A    between atoms: C_9  and  N_10
REMARK    6  A    between atoms: N_13  and  C_14
REMARK    7  A    between atoms: C_17  and  C_21
REMARK    8  A    between atoms: C_19  and  C_20
REMARK    9  A    between atoms: N_23  and  C_24
REMARK                            x       y       z     vdW  Elec       q    Type
REMARK                         _______ _______ _______ _____ _____    ______ ____
ROOT
ATOM      1  N   UNL     1      -1.131  -6.316   0.238  0.00  0.00    -0.300 N 
ATOM      2  C   UNL     1      -2.260  -7.046   0.330  0.00  0.00    +0.304 C 
ATOM      3  O   UNL     1      -3.338  -6.490   0.424  0.00  0.00    -0.253 OA
ATOM      4  N   UNL     1      -2.195  -8.392   0.318  0.00  0.00    -0.269 N 
ATOM      5  H   UNL     1      -0.272  -6.759   0.163  0.00  0.00    +0.150 HD
ATOM      6  H   UNL     1      -1.348  -8.835   0.156  0.00  0.00    +0.156 HD
ENDROOT
BRANCH   4   7
ATOM      7  C   UNL     1      -3.346  -9.148   0.538  0.00  0.00    +0.038 A 
ATOM      8  C   UNL     1      -4.407  -8.604   1.256  0.00  0.00    +0.024 A 
ATOM      9  C   UNL     1      -5.545  -9.347   1.475  0.00  0.00    +0.015 A 
ATOM     10  C   UNL     1      -5.634 -10.649   0.975  0.00  0.00    +0.037 A 
ATOM     11  C   UNL     1      -4.567 -11.192   0.254  0.00  0.00    +0.018 A 
ATOM     12  C   UNL     1      -3.434 -10.441   0.034  0.00  0.00    -0.028 A 
ATOM     13  C   UNL     1      -2.285 -11.024  -0.748  0.00  0.00    +0.045 C 
BRANCH  10  14
ATOM     14  C   UNL     1      -6.852 -11.449   1.208  0.00  0.00    +0.244 C 
ATOM     15  O   UNL     1      -6.928 -12.582   0.772  0.00  0.00    -0.270 OA
ATOM     16  N   UNL     1      -7.880 -10.924   1.904  0.00  0.00    -0.314 N 
ATOM     17  C   UNL     1      -9.089 -11.718   2.135  0.00  0.00    +0.128 C 
ATOM     18  H   UNL     1      -7.819 -10.021   2.251  0.00  0.00    +0.149 HD
ENDBRANCH  10  14
ENDBRANCH   4   7
BRANCH   1  19
ATOM     19  C   UNL     1      -1.202  -4.853   0.251  0.00  0.00    +0.095 C 
BRANCH  19  20
ATOM     20  C   UNL     1       0.193  -4.272   0.009  0.00  0.00    -0.020 C 
BRANCH  20  25
ATOM     21  C   UNL     1       2.116  -5.985  -5.164  0.00  0.00    +0.044 C 
ATOM     22  C   UNL     1       1.615  -5.538  -3.815  0.00  0.00    -0.050 A 
ATOM     23  C   UNL     1       2.045  -6.182  -2.670  0.00  0.00    +0.003 A 
ATOM     24  C   UNL     1       1.585  -5.772  -1.432  0.00  0.00    +0.002 A 
ATOM     25  C   UNL     1       0.695  -4.718  -1.340  0.00  0.00    -0.059 A 
ATOM     26  C   UNL     1       0.266  -4.074  -2.485  0.00  0.00    +0.002 A 
ATOM     27  C   UNL     1       0.729  -4.481  -3.722  0.00  0.00    +0.003 A 
ENDBRANCH  20  25
BRANCH  20  28
ATOM     28  N   UNL     1       0.126  -2.805   0.046  0.00  0.00    +0.385 N 
ATOM     29  C   UNL     1      -0.172  -2.341   1.425  0.00  0.00    -0.078 C 
ATOM     30  C   UNL     1       0.339  -0.878   1.425  0.00  0.00    -0.020 C 
ATOM     31  C   UNL     1       1.617  -0.959   0.558  0.00  0.00    -0.020 C 
ATOM     32  C   UNL     1       1.443  -2.226  -0.299  0.00  0.00    -0.078 C 
ATOM     33  H   UNL     1      -0.579  -2.472  -0.594  0.00  0.00    -0.081 HD
ENDBRANCH  20  28
ENDBRANCH  19  20
ENDBRANCH   1  19
TORSDOF 6
