REMARK  Name = ZINC08440734
REMARK  10 active torsions:
REMARK  status: ('A' for Active; 'I' for Inactive)
REMARK    1  A    between atoms: C_1  and  C_2
REMARK    2  A    between atoms: C_5  and  C_8
REMARK    3  A    between atoms: C_13  and  C_18
REMARK    4  A    between atoms: C_26  and  C_35
REMARK    5  A    between atoms: C_27  and  C_28
REMARK    6  A    between atoms: C_28  and  O_30
REMARK    7  A    between atoms: O_30  and  C_31
REMARK    8  A    between atoms: C_31  and  C_32
REMARK    9  A    between atoms: C_32  and  O_33
REMARK   10  A    between atoms: O_33  and  C_34
REMARK                            x       y       z     vdW  Elec       q    Type
REMARK                         _______ _______ _______ _____ _____    ______ ____
ROOT
ATOM      1  C   UNL     1       2.490   1.048  -0.016  0.00  0.00    +0.092 C 
ATOM      2  C   UNL     1       3.258   1.434  -1.255  0.00  0.00    +0.024 C 
ATOM      3  C   UNL     1       4.282   2.311  -1.186  0.00  0.00    +0.016 C 
ATOM      4  C   UNL     1       5.046   2.712  -2.423  0.00  0.00    +0.059 C 
ATOM      5  C   UNL     1       5.058   1.551  -3.420  0.00  0.00    +0.032 C 
ATOM      6  C   UNL     1       3.608   1.183  -3.754  0.00  0.00    +0.088 C 
ATOM      7  C   UNL     1       2.880   0.856  -2.479  0.00  0.00    +0.162 C 
ATOM      8  O   UNL     1       1.948   0.077  -2.508  0.00  0.00    -0.292 OA
ATOM      9  N   UNL     1       4.651   2.855   0.015  0.00  0.00    -0.321 N 
ATOM     10  C   UNL     1       4.285   2.262   1.191  0.00  0.00    +0.016 C 
ATOM     11  C   UNL     1       3.262   1.390   1.224  0.00  0.00    +0.065 C 
ATOM     12  C   UNL     1       5.032   2.587   2.458  0.00  0.00    +0.061 C 
ATOM     13  H   UNL     1       5.248   3.779   0.040  0.00  0.00    +0.152 HD
ENDROOT
BRANCH   1  18
ATOM     14  C   UNL     1      -2.553   3.869   0.045  0.00  0.00    +0.044 C 
ATOM     15  C   UNL     1      -1.238   3.133   0.030  0.00  0.00    -0.050 A 
ATOM     16  C   UNL     1      -1.219   1.751   0.017  0.00  0.00    +0.003 A 
ATOM     17  C   UNL     1      -0.013   1.076   0.008  0.00  0.00    +0.005 A 
ATOM     18  C   UNL     1       1.175   1.783   0.000  0.00  0.00    -0.035 A 
ATOM     19  C   UNL     1       1.156   3.165   0.008  0.00  0.00    +0.005 A 
ATOM     20  C   UNL     1      -0.050   3.840   0.022  0.00  0.00    +0.003 A 
ENDBRANCH   1  18
BRANCH   5  21
ATOM     21  C   UNL     1       5.777   1.969  -4.676  0.00  0.00    -0.043 A 
ATOM     22  C   UNL     1       5.305   3.034  -5.421  0.00  0.00    +0.005 A 
ATOM     23  C   UNL     1       5.967   3.421  -6.570  0.00  0.00    +0.020 A 
ATOM     24  C   UNL     1       7.096   2.736  -6.982  0.00  0.00    +0.041 A 
ATOM     25  C   UNL     1       7.565   1.667  -6.239  0.00  0.00    +0.020 A 
ATOM     26  C   UNL     1       6.905   1.284  -5.087  0.00  0.00    +0.005 A 
ATOM     27 CL   UNL     1       7.925   3.217  -8.430  0.00  0.00    -0.084 Cl
ENDBRANCH   5  21
BRANCH  11  28
ATOM     28  C   UNL     1       2.907   0.784   2.452  0.00  0.00    +0.338 C 
ATOM     29  O   UNL     1       3.525   1.054   3.465  0.00  0.00    -0.245 OA
BRANCH  28  30
ATOM     30  O   UNL     1       1.883  -0.093   2.500  0.00  0.00    -0.459 OA
BRANCH  30  31
ATOM     31  C   UNL     1       1.579  -0.667   3.773  0.00  0.00    +0.260 C 
BRANCH  31  32
ATOM     32  C   UNL     1       0.398  -1.629   3.630  0.00  0.00    +0.200 C 
BRANCH  32  33
ATOM     33  O   UNL     1       0.777  -2.729   2.800  0.00  0.00    -0.380 OA
ATOM     34  C   UNL     1      -0.260  -3.692   2.602  0.00  0.00    +0.194 C 
ENDBRANCH  32  33
ENDBRANCH  31  32
ENDBRANCH  30  31
ENDBRANCH  28  30
ENDBRANCH  11  28
TORSDOF 7
