REMARK  Name = ZINC48619333
REMARK  3 active torsions:
REMARK  status: ('A' for Active; 'I' for Inactive)
REMARK    1  A    between atoms: C_1  and  N_2
REMARK    2  A    between atoms: C_4  and  C_7
REMARK    3  A    between atoms: C_12  and  C_14
REMARK                            x       y       z     vdW  Elec       q    Type
REMARK                         _______ _______ _______ _____ _____    ______ ____
ROOT
ATOM      1  C   UNL     1       0.041  -3.293  -1.513  0.00  0.00    +0.046 C 
ATOM      2  C   UNL     1       0.061  -4.548  -0.939  0.00  0.00    +0.153 C 
ATOM      3  C   UNL     1       0.082  -5.846  -1.635  0.00  0.00    +0.364 C 
ATOM      4  O   UNL     1       0.085  -6.039  -2.836  0.00  0.00    -0.243 OA
ATOM      5  O   UNL     1       0.097  -6.775  -0.656  0.00  0.00    -0.401 OA
ATOM      6  C   UNL     1       0.086  -6.147   0.537  0.00  0.00    +0.239 C 
ATOM      7  N   UNL     1       0.072  -4.848   0.393  0.00  0.00    -0.205 NA
ENDROOT
BRANCH   1  11
ATOM      8  C   UNL     1      -0.018   1.461   0.010  0.00  0.00    +0.172 C 
ATOM      9  N   UNL     1       0.002  -0.004   0.002  0.00  0.00    -0.274 N 
ATOM     10  C   UNL     1       0.008  -0.783  -1.094  0.00  0.00    +0.116 A 
ATOM     11  C   UNL     1       0.028  -2.100  -0.663  0.00  0.00    +0.015 A 
ATOM     12  C   UNL     1       0.034  -2.074   0.752  0.00  0.00    +0.142 A 
ATOM     13  N   UNL     1       0.025  -0.827   1.133  0.00  0.00    -0.179 NA
ENDBRANCH   1  11
BRANCH   6  14
ATOM     14  C   UNL     1       0.098  -6.835   1.832  0.00  0.00    +0.075 A 
ATOM     15  C   UNL     1       0.126  -8.194   2.100  0.00  0.00    +0.022 A 
ATOM     16  C   UNL     1       0.132  -8.602   3.411  0.00  0.00    +0.024 A 
ATOM     17  C   UNL     1       0.110  -7.666   4.399  0.00  0.00    +0.056 A 
ATOM     18  S   UNL     1       0.087  -6.138   3.476  0.00  0.00    -0.077 S 
ATOM     19 BR   UNL     1       0.111  -7.920   6.273  0.00  0.00    -0.043 Br
ENDBRANCH   6  14
TORSDOF 2
