REMARK  Name = ZINC58166174
REMARK  11 active torsions:
REMARK  status: ('A' for Active; 'I' for Inactive)
REMARK    1  A    between atoms: C_1  and  C_2
REMARK    2  A    between atoms: C_2  and  C_3
REMARK    3  A    between atoms: C_3  and  C_4
REMARK    4  A    between atoms: C_4  and  C_5
REMARK    5  A    between atoms: C_5  and  C_6
REMARK    6  A    between atoms: C_6  and  N_7
REMARK    7  A    between atoms: C_8  and  C_10
REMARK    8  A    between atoms: N_15  and  C_17
REMARK    9  A    between atoms: C_17  and  C_19
REMARK   10  A    between atoms: C_17  and  C_20
REMARK   11  A    between atoms: N_25  and  C_26
REMARK                            x       y       z     vdW  Elec       q    Type
REMARK                         _______ _______ _______ _____ _____    ______ ____
ROOT
ATOM      1  C   UNL     1       3.220  -7.531   3.406  0.00  0.00    +0.058 C 
ATOM      2  C   UNL     1       4.639  -6.970   3.280  0.00  0.00    +0.009 C 
ATOM      3  C   UNL     1       5.237  -6.802   4.680  0.00  0.00    -0.018 C 
ATOM      4  C   UNL     1       5.208  -8.149   5.405  0.00  0.00    -0.078 C 
ATOM      5  N   UNL     1       3.823  -8.619   5.517  0.00  0.00    +0.388 N 
ATOM      6  C   UNL     1       3.265  -8.851   4.179  0.00  0.00    -0.065 C 
ATOM      7  H   UNL     1       3.269  -7.923   5.994  0.00  0.00    -0.081 HD
ENDROOT
BRANCH   1   9
ATOM      8  N   UNL     1       2.518  -6.747   1.167  0.00  0.00    -0.315 N 
ATOM      9  C   UNL     1       2.651  -7.773   2.031  0.00  0.00    +0.214 C 
ATOM     10  O   UNL     1       2.313  -8.890   1.702  0.00  0.00    -0.276 OA
ATOM     11  H   UNL     1       2.788  -5.853   1.430  0.00  0.00    +0.149 HD
BRANCH   8  12
ATOM     12  C   UNL     1       1.964  -6.981  -0.169  0.00  0.00    +0.104 C 
BRANCH  12  13
ATOM     13  C   UNL     1       1.921  -5.662  -0.942  0.00  0.00    +0.019 C 
BRANCH  13  14
ATOM     14  C   UNL     1       1.343  -5.907  -2.337  0.00  0.00    +0.002 C 
BRANCH  14  15
ATOM     15  C   UNL     1       1.301  -4.587  -3.110  0.00  0.00    -0.000 C 
BRANCH  15  17
ATOM     16  C   UNL     1       0.680  -3.513  -5.279  0.00  0.00    +0.004 C 
ATOM     17  C   UNL     1       0.723  -4.832  -4.506  0.00  0.00    -0.003 C 
ENDBRANCH  15  17
ENDBRANCH  14  15
ENDBRANCH  13  14
ENDBRANCH  12  13
ENDBRANCH   8  12
ENDBRANCH   1   9
BRANCH   5  18
ATOM     18  C   UNL     1       3.793  -9.873   6.282  0.00  0.00    +0.017 C 
ATOM     19  C   UNL     1       4.418  -9.645   7.659  0.00  0.00    -0.004 C 
BRANCH  18  20
ATOM     20  C   UNL     1       2.365 -10.327   6.447  0.00  0.00    +0.207 C 
ATOM     21  O   UNL     1       1.466  -9.514   6.442  0.00  0.00    -0.277 OA
ATOM     22  N   UNL     1       2.088 -11.637   6.599  0.00  0.00    -0.242 N 
ATOM     23  C   UNL     1       0.812 -12.043   6.747  0.00  0.00    +0.306 C 
ATOM     24  O   UNL     1      -0.090 -11.228   6.742  0.00  0.00    -0.252 OA
ATOM     25  N   UNL     1       0.535 -13.354   6.900  0.00  0.00    -0.296 N 
ATOM     26  H   UNL     1       2.808 -12.288   6.603  0.00  0.00    +0.159 HD
ATOM     27  H   UNL     1       1.254 -14.004   6.903  0.00  0.00    +0.151 HD
BRANCH  25  28
ATOM     28  C   UNL     1      -0.853 -13.795   7.060  0.00  0.00    +0.074 C 
ATOM     29  C   UNL     1      -1.250 -13.760   8.551  0.00  0.00    +0.022 C 
ATOM     30  C   UNL     1      -2.159 -15.001   8.730  0.00  0.00    +0.002 C 
ATOM     31  C   UNL     1      -1.477 -16.059   7.828  0.00  0.00    +0.002 C 
ATOM     32  C   UNL     1      -0.998 -15.256   6.601  0.00  0.00    +0.022 C 
ENDBRANCH  25  28
ENDBRANCH  18  20
ENDBRANCH   5  18
TORSDOF 9
