REMARK  Name = ZINC62104846
REMARK  3 active torsions:
REMARK  status: ('A' for Active; 'I' for Inactive)
REMARK    1  A    between atoms: C_5  and  C_7
REMARK    2  A    between atoms: N_10  and  S_14
REMARK    3  A    between atoms: S_14  and  C_17
REMARK                            x       y       z     vdW  Elec       q    Type
REMARK                         _______ _______ _______ _____ _____    ______ ____
ROOT
ATOM      1  S   UNL     1       2.305  -5.161   2.129  0.00  0.00    +0.061 S 
ATOM      2  O   UNL     1       2.194  -6.427   1.493  0.00  0.00    -0.153 OA
ATOM      3  O   UNL     1       3.529  -4.440   2.183  0.00  0.00    -0.153 OA
ENDROOT
BRANCH   1   4
ATOM      4  C   UNL     1       1.780  -5.387   3.796  0.00  0.00    +0.108 A 
ATOM      5  C   UNL     1       2.212  -4.514   4.779  0.00  0.00    +0.030 A 
ATOM      6  C   UNL     1       1.806  -4.683   6.088  0.00  0.00    +0.030 A 
ATOM      7  C   UNL     1       0.961  -5.731   6.419  0.00  0.00    +0.067 A 
ATOM      8  C   UNL     1       0.524  -6.611   5.427  0.00  0.00    +0.069 A 
ATOM      9  C   UNL     1       0.933  -6.431   4.114  0.00  0.00    +0.056 A 
ATOM     10  N   UNL     1      -0.301  -7.544   6.051  0.00  0.00    -0.306 N 
ATOM     11  H   UNL     1      -0.753  -8.284   5.615  0.00  0.00    +0.170 HD
ATOM     12  C   UNL     1      -0.363  -7.245   7.362  0.00  0.00    +0.325 A 
ATOM     13  O   UNL     1      -1.000  -7.865   8.193  0.00  0.00    -0.247 OA
ATOM     14  N   UNL     1       0.388  -6.157   7.615  0.00  0.00    -0.306 N 
ATOM     15  H   UNL     1       0.509  -5.739   8.482  0.00  0.00    +0.170 HD
ENDBRANCH   1   4
BRANCH   1  18
ATOM     16  C   UNL     1       1.228  -2.186  -0.022  0.00  0.00    +0.167 C 
ATOM     17  C   UNL     1       1.372  -2.705   1.413  0.00  0.00    +0.146 C 
ATOM     18  N   UNL     1       1.201  -4.166   1.398  0.00  0.00    -0.172 NA
ATOM     19  C   UNL     1       0.021  -4.718   0.714  0.00  0.00    +0.137 C 
ATOM     20  C   UNL     1      -0.057  -4.101  -0.687  0.00  0.00    +0.178 C 
ATOM     21  O   UNL     1       0.007  -2.677  -0.580  0.00  0.00    -0.369 OA
BRANCH  16  26
ATOM     22  C   UNL     1      -0.017   1.378   0.010  0.00  0.00    +0.001 A 
ATOM     23  C   UNL     1       1.171   2.087   0.002  0.00  0.00    +0.003 A 
ATOM     24  C   UNL     1       2.377   1.414  -0.013  0.00  0.00    +0.039 A 
ATOM     25  C   UNL     1       2.397   0.029  -0.021  0.00  0.00    +0.129 A 
ATOM     26  C   UNL     1       1.208  -0.679  -0.013  0.00  0.00    +0.018 A 
ATOM     27  C   UNL     1       0.002  -0.004   0.002  0.00  0.00    +0.009 A 
ATOM     28  F   UNL     1       3.577  -0.630  -0.036  0.00  0.00    -0.205 F 
ENDBRANCH  16  26
ENDBRANCH   1  18
TORSDOF 3
