REMARK  Name = ZINC08152295
REMARK  10 active torsions:
REMARK  status: ('A' for Active; 'I' for Inactive)
REMARK    1  A    between atoms: C_1  and  C_2
REMARK    2  A    between atoms: C_2  and  C_3
REMARK    3  A    between atoms: C_2  and  C_4
REMARK    4  A    between atoms: C_4  and  N_5
REMARK    5  A    between atoms: C_9  and  C_11
REMARK    6  A    between atoms: C_11  and  N_12
REMARK    7  A    between atoms: N_12  and  C_13
REMARK    8  A    between atoms: N_12  and  C_14
REMARK    9  A    between atoms: C_14  and  C_15
REMARK   10  A    between atoms: N_17  and  C_18
REMARK                            x       y       z     vdW  Elec       q    Type
REMARK                         _______ _______ _______ _____ _____    ______ ____
ROOT
ATOM      1  N   UNL     1       9.454  -1.443  -2.691  0.00  0.00    +0.389 N 
ATOM      2  C   UNL     1      10.755  -2.015  -2.320  0.00  0.00    -0.095 C 
ATOM      3  H   UNL     1       8.895  -2.147  -3.149  0.00  0.00    -0.081 HD
ENDROOT
BRANCH   1   4
ATOM      4  C   UNL     1       8.760  -0.979  -1.482  0.00  0.00    +0.019 C 
BRANCH   4   9
ATOM      5  N   UNL     1       6.874  -2.841   2.529  0.00  0.00    -0.299 N 
ATOM      6  C   UNL     1       7.514  -3.028   1.357  0.00  0.00    +0.306 C 
ATOM      7  O   UNL     1       7.833  -4.149   1.011  0.00  0.00    -0.252 OA
ATOM      8  N   UNL     1       7.800  -1.972   0.570  0.00  0.00    -0.242 N 
ATOM      9  C   UNL     1       8.440  -2.159  -0.602  0.00  0.00    +0.204 C 
ATOM     10  O   UNL     1       8.758  -3.277  -0.947  0.00  0.00    -0.277 OA
ATOM     11  H   UNL     1       6.620  -1.947   2.805  0.00  0.00    +0.150 HD
ATOM     12  H   UNL     1       7.546  -1.078   0.846  0.00  0.00    +0.159 HD
BRANCH   5  13
ATOM     13  C   UNL     1       6.563  -3.989   3.385  0.00  0.00    +0.108 C 
BRANCH  13  15
ATOM     14  C   UNL     1       4.486  -2.909   4.257  0.00  0.00    +0.009 C 
ATOM     15  C   UNL     1       5.841  -3.505   4.644  0.00  0.00    -0.000 C 
ATOM     16  C   UNL     1       5.627  -4.685   5.594  0.00  0.00    +0.009 C 
ENDBRANCH  13  15
ENDBRANCH   5  13
ENDBRANCH   4   9
ENDBRANCH   1   4
BRANCH   1  17
ATOM     17  C   UNL     1       9.659  -0.310  -3.603  0.00  0.00    +0.019 C 
BRANCH  17  18
ATOM     18  C   UNL     1      10.259  -0.807  -4.893  0.00  0.00    +0.201 C 
ATOM     19  O   UNL     1      10.492  -1.988  -5.038  0.00  0.00    -0.278 OA
ATOM     20  N   UNL     1      10.536   0.062  -5.886  0.00  0.00    -0.285 N 
ATOM     21  H   UNL     1      10.283   0.994  -5.799  0.00  0.00    +0.155 HD
BRANCH  20  22
ATOM     22  C   UNL     1      11.190  -0.382  -7.042  0.00  0.00    +0.070 A 
ATOM     23  C   UNL     1      10.451  -0.821  -8.134  0.00  0.00    +0.064 A 
ATOM     24  C   UNL     1      11.099  -1.258  -9.274  0.00  0.00    +0.022 A 
ATOM     25  C   UNL     1      12.481  -1.259  -9.328  0.00  0.00    +0.003 A 
ATOM     26  C   UNL     1      13.219  -0.823  -8.244  0.00  0.00    +0.022 A 
ATOM     27  C   UNL     1      12.578  -0.378  -7.103  0.00  0.00    +0.064 A 
ATOM     28 CL   UNL     1      13.505   0.177  -5.744  0.00  0.00    -0.082 Cl
ATOM     29 CL   UNL     1       8.716  -0.821  -8.067  0.00  0.00    -0.082 Cl
ENDBRANCH  20  22
ENDBRANCH  17  18
ENDBRANCH   1  17
TORSDOF 7
