REMARK  Name = ZINC33058412
REMARK  12 active torsions:
REMARK  status: ('A' for Active; 'I' for Inactive)
REMARK    1  A    between atoms: C_1  and  C_2
REMARK    2  A    between atoms: C_5  and  S_8
REMARK    3  A    between atoms: S_8  and  C_11
REMARK    4  A    between atoms: C_12  and  N_35
REMARK    5  A    between atoms: C_13  and  C_25
REMARK    6  A    between atoms: C_15  and  N_16
REMARK    7  A    between atoms: N_16  and  C_17
REMARK    8  A    between atoms: C_20  and  C_24
REMARK    9  A    between atoms: C_21  and  C_23
REMARK   10  A    between atoms: C_25  and  C_27
REMARK   11  A    between atoms: C_31  and  O_33
REMARK   12  A    between atoms: O_33  and  C_34
REMARK                            x       y       z     vdW  Elec       q    Type
REMARK                         _______ _______ _______ _____ _____    ______ ____
ROOT
ATOM      1  C   UNL     1      -2.751   9.129   4.935  0.00  0.00    +0.143 A 
ATOM      2  C   UNL     1      -2.779   7.788   5.226  0.00  0.00    +0.070 A 
ATOM      3  C   UNL     1      -2.591   6.880   4.176  0.00  0.00    +0.084 A 
ATOM      4  S   UNL     1      -2.366   7.965   2.777  0.00  0.00    -0.066 S 
ATOM      5  C   UNL     1      -2.539   9.524   3.628  0.00  0.00    +0.098 A 
ENDROOT
BRANCH   1   6
ATOM      6  S   UNL     1      -2.981  10.327   6.207  0.00  0.00    +0.029 S 
ATOM      7  O   UNL     1      -3.077  11.590   5.562  0.00  0.00    -0.164 OA
ATOM      8  O   UNL     1      -4.004   9.825   7.056  0.00  0.00    -0.164 OA
BRANCH   6  13
ATOM      9  C   UNL     1       2.082  10.442   9.486  0.00  0.00    +0.044 C 
ATOM     10  C   UNL     1       0.817  10.414   8.667  0.00  0.00    -0.050 A 
ATOM     11  C   UNL     1       0.683  11.248   7.574  0.00  0.00    +0.005 A 
ATOM     12  C   UNL     1      -0.477  11.222   6.822  0.00  0.00    +0.027 A 
ATOM     13  C   UNL     1      -1.503  10.361   7.164  0.00  0.00    +0.094 A 
ATOM     14  C   UNL     1      -1.371   9.530   8.261  0.00  0.00    +0.027 A 
ATOM     15  C   UNL     1      -0.209   9.553   9.010  0.00  0.00    +0.005 A 
ENDBRANCH   6  13
ENDBRANCH   1   6
BRANCH   2  16
ATOM     16  N   UNL     1      -2.990   7.344   6.526  0.00  0.00    -0.355 N 
ATOM     17  H   UNL     1      -3.010   6.266   6.743  0.00  0.00    +0.142 HD
ATOM     18  H   UNL     1      -3.136   8.071   7.339  0.00  0.00    +0.142 HD
ENDBRANCH   2  16
BRANCH   5  19
ATOM     19  N   UNL     1      -2.472  10.806   3.111  0.00  0.00    -0.307 N 
ATOM     20  H   UNL     1      -2.703  11.670   3.751  0.00  0.00    +0.153 HD
BRANCH  19  21
ATOM     21  C   UNL     1      -2.110  11.002   1.776  0.00  0.00    +0.032 A 
ATOM     22  C   UNL     1      -1.202  10.144   1.167  0.00  0.00    +0.023 A 
ATOM     23  C   UNL     1      -0.847  10.340  -0.153  0.00  0.00    +0.005 A 
ATOM     24  C   UNL     1      -1.394  11.390  -0.869  0.00  0.00    -0.047 A 
ATOM     25  C   UNL     1      -2.297  12.245  -0.266  0.00  0.00    -0.046 A 
ATOM     26  C   UNL     1      -2.661  12.052   1.052  0.00  0.00    +0.027 A 
ATOM     27  C   UNL     1      -2.891  13.387  -1.051  0.00  0.00    +0.044 C 
ATOM     28  C   UNL     1      -1.005  11.600  -2.309  0.00  0.00    +0.044 C 
ENDBRANCH  19  21
ENDBRANCH   5  19
BRANCH   3  29
ATOM     29  C   UNL     1      -2.576   5.474   4.216  0.00  0.00    +0.202 C 
ATOM     30  O   UNL     1      -2.622   4.894   5.288  0.00  0.00    -0.286 OA
BRANCH  29  31
ATOM     31  C   UNL     1      -2.506   4.699   2.957  0.00  0.00    +0.026 A 
ATOM     32  C   UNL     1      -1.966   3.412   2.957  0.00  0.00    +0.012 A 
ATOM     33  C   UNL     1      -1.902   2.692   1.782  0.00  0.00    +0.004 A 
ATOM     34  C   UNL     1      -2.377   3.239   0.604  0.00  0.00    +0.045 A 
ATOM     35  C   UNL     1      -2.911   4.521   0.594  0.00  0.00    +0.121 A 
ATOM     36  C   UNL     1      -2.980   5.252   1.768  0.00  0.00    +0.057 A 
BRANCH  35  37
ATOM     37  O   UNL     1      -3.372   5.055  -0.568  0.00  0.00    -0.495 OA
ATOM     38  C   UNL     1      -3.270   4.245  -1.740  0.00  0.00    +0.277 C 
ENDBRANCH  35  37
ENDBRANCH  29  31
ENDBRANCH   3  29
TORSDOF 8
