REMARK  Name = ZINC38050869
REMARK  5 active torsions:
REMARK  status: ('A' for Active; 'I' for Inactive)
REMARK    1  A    between atoms: C_3  and  S_17
REMARK    2  A    between atoms: C_6  and  N_7
REMARK    3  A    between atoms: N_7  and  C_8
REMARK    4  A    between atoms: C_14  and  N_16
REMARK    5  A    between atoms: S_17  and  C_20
REMARK                            x       y       z     vdW  Elec       q    Type
REMARK                         _______ _______ _______ _____ _____    ______ ____
ROOT
ATOM      1  C   UNL     1      -0.017   1.385   0.010  0.00  0.00    +0.025 A 
ATOM      2  C   UNL     1       1.171   2.090   0.002  0.00  0.00    +0.029 A 
ATOM      3  C   UNL     1       2.377   1.415  -0.013  0.00  0.00    +0.095 A 
ATOM      4  C   UNL     1       2.400   0.032  -0.021  0.00  0.00    +0.029 A 
ATOM      5  C   UNL     1       1.216  -0.679  -0.014  0.00  0.00    +0.025 A 
ATOM      6  C   UNL     1       0.002  -0.004   0.002  0.00  0.00    +0.027 A 
ENDROOT
BRANCH   3   7
ATOM      7  S   UNL     1       3.890   2.319  -0.024  0.00  0.00    +0.058 S 
ATOM      8  O   UNL     1       4.828   1.448  -0.641  0.00  0.00    -0.164 OA
ATOM      9  O   UNL     1       3.562   3.567  -0.618  0.00  0.00    -0.164 OA
BRANCH   7  10
ATOM     10  C   UNL     1       4.308   2.549   1.726  0.00  0.00    +0.485 C 
ATOM     11  F   UNL     1       3.284   3.261   2.360  0.00  0.00    -0.183 F 
ATOM     12  F   UNL     1       4.456   1.300   2.338  0.00  0.00    -0.183 F 
ENDBRANCH   7  10
ENDBRANCH   3   7
BRANCH   6  13
ATOM     13  N   UNL     1      -1.197  -0.720   0.010  0.00  0.00    -0.343 N 
ATOM     14  H   UNL     1      -2.044  -0.248   0.021  0.00  0.00    +0.146 HD
BRANCH  13  15
ATOM     15  C   UNL     1      -1.175  -2.185   0.002  0.00  0.00    +0.056 C 
ATOM     16  C   UNL     1      -1.028  -2.701   1.435  0.00  0.00    +0.020 C 
ATOM     17  C   UNL     1      -2.208  -2.213   2.277  0.00  0.00    +0.002 C 
ATOM     18  C   UNL     1      -3.514  -2.739   1.677  0.00  0.00    -0.001 C 
ATOM     19  C   UNL     1      -3.662  -2.224   0.244  0.00  0.00    -0.014 C 
ATOM     20  C   UNL     1      -2.481  -2.711  -0.598  0.00  0.00    -0.055 C 
BRANCH  20  21
ATOM     21  N   UNL     1      -2.623  -2.216  -1.973  0.00  0.00    +0.381 N 
ATOM     22  H   UNL     1      -1.844  -2.538  -2.528  0.00  0.00    -0.090 HD
ATOM     23  H   UNL     1      -3.483  -2.563  -2.369  0.00  0.00    -0.090 HD
ATOM     24  H   UNL     1      -2.638  -1.207  -1.968  0.00  0.00    -0.090 HD
ENDBRANCH  20  21
ENDBRANCH  13  15
ENDBRANCH   6  13
TORSDOF 5
