REMARK  Name = ZINC21977896
REMARK  4 active torsions:
REMARK  status: ('A' for Active; 'I' for Inactive)
REMARK    1  A    between atoms: C_1  and  C_2
REMARK    2  A    between atoms: C_2  and  C_24
REMARK    3  A    between atoms: N_5  and  C_9
REMARK    4  A    between atoms: C_9  and  C_10
REMARK                            x       y       z     vdW  Elec       q    Type
REMARK                         _______ _______ _______ _____ _____    ______ ____
ROOT
ATOM      1  C   UNL     1       2.071   7.137   2.354  0.00  0.00    +0.047 C 
ATOM      2  C   UNL     1       0.717   6.721   2.933  0.00  0.00    +0.135 C 
ATOM      3  C   UNL     1       0.741   6.786   4.447  0.00  0.00    +0.251 C 
ATOM      4  O   UNL     1       1.454   6.153   5.196  0.00  0.00    -0.272 OA
ATOM      5  N   UNL     1      -0.200   7.695   4.784  0.00  0.00    -0.218 N 
ATOM      6  C   UNL     1      -0.803   8.207   3.705  0.00  0.00    +0.310 C 
ATOM      7  O   UNL     1      -1.682   9.044   3.756  0.00  0.00    -0.252 OA
ATOM      8  N   UNL     1      -0.327   7.690   2.558  0.00  0.00    -0.281 N 
ATOM      9  H   UNL     1      -0.567   7.858   1.497  0.00  0.00    +0.152 HD
ENDROOT
BRANCH   2  10
ATOM     10  C   UNL     1       0.346   5.336   2.467  0.00  0.00    -0.012 A 
ATOM     11  C   UNL     1       0.716   4.235   3.217  0.00  0.00    +0.010 A 
ATOM     12  C   UNL     1       0.380   2.961   2.796  0.00  0.00    +0.050 A 
ATOM     13  C   UNL     1      -0.330   2.792   1.619  0.00  0.00    +0.162 A 
ATOM     14  C   UNL     1      -0.702   3.897   0.867  0.00  0.00    +0.162 A 
ATOM     15  C   UNL     1      -0.364   5.171   1.292  0.00  0.00    +0.055 A 
ATOM     16  O   UNL     1      -1.402   3.720  -0.291  0.00  0.00    -0.488 OA
ATOM     17  C   UNL     1      -0.690   3.098  -1.362  0.00  0.00    +0.232 C 
ATOM     18  C   UNL     1      -0.736   1.583  -1.234  0.00  0.00    +0.082 C 
ATOM     19  C   UNL     1      -0.013   1.086   0.008  0.00  0.00    +0.232 C 
ATOM     20  O   UNL     1      -0.670   1.541   1.193  0.00  0.00    -0.488 OA
ENDBRANCH   2  10
BRANCH   5  21
ATOM     21  C   UNL     1      -0.519   8.075   6.163  0.00  0.00    +0.173 C 
BRANCH  21  22
ATOM     22  C   UNL     1      -1.605   7.175   6.693  0.00  0.00    +0.067 A 
ATOM     23  C   UNL     1      -1.354   6.313   7.739  0.00  0.00    +0.095 A 
ATOM     24  C   UNL     1      -2.373   5.489   8.217  0.00  0.00    +0.259 A 
ATOM     25  O   UNL     1      -2.157   4.723   9.143  0.00  0.00    -0.267 OA
ATOM     26  N   UNL     1      -3.614   5.539   7.646  0.00  0.00    -0.259 N 
ATOM     27  C   UNL     1      -4.709   4.776   8.027  0.00  0.00    +0.039 A 
ATOM     28  C   UNL     1      -5.861   4.942   7.365  0.00  0.00    +0.013 A 
ATOM     29  S   UNL     1      -5.481   6.187   6.160  0.00  0.00    -0.054 S 
ATOM     30  C   UNL     1      -3.775   6.421   6.615  0.00  0.00    +0.181 A 
ATOM     31  N   UNL     1      -2.826   7.202   6.163  0.00  0.00    -0.226 NA
ATOM     32  C   UNL     1      -7.162   4.241   7.591  0.00  0.00    +0.044 C 
ATOM     33  C   UNL     1      -6.904   3.016   8.480  0.00  0.00    +0.006 C 
ATOM     34  C   UNL     1      -6.028   3.445   9.661  0.00  0.00    +0.006 C 
ATOM     35  C   UNL     1      -4.616   3.769   9.172  0.00  0.00    +0.055 C 
ENDBRANCH  21  22
ENDBRANCH   5  21
TORSDOF 3
