REMARK  Name = ZINC36845752
REMARK  10 active torsions:
REMARK  status: ('A' for Active; 'I' for Inactive)
REMARK    1  A    between atoms: C_1  and  C_2
REMARK    2  A    between atoms: C_4  and  C_23
REMARK    3  A    between atoms: C_5  and  N_9
REMARK    4  A    between atoms: N_9  and  C_10
REMARK    5  A    between atoms: C_10  and  N_12
REMARK    6  A    between atoms: N_12  and  C_13
REMARK    7  A    between atoms: C_13  and  C_14
REMARK    8  A    between atoms: C_19  and  N_20
REMARK    9  A    between atoms: N_20  and  C_21
REMARK   10  A    between atoms: N_20  and  C_22
REMARK                            x       y       z     vdW  Elec       q    Type
REMARK                         _______ _______ _______ _____ _____    ______ ____
ROOT
ATOM      1  C   UNL     1       0.624  -4.331   2.423  0.00  0.00    +0.135 C 
ATOM      2  S   UNL     1       1.004  -3.453   3.843  0.00  0.00    -0.019 S 
ENDROOT
BRANCH   1   3
ATOM      3  N   UNL     1       0.254  -3.675   1.305  0.00  0.00    -0.296 N 
ATOM      4  H   UNL     1      -0.043  -4.173   0.527  0.00  0.00    +0.154 HD
BRANCH   3   9
ATOM      5  C   UNL     1       0.437   1.993   1.145  0.00  0.00    +0.044 C 
ATOM      6  C   UNL     1       0.388   0.488   1.188  0.00  0.00    -0.049 A 
ATOM      7  C   UNL     1       1.562  -0.239   1.266  0.00  0.00    +0.008 A 
ATOM      8  C   UNL     1       1.521  -1.619   1.305  0.00  0.00    -0.028 A 
ATOM      9  C   UNL     1       0.299  -2.277   1.266  0.00  0.00    +0.054 A 
ATOM     10  C   UNL     1      -0.879  -1.545   1.187  0.00  0.00    +0.063 A 
ATOM     11  C   UNL     1      -0.831  -0.164   1.153  0.00  0.00    +0.025 A 
ATOM     12 CL   UNL     1      -2.410  -2.362   1.137  0.00  0.00    -0.082 Cl
ATOM     13  C   UNL     1       2.801  -2.409   1.390  0.00  0.00    +0.046 C 
ENDBRANCH   3   9
ENDBRANCH   1   3
BRANCH   1  14
ATOM     14  N   UNL     1       0.693  -5.677   2.423  0.00  0.00    -0.322 N 
ATOM     15  H   UNL     1       0.477  -6.174   1.619  0.00  0.00    +0.148 HD
BRANCH  14  16
ATOM     16  C   UNL     1       1.095  -6.389   3.639  0.00  0.00    +0.142 C 
BRANCH  16  17
ATOM     17  C   UNL     1       1.093  -7.873   3.376  0.00  0.00    +0.008 A 
ATOM     18  C   UNL     1       0.058  -8.665   3.838  0.00  0.00    +0.010 A 
ATOM     19  C   UNL     1       0.096 -10.027   3.572  0.00  0.00    +0.018 A 
ATOM     20  C   UNL     1       1.159 -10.548   2.860  0.00  0.00    +0.084 A 
ATOM     21  N   UNL     1       2.133  -9.768   2.432  0.00  0.00    -0.349 N 
ATOM     22  C   UNL     1       2.129  -8.463   2.659  0.00  0.00    +0.103 A 
ATOM     23  H   UNL     1       2.868 -10.159   1.934  0.00  0.00    +0.167 HD
BRANCH  22  24
ATOM     24  N   UNL     1       3.173  -7.678   2.184  0.00  0.00    -0.323 N 
ATOM     25  C   UNL     1       4.303  -7.355   3.058  0.00  0.00    +0.130 C 
ATOM     26  C   UNL     1       3.142  -7.173   0.809  0.00  0.00    +0.130 C 
ENDBRANCH  22  24
ENDBRANCH  16  17
ENDBRANCH  14  16
ENDBRANCH   1  14
TORSDOF 6
