REMARK  Name = ZINC56598703
REMARK  9 active torsions:
REMARK  status: ('A' for Active; 'I' for Inactive)
REMARK    1  A    between atoms: C_1  and  C_2
REMARK    2  A    between atoms: C_5  and  C_32
REMARK    3  A    between atoms: N_8  and  C_10
REMARK    4  A    between atoms: C_10  and  C_11
REMARK    5  A    between atoms: C_11  and  C_13
REMARK    6  A    between atoms: C_11  and  N_14
REMARK    7  A    between atoms: N_17  and  C_18
REMARK    8  A    between atoms: C_21  and  N_24
REMARK    9  A    between atoms: C_25  and  C_27
REMARK                            x       y       z     vdW  Elec       q    Type
REMARK                         _______ _______ _______ _____ _____    ______ ____
ROOT
ATOM      1  N   UNL     1       2.139   1.708   3.482  0.00  0.00    -0.298 N 
ATOM      2  C   UNL     1       1.194   2.439   4.104  0.00  0.00    +0.304 C 
ATOM      3  O   UNL     1       0.365   1.892   4.806  0.00  0.00    -0.253 OA
ATOM      4  N   UNL     1       1.166   3.778   3.947  0.00  0.00    -0.269 N 
ATOM      5  H   UNL     1       2.800   2.144   2.922  0.00  0.00    +0.150 HD
ATOM      6  H   UNL     1       1.865   4.222   3.443  0.00  0.00    +0.156 HD
ENDROOT
BRANCH   4   7
ATOM      7  C   UNL     1       0.127   4.528   4.514  0.00  0.00    +0.035 A 
ATOM      8  C   UNL     1      -0.364   5.645   3.852  0.00  0.00    +0.025 A 
ATOM      9  C   UNL     1      -1.387   6.385   4.410  0.00  0.00    +0.025 A 
ATOM     10  C   UNL     1      -1.926   6.011   5.635  0.00  0.00    +0.034 A 
ATOM     11  C   UNL     1      -1.435   4.893   6.297  0.00  0.00    +0.025 A 
ATOM     12  C   UNL     1      -0.415   4.151   5.736  0.00  0.00    +0.025 A 
BRANCH  10  13
ATOM     13  N   UNL     1      -2.963   6.761   6.201  0.00  0.00    -0.279 N 
ATOM     14  C   UNL     1      -3.894   7.329   5.409  0.00  0.00    +0.284 C 
ATOM     15  O   UNL     1      -3.787   7.262   4.199  0.00  0.00    -0.266 OA
ATOM     16  H   UNL     1      -3.013   6.871   7.164  0.00  0.00    +0.155 HD
BRANCH  14  17
ATOM     17  C   UNL     1      -5.037   8.028   6.006  0.00  0.00    +0.189 A 
ATOM     18  C   UNL     1      -6.049   8.640   5.324  0.00  0.00    +0.054 A 
ATOM     19  C   UNL     1      -6.919   9.176   6.286  0.00  0.00    +0.042 A 
ATOM     20  C   UNL     1      -6.406   8.871   7.499  0.00  0.00    +0.196 A 
ATOM     21  O   UNL     1      -5.275   8.175   7.326  0.00  0.00    -0.458 OA
ENDBRANCH  14  17
ENDBRANCH  10  13
ENDBRANCH   4   7
BRANCH   1  22
ATOM     22  C   UNL     1       2.169   0.253   3.652  0.00  0.00    +0.055 C 
ATOM     23  C   UNL     1       2.944  -0.096   4.924  0.00  0.00    +0.026 C 
BRANCH  22  24
ATOM     24  C   UNL     1       2.857  -0.387   2.444  0.00  0.00    -0.057 C 
BRANCH  24  30
ATOM     25  C   UNL     1       0.052   1.578  -0.021  0.00  0.00    +0.005 C 
ATOM     26  C   UNL     1       0.078   0.048  -0.040  0.00  0.00    -0.031 C 
ATOM     27  C   UNL     1       0.812  -0.435  -1.294  0.00  0.00    +0.003 C 
ATOM     28  C   UNL     1       2.267   0.041  -1.237  0.00  0.00    -0.031 C 
ATOM     29  C   UNL     1       2.916  -0.473   0.049  0.00  0.00    -0.076 C 
ATOM     30  N   UNL     1       2.184   0.045   1.212  0.00  0.00    +0.381 N 
ATOM     31  C   UNL     1       0.807  -0.466   1.202  0.00  0.00    -0.076 C 
ATOM     32  C   UNL     1       3.030  -0.501  -2.448  0.00  0.00    +0.005 C 
ATOM     33  H   UNL     1       2.168   1.053   1.176  0.00  0.00    -0.082 HD
ENDBRANCH  24  30
ENDBRANCH  22  24
ENDBRANCH   1  22
TORSDOF 6
