REMARK  Name = ZINC46339408
REMARK  8 active torsions:
REMARK  status: ('A' for Active; 'I' for Inactive)
REMARK    1  A    between atoms: C_1  and  C_2
REMARK    2  A    between atoms: C_10  and  C_11
REMARK    3  A    between atoms: N_13  and  N_14
REMARK    4  A    between atoms: N_17  and  C_18
REMARK    5  A    between atoms: C_18  and  C_19
REMARK    6  A    between atoms: C_19  and  C_21
REMARK    7  A    between atoms: C_19  and  N_22
REMARK    8  A    between atoms: C_27  and  C_29
REMARK                            x       y       z     vdW  Elec       q    Type
REMARK                         _______ _______ _______ _____ _____    ______ ____
ROOT
ATOM      1  N   UNL     1       0.195  -1.149   6.011  0.00  0.00    -0.218 N 
ATOM      2  C   UNL     1      -0.165  -2.284   6.643  0.00  0.00    +0.316 C 
ATOM      3  O   UNL     1      -0.720  -2.229   7.723  0.00  0.00    -0.251 OA
ATOM      4  N   UNL     1       0.090  -3.480   6.077  0.00  0.00    -0.300 N 
ATOM      5  H   UNL     1       0.011  -0.288   6.419  0.00  0.00    +0.174 HD
ATOM      6  H   UNL     1       0.533  -3.524   5.215  0.00  0.00    +0.150 HD
ENDROOT
BRANCH   1   9
ATOM      7  C   UNL     1       1.193  -0.078   4.134  0.00  0.00    +0.296 C 
ATOM      8  O   UNL     1       0.963   1.002   4.645  0.00  0.00    -0.265 OA
ATOM      9  N   UNL     1       0.834  -1.213   4.766  0.00  0.00    -0.227 N 
ATOM     10  H   UNL     1       1.017  -2.074   4.359  0.00  0.00    +0.173 HD
BRANCH   7  20
ATOM     11  C   UNL     1       2.123   2.382   2.474  0.00  0.00    +0.048 C 
ATOM     12  C   UNL     1       2.270   0.929   2.103  0.00  0.00    +0.008 A 
ATOM     13  C   UNL     1       2.885   0.390   0.890  0.00  0.00    +0.024 A 
ATOM     14  C   UNL     1       3.489   0.961  -0.233  0.00  0.00    +0.012 A 
ATOM     15  C   UNL     1       3.979   0.155  -1.221  0.00  0.00    +0.001 A 
ATOM     16  C   UNL     1       3.880  -1.226  -1.117  0.00  0.00    +0.004 A 
ATOM     17  C   UNL     1       3.288  -1.809  -0.018  0.00  0.00    +0.047 A 
ATOM     18  C   UNL     1       2.782  -1.010   1.001  0.00  0.00    +0.136 A 
ATOM     19  O   UNL     1       2.165  -1.282   2.167  0.00  0.00    -0.450 OA
ATOM     20  C   UNL     1       1.864  -0.144   2.828  0.00  0.00    +0.195 A 
ENDBRANCH   7  20
ENDBRANCH   1   9
BRANCH   4  21
ATOM     21  C   UNL     1      -0.301  -4.714   6.763  0.00  0.00    +0.090 C 
BRANCH  21  22
ATOM     22  C   UNL     1      -0.066  -5.909   5.837  0.00  0.00    -0.054 C 
ATOM     23  C   UNL     1      -0.260  -7.208   6.622  0.00  0.00    -0.012 C 
BRANCH  22  24
ATOM     24  N   UNL     1      -1.024  -5.862   4.724  0.00  0.00    +0.384 N 
ATOM     25  C   UNL     1      -2.385  -5.733   5.257  0.00  0.00    -0.078 C 
ATOM     26  C   UNL     1      -3.393  -5.764   4.106  0.00  0.00    -0.019 C 
ATOM     27  C   UNL     1      -3.105  -4.603   3.151  0.00  0.00    -0.003 C 
ATOM     28  C   UNL     1      -1.658  -4.707   2.659  0.00  0.00    -0.016 C 
ATOM     29  C   UNL     1      -0.715  -4.714   3.863  0.00  0.00    -0.071 C 
ATOM     30  C   UNL     1       0.732  -4.817   3.377  0.00  0.00    -0.013 C 
ATOM     31  H   UNL     1      -0.955  -6.713   4.186  0.00  0.00    -0.081 HD
ENDBRANCH  22  24
ENDBRANCH  21  22
ENDBRANCH   4  21
TORSDOF 5
