REMARK  Name = ZINC04895835
REMARK  10 active torsions:
REMARK  status: ('A' for Active; 'I' for Inactive)
REMARK    1  A    between atoms: C_1  and  C_2
REMARK    2  A    between atoms: C_2  and  C_3
REMARK    3  A    between atoms: C_3  and  C_5
REMARK    4  A    between atoms: C_3  and  N_6
REMARK    5  A    between atoms: N_6  and  S_7
REMARK    6  A    between atoms: S_7  and  C_10
REMARK    7  A    between atoms: C_13  and  N_16
REMARK    8  A    between atoms: C_17  and  C_19
REMARK    9  A    between atoms: C_19  and  N_56
REMARK   10  A    between atoms: C_20  and  N_56
REMARK                            x       y       z     vdW  Elec       q    Type
REMARK                         _______ _______ _______ _____ _____    ______ ____
ROOT
ATOM      1  C   UNL     1       4.234   8.778   4.705  0.00  0.00    +0.105 A 
ATOM      2  C   UNL     1       3.070   8.033   4.744  0.00  0.00    +0.030 A 
ATOM      3  C   UNL     1       3.001   6.822   4.085  0.00  0.00    +0.025 A 
ATOM      4  C   UNL     1       4.102   6.352   3.382  0.00  0.00    +0.033 A 
ATOM      5  C   UNL     1       5.272   7.100   3.349  0.00  0.00    +0.025 A 
ATOM      6  C   UNL     1       5.333   8.313   4.006  0.00  0.00    +0.030 A 
ENDROOT
BRANCH   4   7
ATOM      7  N   UNL     1       4.036   5.125   2.713  0.00  0.00    -0.287 N 
ATOM      8  C   UNL     1       2.883   4.734   2.134  0.00  0.00    +0.200 C 
ATOM      9  O   UNL     1       1.882   5.407   2.263  0.00  0.00    -0.278 OA
ATOM     10  H   UNL     1       4.819   4.554   2.667  0.00  0.00    +0.155 HD
BRANCH   8  11
ATOM     11  C   UNL     1       2.839   3.463   1.325  0.00  0.00    +0.015 C 
BRANCH  11  12
ATOM     12  N   UNL     1       1.472   3.269   0.805  0.00  0.00    +0.387 N 
ATOM     13  H   UNL     1       1.218   4.068   0.213  0.00  0.00    -0.085 HD
ATOM     14  H   UNL     1       0.816   3.204   1.593  0.00  0.00    -0.085 HD
BRANCH  12  15
ATOM     15  C   UNL     1       1.399   2.029   0.009  0.00  0.00    -0.071 C 
ATOM     16  C   UNL     1      -0.023   1.537   0.018  0.00  0.00    -0.016 C 
ATOM     17  C   UNL     1      -0.007  -0.005   0.018  0.00  0.00    -0.002 C 
ATOM     18  C   UNL     1       0.224  -0.558  -1.308  0.00  0.00    -0.000 C 
ATOM     19  C   UNL     1       1.594  -0.148  -1.885  0.00  0.00    -0.000 C 
ATOM     20  C   UNL     1       1.483   1.248  -2.435  0.00  0.00    -0.002 C 
ATOM     21  C   UNL     1       1.914   2.319  -1.414  0.00  0.00    -0.016 C 
ENDBRANCH  12  15
ENDBRANCH  11  12
ENDBRANCH   8  11
ENDBRANCH   4   7
BRANCH   1  22
ATOM     22  S   UNL     1       4.318  10.324   5.546  0.00  0.00    +0.059 S 
ATOM     23  O   UNL     1       5.333  11.082   4.903  0.00  0.00    -0.153 OA
ATOM     24  O   UNL     1       2.982  10.792   5.670  0.00  0.00    -0.153 OA
BRANCH  22  25
ATOM     25  N   UNL     1       4.856  10.017   7.082  0.00  0.00    -0.187 NA
ATOM     26  H   UNL     1       4.277  10.185   7.841  0.00  0.00    +0.148 HD
BRANCH  25  27
ATOM     27  C   UNL     1       6.208   9.492   7.293  0.00  0.00    +0.073 C 
ATOM     28  C   UNL     1       7.165  10.650   7.580  0.00  0.00    +0.025 C 
BRANCH  27  30
ATOM     29  C   UNL     1       5.341   7.309   8.143  0.00  0.00    +0.005 C 
ATOM     30  C   UNL     1       6.201   8.529   8.481  0.00  0.00    +0.017 C 
ENDBRANCH  27  30
ENDBRANCH  25  27
ENDBRANCH  22  25
ENDBRANCH   1  22
TORSDOF 8
