REMARK  Name = ZINC58893869
REMARK  13 active torsions:
REMARK  status: ('A' for Active; 'I' for Inactive)
REMARK    1  A    between atoms: C_1  and  C_2
REMARK    2  A    between atoms: C_2  and  O_3
REMARK    3  A    between atoms: O_3  and  C_4
REMARK    4  A    between atoms: C_7  and  C_10
REMARK    5  A    between atoms: C_10  and  C_12
REMARK    6  A    between atoms: C_10  and  O_35
REMARK    7  A    between atoms: C_12  and  C_13
REMARK    8  A    between atoms: C_13  and  C_14
REMARK    9  A    between atoms: N_16  and  N_17
REMARK   10  A    between atoms: C_18  and  C_19
REMARK   11  A    between atoms: C_22  and  O_26
REMARK   12  A    between atoms: O_26  and  C_27
REMARK   13  A    between atoms: C_27  and  C_28
REMARK                            x       y       z     vdW  Elec       q    Type
REMARK                         _______ _______ _______ _____ _____    ______ ____
ROOT
ATOM      1  C   UNL     1      -0.590  -8.504  -4.394  0.00  0.00    +0.232 C 
ATOM      2  O   UNL     1      -1.519  -7.732  -4.504  0.00  0.00    -0.274 OA
ATOM      3  N   UNL     1      -0.756  -9.806  -4.699  0.00  0.00    -0.207 N 
ATOM      4  H   UNL     1      -0.013 -10.423  -4.611  0.00  0.00    +0.177 HD
ENDROOT
BRANCH   3   5
ATOM      5  N   UNL     1      -2.002 -10.268  -5.142  0.00  0.00    -0.188 NA
ATOM      6  C   UNL     1      -2.196 -11.539  -5.322  0.00  0.00    +0.138 C 
BRANCH   6   7
ATOM      7  C   UNL     1      -1.333 -12.520  -4.641  0.00  0.00    -0.002 A 
ATOM      8  C   UNL     1      -1.341 -13.859  -5.042  0.00  0.00    +0.033 A 
ATOM      9  C   UNL     1      -0.531 -14.774  -4.402  0.00  0.00    +0.085 A 
ATOM     10  C   UNL     1       0.292 -14.366  -3.359  0.00  0.00    +0.157 A 
ATOM     11  C   UNL     1       0.303 -13.036  -2.957  0.00  0.00    +0.085 A 
ATOM     12  C   UNL     1      -0.499 -12.114  -3.595  0.00  0.00    +0.033 A 
ATOM     13 CL   UNL     1       1.333 -12.534  -1.653  0.00  0.00    -0.080 Cl
ATOM     14 CL   UNL     1      -0.541 -16.437  -4.899  0.00  0.00    -0.080 Cl
BRANCH  10  15
ATOM     15  O   UNL     1       1.088 -15.271  -2.731  0.00  0.00    -0.484 OA
BRANCH  15  16
ATOM     16  C   UNL     1       2.401 -15.459  -3.263  0.00  0.00    +0.264 C 
BRANCH  16  17
ATOM     17  C   UNL     1       3.131 -16.491  -2.443  0.00  0.00    -0.010 A 
ATOM     18  C   UNL     1       3.876 -16.102  -1.346  0.00  0.00    +0.007 A 
ATOM     19  C   UNL     1       4.546 -17.049  -0.594  0.00  0.00    +0.000 A 
ATOM     20  C   UNL     1       4.471 -18.385  -0.939  0.00  0.00    +0.000 A 
ATOM     21  C   UNL     1       3.725 -18.775  -2.036  0.00  0.00    +0.000 A 
ATOM     22  C   UNL     1       3.052 -17.828  -2.785  0.00  0.00    +0.007 A 
ENDBRANCH  16  17
ENDBRANCH  15  16
ENDBRANCH  10  15
ENDBRANCH   6   7
ENDBRANCH   3   5
BRANCH   1  23
ATOM     23  C   UNL     1       0.750  -8.006  -3.917  0.00  0.00    +0.100 C 
BRANCH  23  24
ATOM     24  C   UNL     1       0.668  -6.503  -3.643  0.00  0.00    +0.045 C 
BRANCH  24  25
ATOM     25  C   UNL     1       2.029  -5.998  -3.158  0.00  0.00    +0.145 C 
BRANCH  25  29
ATOM     26  C   UNL     1       1.712  -1.880  -2.061  0.00  0.00    +0.121 A 
ATOM     27  C   UNL     1       1.689  -2.864  -1.083  0.00  0.00    +0.046 A 
ATOM     28  C   UNL     1       1.792  -4.194  -1.440  0.00  0.00    +0.010 A 
ATOM     29  C   UNL     1       1.917  -4.546  -2.771  0.00  0.00    -0.019 A 
ATOM     30  C   UNL     1       1.940  -3.568  -3.748  0.00  0.00    +0.010 A 
ATOM     31  C   UNL     1       1.832  -2.236  -3.397  0.00  0.00    +0.046 A 
BRANCH  26  32
ATOM     32  O   UNL     1       1.611  -0.571  -1.712  0.00  0.00    -0.492 OA
BRANCH  32  34
ATOM     33  C   UNL     1       1.389   1.236  -0.123  0.00  0.00    +0.048 C 
ATOM     34  C   UNL     1       1.490  -0.278  -0.319  0.00  0.00    +0.225 C 
ENDBRANCH  32  34
ENDBRANCH  26  32
ENDBRANCH  25  29
BRANCH  25  35
ATOM     35  O   UNL     1       2.990  -6.139  -4.206  0.00  0.00    -0.387 OA
ATOM     36  H   UNL     1       2.772  -5.646  -5.009  0.00  0.00    +0.210 HD
ENDBRANCH  25  35
ENDBRANCH  24  25
ENDBRANCH  23  24
ENDBRANCH   1  23
TORSDOF 12
