REMARK  Name = ZINC65410421
REMARK  11 active torsions:
REMARK  status: ('A' for Active; 'I' for Inactive)
REMARK    1  A    between atoms: C_1  and  C_2
REMARK    2  A    between atoms: C_2  and  C_3
REMARK    3  A    between atoms: C_2  and  C_4
REMARK    4  A    between atoms: C_2  and  C_5
REMARK    5  A    between atoms: C_7  and  C_11
REMARK    6  A    between atoms: N_16  and  C_27
REMARK    7  A    between atoms: C_20  and  C_22
REMARK    8  A    between atoms: C_20  and  C_25
REMARK    9  A    between atoms: C_22  and  C_23
REMARK   10  A    between atoms: C_23  and  O_24
REMARK   11  A    between atoms: C_25  and  O_26
REMARK                            x       y       z     vdW  Elec       q    Type
REMARK                         _______ _______ _______ _____ _____    ______ ____
ROOT
ATOM      1  C   UNL     1       3.240  -0.458  -3.257  0.00  0.00    +0.086 C 
ATOM      2  C   UNL     1       3.902  -1.435  -4.256  0.00  0.00    -0.005 C 
ATOM      3  C   UNL     1       3.366  -2.860  -3.984  0.00  0.00    -0.074 C 
ATOM      4  N   UNL     1       4.531  -3.730  -4.281  0.00  0.00    +0.378 N 
ATOM      5  C   UNL     1       5.713  -3.015  -3.755  0.00  0.00    -0.074 C 
ATOM      6  C   UNL     1       5.379  -1.496  -3.767  0.00  0.00    -0.002 C 
ATOM      7  C   UNL     1       5.341  -0.984  -2.316  0.00  0.00    +0.046 C 
ATOM      8  N   UNL     1       3.922  -0.746  -1.972  0.00  0.00    -0.303 NA
ATOM      9  C   UNL     1       4.381  -5.026  -3.605  0.00  0.00    -0.096 C 
ATOM     10  H   UNL     1       3.828   0.027  -1.331  0.00  0.00    +0.123 HD
ATOM     11  H   UNL     1       4.620  -3.865  -5.277  0.00  0.00    -0.082 HD
ENDROOT
BRANCH   1  14
ATOM     12  C   UNL     1       0.166   0.612  -4.014  0.00  0.00    +0.067 C 
ATOM     13  C   UNL     1       1.019  -0.331  -4.417  0.00  0.00    +0.028 C 
ATOM     14  C   UNL     1       1.740  -0.740  -3.144  0.00  0.00    +0.170 C 
ATOM     15  N   UNL     1       1.120   0.120  -2.122  0.00  0.00    -0.178 NA
ATOM     16  N   UNL     1       0.280   0.827  -2.684  0.00  0.00    -0.158 NA
BRANCH  12  18
ATOM     17  C   UNL     1      -0.631   0.831  -6.352  0.00  0.00    +0.017 C 
ATOM     18  C   UNL     1      -0.791   1.344  -4.919  0.00  0.00    +0.006 C 
ATOM     19  C   UNL     1      -0.488   2.843  -4.878  0.00  0.00    +0.017 C 
ATOM     20  C   UNL     1      -2.227   1.100  -4.448  0.00  0.00    +0.017 C 
ENDBRANCH  12  18
ENDBRANCH   1  14
BRANCH   7  21
ATOM     21  C   UNL     1       6.127   0.324  -2.205  0.00  0.00    +0.052 C 
BRANCH  21  22
ATOM     22  C   UNL     1       6.049   0.845  -0.768  0.00  0.00    +0.157 C 
BRANCH  22  23
ATOM     23  O   UNL     1       6.830   2.036  -0.651  0.00  0.00    -0.395 OA
ATOM     24  H   UNL     1       6.826   2.422   0.236  0.00  0.00    +0.209 HD
ENDBRANCH  22  23
ENDBRANCH  21  22
ENDBRANCH   7  21
BRANCH   7  25
ATOM     25  C   UNL     1       5.938  -2.035  -1.378  0.00  0.00    +0.178 C 
BRANCH  25  26
ATOM     26  O   UNL     1       7.277  -2.329  -1.782  0.00  0.00    -0.393 OA
ATOM     27  H   UNL     1       7.718  -2.989  -1.230  0.00  0.00    +0.209 HD
ENDBRANCH  25  26
ENDBRANCH   7  25
TORSDOF 7
