REMARK  Name = ZINC38546982
REMARK  6 active torsions:
REMARK  status: ('A' for Active; 'I' for Inactive)
REMARK    1  A    between atoms: C_1  and  C_2
REMARK    2  A    between atoms: C_4  and  C_15
REMARK    3  A    between atoms: C_5  and  N_7
REMARK    4  A    between atoms: C_8  and  C_10
REMARK    5  A    between atoms: C_15  and  C_17
REMARK    6  A    between atoms: C_15  and  N_24
REMARK                            x       y       z     vdW  Elec       q    Type
REMARK                         _______ _______ _______ _____ _____    ______ ____
ROOT
ATOM      1  C   UNL     1      -1.965  -3.245  -0.001  0.00  0.00    +0.137 C 
ENDROOT
BRANCH   1   2
ATOM      2  N   UNL     1      -3.152  -2.522   0.464  0.00  0.00    -0.320 N 
ATOM      3  C   UNL     1      -4.266  -3.227   0.904  0.00  0.00    +0.097 A 
ATOM      4  C   UNL     1      -4.247  -4.618   0.905  0.00  0.00    +0.041 A 
ATOM      5  C   UNL     1      -5.362  -5.306   1.345  0.00  0.00    +0.005 A 
ATOM      6  C   UNL     1      -6.465  -4.577   1.771  0.00  0.00    +0.018 A 
ATOM      7  C   UNL     1      -6.416  -3.198   1.743  0.00  0.00    +0.084 A 
ATOM      8  N   UNL     1      -5.336  -2.568   1.323  0.00  0.00    -0.350 N 
ATOM      9  H   UNL     1      -3.159  -1.552   0.465  0.00  0.00    +0.148 HD
ATOM     10  H   UNL     1      -5.326  -1.598   1.317  0.00  0.00    +0.166 HD
ENDBRANCH   1   2
BRANCH   1  11
ATOM     11  C   UNL     1      -2.171  -3.683  -1.428  0.00  0.00    +0.012 A 
ATOM     12  C   UNL     1      -3.044  -2.989  -2.245  0.00  0.00    +0.008 A 
ATOM     13  C   UNL     1      -3.233  -3.391  -3.554  0.00  0.00    +0.001 A 
ATOM     14  C   UNL     1      -2.549  -4.486  -4.048  0.00  0.00    +0.003 A 
ATOM     15  C   UNL     1      -1.676  -5.181  -3.233  0.00  0.00    +0.039 A 
ATOM     16  C   UNL     1      -1.482  -4.777  -1.923  0.00  0.00    +0.129 A 
ATOM     17  F   UNL     1      -0.625  -5.452  -1.127  0.00  0.00    -0.205 F 
ENDBRANCH   1  11
BRANCH   1  21
ATOM     18  C   UNL     1       1.579  -0.208  -2.040  0.00  0.00    +0.051 C 
ATOM     19  C   UNL     1       0.838  -0.949  -0.957  0.00  0.00    -0.011 A 
ATOM     20  C   UNL     1      -0.243  -1.758  -1.063  0.00  0.00    +0.018 A 
ATOM     21  C   UNL     1      -0.763  -2.340   0.078  0.00  0.00    +0.006 A 
ATOM     22  C   UNL     1      -0.168  -2.079   1.276  0.00  0.00    +0.078 A 
ATOM     23  S   UNL     1       1.165  -0.993   0.798  0.00  0.00    -0.078 S 
BRANCH  22  24
ATOM     24  N   UNL     1      -0.509  -2.546   2.547  0.00  0.00    -0.273 N 
ATOM     25  C   UNL     1       0.143  -2.083   3.633  0.00  0.00    +0.284 C 
ATOM     26  O   UNL     1       1.030  -1.259   3.504  0.00  0.00    -0.266 OA
ATOM     27  H   UNL     1      -1.216  -3.202   2.650  0.00  0.00    +0.156 HD
BRANCH  25  28
ATOM     28  C   UNL     1      -0.216  -2.573   4.967  0.00  0.00    +0.189 A 
ATOM     29  C   UNL     1       0.358  -2.187   6.145  0.00  0.00    +0.054 A 
ATOM     30  C   UNL     1      -0.289  -2.903   7.163  0.00  0.00    +0.042 A 
ATOM     31  C   UNL     1      -1.218  -3.686   6.571  0.00  0.00    +0.196 A 
ATOM     32  O   UNL     1      -1.174  -3.480   5.248  0.00  0.00    -0.458 OA
ENDBRANCH  25  28
ENDBRANCH  22  24
ENDBRANCH   1  21
TORSDOF 5
