REMARK  Name = ZINC64755608
REMARK  9 active torsions:
REMARK  status: ('A' for Active; 'I' for Inactive)
REMARK    1  A    between atoms: C_1  and  C_2
REMARK    2  A    between atoms: C_2  and  C_3
REMARK    3  A    between atoms: C_2  and  N_16
REMARK    4  A    between atoms: C_3  and  N_4
REMARK    5  A    between atoms: N_7  and  C_8
REMARK    6  A    between atoms: C_8  and  C_9
REMARK    7  A    between atoms: C_9  and  C_10
REMARK    8  A    between atoms: N_12  and  C_13
REMARK    9  A    between atoms: C_13  and  C_14
REMARK                            x       y       z     vdW  Elec       q    Type
REMARK                         _______ _______ _______ _____ _____    ______ ____
ROOT
ATOM      1  N   UNL     1       0.961  -1.710  -1.466  0.00  0.00    -0.301 N 
ATOM      2  C   UNL     1       1.503  -2.192  -2.602  0.00  0.00    +0.300 C 
ATOM      3  O   UNL     1       1.805  -1.432  -3.501  0.00  0.00    -0.253 OA
ATOM      4  N   UNL     1       1.711  -3.516  -2.741  0.00  0.00    -0.299 N 
ATOM      5  H   UNL     1       0.720  -2.317  -0.748  0.00  0.00    +0.150 HD
ATOM      6  H   UNL     1       1.470  -4.123  -2.023  0.00  0.00    +0.150 HD
ENDROOT
BRANCH   1   7
ATOM      7  C   UNL     1       0.735  -0.271  -1.315  0.00  0.00    +0.090 C 
BRANCH   7   9
ATOM      8  C   UNL     1      -0.125   1.505   0.217  0.00  0.00    -0.012 C 
ATOM      9  C   UNL     1       0.011  -0.004   0.006  0.00  0.00    -0.054 C 
BRANCH   9  10
ATOM     10  N   UNL     1       0.781  -0.586   1.113  0.00  0.00    +0.385 N 
ATOM     11  C   UNL     1       0.099  -0.310   2.387  0.00  0.00    -0.073 C 
ATOM     12  C   UNL     1       0.735  -1.171   3.478  0.00  0.00    +0.017 C 
ATOM     13  C   UNL     1       2.233  -1.001   3.453  0.00  0.00    -0.048 A 
ATOM     14  C   UNL     1       2.967  -1.410   4.556  0.00  0.00    +0.004 A 
ATOM     15  C   UNL     1       4.340  -1.273   4.568  0.00  0.00    +0.000 A 
ATOM     16  C   UNL     1       4.987  -0.727   3.474  0.00  0.00    +0.000 A 
ATOM     17  C   UNL     1       4.256  -0.318   2.377  0.00  0.00    +0.002 A 
ATOM     18  C   UNL     1       2.876  -0.453   2.364  0.00  0.00    -0.061 A 
ATOM     19  C   UNL     1       2.118   0.013   1.149  0.00  0.00    -0.042 C 
ATOM     20  H   UNL     1       0.862  -1.583   0.981  0.00  0.00    -0.081 HD
ENDBRANCH   9  10
ENDBRANCH   7   9
ENDBRANCH   1   7
BRANCH   4  21
ATOM     21  C   UNL     1       2.300  -4.040  -3.976  0.00  0.00    +0.115 C 
BRANCH  21  22
ATOM     22  C   UNL     1       2.427  -5.561  -3.876  0.00  0.00    +0.114 C 
BRANCH  22  23
ATOM     23  C   UNL     1       3.033  -6.100  -5.146  0.00  0.00    +0.215 C 
ATOM     24  O   UNL     1       3.334  -5.341  -6.043  0.00  0.00    -0.276 OA
ATOM     25  N   UNL     1       3.241  -7.424  -5.285  0.00  0.00    -0.304 N 
ATOM     26  H   UNL     1       3.000  -8.031  -4.567  0.00  0.00    +0.150 HD
BRANCH  25  27
ATOM     27  C   UNL     1       3.830  -7.947  -6.520  0.00  0.00    +0.193 C 
BRANCH  27  28
ATOM     28  C   UNL     1       3.952  -9.411  -6.423  0.00  0.00    -0.087 C 
ATOM     29  C   UNL     1       4.049 -10.579  -6.346  0.00  0.00    +0.005 C 
ENDBRANCH  27  28
ENDBRANCH  25  27
ENDBRANCH  22  23
ENDBRANCH  21  22
ENDBRANCH   4  21
TORSDOF 8
