REMARK  Name = ZINC24966185
REMARK  10 active torsions:
REMARK  status: ('A' for Active; 'I' for Inactive)
REMARK    1  A    between atoms: C_1  and  C_2
REMARK    2  A    between atoms: C_7  and  S_15
REMARK    3  A    between atoms: S_15  and  C_16
REMARK    4  A    between atoms: C_16  and  C_17
REMARK    5  A    between atoms: N_19  and  C_20
REMARK    6  A    between atoms: C_20  and  C_21
REMARK    7  A    between atoms: C_21  and  C_23
REMARK    8  A    between atoms: C_21  and  N_31
REMARK    9  A    between atoms: C_26  and  O_29
REMARK   10  A    between atoms: O_29  and  C_30
REMARK                            x       y       z     vdW  Elec       q    Type
REMARK                         _______ _______ _______ _____ _____    ______ ____
ROOT
ATOM      1  C   UNL     1       0.516   3.647   1.315  0.00  0.00    +0.223 C 
ATOM      2  O   UNL     1      -0.279   3.923   0.442  0.00  0.00    -0.275 OA
ATOM      3  N   UNL     1       1.371   2.619   1.148  0.00  0.00    -0.316 N 
ATOM      4  H   UNL     1       2.095   2.372   1.938  0.00  0.00    +0.149 HD
ENDROOT
BRANCH   1   5
ATOM      5  C   UNL     1       0.548   4.454   2.587  0.00  0.00    +0.173 C 
BRANCH   5   6
ATOM      6  S   UNL     1      -0.710   5.753   2.510  0.00  0.00    -0.076 S 
BRANCH   6  13
ATOM      7  C   UNL     1      -2.611  10.812   7.033  0.00  0.00    +0.044 C 
ATOM      8  C   UNL     1      -2.093   9.684   6.178  0.00  0.00    -0.038 A 
ATOM      9  C   UNL     1      -1.097   8.887   6.626  0.00  0.00    +0.052 A 
ATOM     10  C   UNL     1      -0.608   7.831   5.821  0.00  0.00    +0.162 A 
ATOM     11  N   UNL     1       0.343   6.935   6.010  0.00  0.00    -0.129 NA
ATOM     12  N   UNL     1       0.428   6.166   4.983  0.00  0.00    -0.122 NA
ATOM     13  C   UNL     1      -0.458   6.517   4.077  0.00  0.00    +0.197 A 
ATOM     14  N   UNL     1      -1.141   7.588   4.575  0.00  0.00    -0.270 N 
ATOM     15  C   UNL     1      -2.168   8.372   4.077  0.00  0.00    +0.058 A 
ATOM     16  C   UNL     1      -2.670   9.432   4.854  0.00  0.00    +0.002 A 
ATOM     17  C   UNL     1      -3.706  10.227   4.357  0.00  0.00    +0.010 A 
ATOM     18  C   UNL     1      -4.227   9.967   3.109  0.00  0.00    +0.001 A 
ATOM     19  C   UNL     1      -3.731   8.921   2.345  0.00  0.00    +0.002 A 
ATOM     20  C   UNL     1      -2.708   8.127   2.822  0.00  0.00    +0.027 A 
ENDBRANCH   6  13
ENDBRANCH   5   6
ENDBRANCH   1   5
BRANCH   3  21
ATOM     21  C   UNL     1       1.337   1.831  -0.087  0.00  0.00    +0.093 C 
BRANCH  21  22
ATOM     22  C   UNL     1       2.488   0.824  -0.082  0.00  0.00    -0.020 C 
BRANCH  22  23
ATOM     23  N   UNL     1       2.410  -0.015  -1.285  0.00  0.00    +0.385 N 
ATOM     24  C   UNL     1       1.117  -0.707  -1.362  0.00  0.00    -0.078 C 
ATOM     25  C   UNL     1       1.014  -1.453  -2.694  0.00  0.00    -0.019 C 
ATOM     26  C   UNL     1       2.161  -2.463  -2.797  0.00  0.00    -0.004 C 
ATOM     27  C   UNL     1       3.495  -1.723  -2.666  0.00  0.00    -0.019 C 
ATOM     28  C   UNL     1       3.526  -0.969  -1.335  0.00  0.00    -0.078 C 
ATOM     29  H   UNL     1       2.492   0.642  -2.163  0.00  0.00    -0.081 HD
ENDBRANCH  22  23
BRANCH  22  30
ATOM     30  C   UNL     1       3.802   1.563  -0.069  0.00  0.00    -0.059 A 
ATOM     31  C   UNL     1       4.313   2.082  -1.244  0.00  0.00    +0.005 A 
ATOM     32  C   UNL     1       5.514   2.764  -1.233  0.00  0.00    +0.046 A 
ATOM     33  C   UNL     1       6.213   2.919  -0.044  0.00  0.00    +0.120 A 
ATOM     34  C   UNL     1       5.700   2.392   1.132  0.00  0.00    +0.046 A 
ATOM     35  C   UNL     1       4.496   1.715   1.117  0.00  0.00    +0.005 A 
BRANCH  33  36
ATOM     36  O   UNL     1       7.398   3.584  -0.033  0.00  0.00    -0.495 OA
ATOM     37  C   UNL     1       7.865   4.100  -1.281  0.00  0.00    +0.277 C 
ENDBRANCH  33  36
ENDBRANCH  22  30
ENDBRANCH  21  22
ENDBRANCH   3  21
TORSDOF 8
