REMARK  Name = ZINC58056072
REMARK  10 active torsions:
REMARK  status: ('A' for Active; 'I' for Inactive)
REMARK    1  A    between atoms: C_1  and  C_2
REMARK    2  A    between atoms: C_2  and  C_3
REMARK    3  A    between atoms: C_2  and  C_4
REMARK    4  A    between atoms: C_4  and  C_5
REMARK    5  A    between atoms: C_5  and  C_6
REMARK    6  A    between atoms: C_5  and  N_22
REMARK    7  A    between atoms: N_8  and  C_9
REMARK    8  A    between atoms: C_9  and  C_10
REMARK    9  A    between atoms: C_10  and  C_11
REMARK   10  A    between atoms: C_10  and  N_16
REMARK                            x       y       z     vdW  Elec       q    Type
REMARK                         _______ _______ _______ _____ _____    ______ ____
ROOT
ATOM      1  C   UNL     1      -3.573  -1.164  -0.394  0.00  0.00    +0.233 C 
ATOM      2  O   UNL     1      -3.970  -2.288  -0.618  0.00  0.00    -0.274 OA
ATOM      3  N   UNL     1      -4.451  -0.185  -0.098  0.00  0.00    -0.315 N 
ATOM      4  H   UNL     1      -4.133   0.714   0.081  0.00  0.00    +0.149 HD
ENDROOT
BRANCH   1   5
ATOM      5  C   UNL     1      -2.097  -0.862  -0.447  0.00  0.00    +0.161 C 
BRANCH   5   6
ATOM      6  N   UNL     1      -1.414  -1.897  -1.226  0.00  0.00    -0.288 N 
ATOM      7  C   UNL     1      -1.469  -3.185  -0.830  0.00  0.00    +0.298 C 
ATOM      8  O   UNL     1      -2.085  -3.486   0.174  0.00  0.00    -0.253 OA
ATOM      9  N   UNL     1      -0.841  -4.138  -1.546  0.00  0.00    -0.313 N 
ATOM     10  H   UNL     1      -0.922  -1.657  -2.027  0.00  0.00    +0.151 HD
ATOM     11  H   UNL     1      -0.349  -3.897  -2.347  0.00  0.00    +0.146 HD
ATOM     12  H   UNL     1      -0.880  -5.064  -1.262  0.00  0.00    +0.146 HD
ENDBRANCH   5   6
BRANCH   5  13
ATOM     13  C   UNL     1      -1.531  -0.836   0.974  0.00  0.00    +0.034 C 
BRANCH  13  15
ATOM     14  C   UNL     1       0.033   1.036   0.430  0.00  0.00    +0.007 C 
ATOM     15  C   UNL     1      -0.063  -0.407   0.930  0.00  0.00    -0.015 C 
ATOM     16  C   UNL     1       0.538  -0.501   2.334  0.00  0.00    +0.007 C 
ENDBRANCH  13  15
ENDBRANCH   5  13
ENDBRANCH   1   5
BRANCH   3  17
ATOM     17  C   UNL     1      -5.885  -0.479  -0.047  0.00  0.00    +0.096 C 
BRANCH  17  18
ATOM     18  C   UNL     1      -6.643   0.760   0.435  0.00  0.00    +0.016 C 
BRANCH  18  19
ATOM     19  N   UNL     1      -6.117   1.179   1.741  0.00  0.00    +0.387 N 
ATOM     20  C   UNL     1      -6.190   0.053   2.680  0.00  0.00    -0.078 C 
ATOM     21  C   UNL     1      -5.569   0.458   4.018  0.00  0.00    -0.019 C 
ATOM     22  C   UNL     1      -6.338   1.653   4.590  0.00  0.00    -0.004 C 
ATOM     23  C   UNL     1      -6.318   2.796   3.571  0.00  0.00    -0.019 C 
ATOM     24  C   UNL     1      -6.911   2.303   2.249  0.00  0.00    -0.078 C 
ATOM     25  H   UNL     1      -5.155   1.466   1.639  0.00  0.00    -0.081 HD
ENDBRANCH  18  19
BRANCH  18  26
ATOM     26  C   UNL     1      -8.108   0.434   0.564  0.00  0.00    +0.093 A 
ATOM     27  C   UNL     1      -9.087   0.876  -0.246  0.00  0.00    +0.043 A 
ATOM     28  C   UNL     1     -10.297   0.330   0.238  0.00  0.00    +0.041 A 
ATOM     29  C   UNL     1      -9.986  -0.414   1.315  0.00  0.00    +0.195 A 
ATOM     30  O   UNL     1      -8.658  -0.352   1.504  0.00  0.00    -0.469 OA
ENDBRANCH  18  26
ENDBRANCH  17  18
ENDBRANCH   3  17
TORSDOF 8
