REMARK  Name = ZINC32070651
REMARK  5 active torsions:
REMARK  status: ('A' for Active; 'I' for Inactive)
REMARK    1  A    between atoms: N_9  and  C_11
REMARK    2  A    between atoms: C_11  and  C_13
REMARK    3  A    between atoms: C_11  and  C_15
REMARK    4  A    between atoms: C_13  and  N_14
REMARK    5  A    between atoms: C_19  and  N_21
REMARK                            x       y       z     vdW  Elec       q    Type
REMARK                         _______ _______ _______ _____ _____    ______ ____
ROOT
ATOM      1  C   UNL     1      -2.165   0.845  -1.148  0.00  0.00    +0.070 C 
ENDROOT
BRANCH   1  10
ATOM      2  C   UNL     1      -3.554   2.434   4.923  0.00  0.00    +0.000 A 
ATOM      3  C   UNL     1      -3.636   1.060   4.792  0.00  0.00    +0.000 A 
ATOM      4  C   UNL     1      -3.322   0.464   3.588  0.00  0.00    +0.005 A 
ATOM      5  C   UNL     1      -2.923   1.236   2.506  0.00  0.00    -0.030 A 
ATOM      6  C   UNL     1      -2.845   2.606   2.636  0.00  0.00    -0.042 A 
ATOM      7  C   UNL     1      -3.160   3.204   3.847  0.00  0.00    +0.004 A 
ATOM      8  C   UNL     1      -2.424   3.487   1.488  0.00  0.00    +0.051 C 
ATOM      9  C   UNL     1      -1.733   2.647   0.412  0.00  0.00    +0.090 C 
ATOM     10  N   UNL     1      -2.589   1.492   0.100  0.00  0.00    -0.293 NA
ATOM     11  C   UNL     1      -2.582   0.539   1.215  0.00  0.00    +0.120 C 
ENDBRANCH   1  10
BRANCH   1  12
ATOM     12  C   UNL     1      -2.845   1.511  -2.316  0.00  0.00    -0.030 A 
ATOM     13  C   UNL     1      -3.272   2.822  -2.210  0.00  0.00    +0.009 A 
ATOM     14  C   UNL     1      -3.891   3.437  -3.281  0.00  0.00    +0.053 A 
ATOM     15  C   UNL     1      -4.093   2.735  -4.460  0.00  0.00    +0.209 A 
ATOM     16  C   UNL     1      -3.669   1.418  -4.563  0.00  0.00    +0.173 A 
ATOM     17  C   UNL     1      -3.045   0.809  -3.490  0.00  0.00    +0.041 A 
ATOM     18  O   UNL     1      -4.707   3.336  -5.513  0.00  0.00    -0.285 OA
BRANCH  16  19
ATOM     19  N   UNL     1      -3.883   0.666  -5.819  0.00  0.00    +0.060 N 
ATOM     20  O   UNL     1      -3.509  -0.490  -5.909  0.00  0.00    -0.126 OA
ATOM     21  O   UNL     1      -4.432   1.204  -6.764  0.00  0.00    -0.126 OA
ENDBRANCH  16  19
ENDBRANCH   1  12
BRANCH   1  22
ATOM     22  C   UNL     1      -0.648   0.974  -1.300  0.00  0.00    -0.063 C 
BRANCH  22  23
ATOM     23  N   UNL     1       0.011   0.452  -0.095  0.00  0.00    +0.379 N 
ATOM     24  H   UNL     1       1.102   0.545  -0.204  0.00  0.00    -0.090 HD
ATOM     25  H   UNL     1      -0.255  -0.607   0.039  0.00  0.00    -0.090 HD
ATOM     26  H   UNL     1      -0.320   1.028   0.782  0.00  0.00    -0.090 HD
ENDBRANCH  22  23
ENDBRANCH   1  22
TORSDOF 5
