REMARK  Name = ZINC30499313
REMARK  11 active torsions:
REMARK  status: ('A' for Active; 'I' for Inactive)
REMARK    1  A    between atoms: C_1  and  C_2
REMARK    2  A    between atoms: C_2  and  C_3
REMARK    3  A    between atoms: N_5  and  C_6
REMARK    4  A    between atoms: C_9  and  C_12
REMARK    5  A    between atoms: C_12  and  C_14
REMARK    6  A    between atoms: C_12  and  N_15
REMARK    7  A    between atoms: N_15  and  C_16
REMARK    8  A    between atoms: C_16  and  C_18
REMARK    9  A    between atoms: C_16  and  C_19
REMARK   10  A    between atoms: N_24  and  C_25
REMARK   11  A    between atoms: C_28  and  C_31
REMARK                            x       y       z     vdW  Elec       q    Type
REMARK                         _______ _______ _______ _____ _____    ______ ____
ROOT
ATOM      1  N   UNL     1       4.982  -6.730  -0.584  0.00  0.00    +0.391 N 
ATOM      2  H   UNL     1       5.623  -6.068   0.016  0.00  0.00    -0.084 HD
ATOM      3  H   UNL     1       5.281  -6.671  -1.641  0.00  0.00    -0.084 HD
ENDROOT
BRANCH   1   4
ATOM      4  C   UNL     1       5.126  -8.113  -0.111  0.00  0.00    -0.043 C 
ATOM      5  C   UNL     1       5.327  -8.115   1.405  0.00  0.00    -0.009 C 
BRANCH   4   9
ATOM      6  C   UNL     1       8.507  -9.919  -2.000  0.00  0.00    +0.033 A 
ATOM      7  C   UNL     1       7.343 -10.651  -1.811  0.00  0.00    +0.023 A 
ATOM      8  C   UNL     1       6.252 -10.065  -1.200  0.00  0.00    +0.004 A 
ATOM      9  C   UNL     1       6.318  -8.750  -0.777  0.00  0.00    -0.062 A 
ATOM     10  C   UNL     1       7.475  -8.017  -0.969  0.00  0.00    +0.004 A 
ATOM     11  C   UNL     1       8.571  -8.599  -1.574  0.00  0.00    +0.023 A 
BRANCH   6  14
ATOM     12  C   UNL     1       9.434 -11.399  -3.616  0.00  0.00    +0.217 C 
ATOM     13  O   UNL     1       8.314 -11.750  -3.920  0.00  0.00    -0.275 OA
ATOM     14  N   UNL     1       9.614 -10.510  -2.619  0.00  0.00    -0.286 N 
ATOM     15  H   UNL     1      10.632 -10.249  -2.292  0.00  0.00    +0.155 HD
BRANCH  12  17
ATOM     16  C   UNL     1      10.148 -12.936  -5.426  0.00  0.00    +0.013 C 
ATOM     17  C   UNL     1      10.625 -11.957  -4.352  0.00  0.00    +0.093 C 
ENDBRANCH  12  17
ENDBRANCH   6  14
ENDBRANCH   4   9
ENDBRANCH   1   4
BRANCH   1  18
ATOM     18  C   UNL     1       3.591  -6.274  -0.463  0.00  0.00    +0.014 C 
ATOM     19  C   UNL     1       2.801  -6.709  -1.699  0.00  0.00    -0.004 C 
BRANCH  18  20
ATOM     20  C   UNL     1       3.562  -4.771  -0.352  0.00  0.00    +0.206 C 
ATOM     21  O   UNL     1       4.598  -4.142  -0.373  0.00  0.00    -0.277 OA
ATOM     22  N   UNL     1       2.385  -4.127  -0.231  0.00  0.00    -0.241 N 
ATOM     23  C   UNL     1       2.360  -2.783  -0.132  0.00  0.00    +0.310 C 
ATOM     24  O   UNL     1       3.398  -2.152  -0.152  0.00  0.00    -0.252 OA
ATOM     25  N   UNL     1       1.182  -2.138  -0.010  0.00  0.00    -0.269 N 
ATOM     26  H   UNL     1       1.445  -4.697  -0.212  0.00  0.00    +0.159 HD
ATOM     27  H   UNL     1       0.249  -2.711   0.094  0.00  0.00    +0.156 HD
BRANCH  25  28
ATOM     28  C   UNL     1       1.147  -0.739  -0.016  0.00  0.00    +0.035 A 
ATOM     29  C   UNL     1       2.056  -0.023  -0.783  0.00  0.00    +0.023 A 
ATOM     30  C   UNL     1       2.018   1.358  -0.786  0.00  0.00    +0.005 A 
ATOM     31  C   UNL     1       1.076   2.027  -0.028  0.00  0.00    -0.050 A 
ATOM     32  C   UNL     1       0.169   1.317   0.737  0.00  0.00    +0.005 A 
ATOM     33  C   UNL     1       0.201  -0.064   0.745  0.00  0.00    +0.023 A 
ATOM     34  C   UNL     1       1.037   3.533  -0.034  0.00  0.00    +0.044 C 
ENDBRANCH  25  28
ENDBRANCH  18  20
ENDBRANCH   1  18
TORSDOF 7
