REMARK  Name = ZINC39534295
REMARK  10 active torsions:
REMARK  status: ('A' for Active; 'I' for Inactive)
REMARK    1  A    between atoms: C_1  and  S_2
REMARK    2  A    between atoms: S_2  and  N_3
REMARK    3  A    between atoms: N_3  and  C_4
REMARK    4  A    between atoms: C_4  and  C_5
REMARK    5  A    between atoms: C_5  and  C_7
REMARK    6  A    between atoms: C_5  and  N_23
REMARK    7  A    between atoms: C_10  and  S_13
REMARK    8  A    between atoms: S_13  and  O_16
REMARK    9  A    between atoms: O_16  and  C_17
REMARK   10  A    between atoms: C_27  and  O_30
REMARK                            x       y       z     vdW  Elec       q    Type
REMARK                         _______ _______ _______ _____ _____    ______ ____
ROOT
ATOM      1  C   UNL     1       1.348  -2.190  -3.099  0.00  0.00    +0.101 C 
ENDROOT
BRANCH   1   2
ATOM      2  N   UNL     1       0.014  -1.756  -3.536  0.00  0.00    -0.295 NA
ATOM      3  C   UNL     1       0.085  -0.467  -4.239  0.00  0.00    +0.066 C 
ATOM      4  C   UNL     1      -1.312  -0.079  -4.729  0.00  0.00    -0.063 C 
ATOM      5  N   UNL     1      -2.224   0.018  -3.582  0.00  0.00    +0.398 N 
ATOM      6  C   UNL     1      -2.303  -1.283  -2.905  0.00  0.00    +0.073 C 
ATOM      7  C   UNL     1      -0.914  -1.680  -2.400  0.00  0.00    +0.096 C 
ATOM      8  H   UNL     1      -1.879   0.713  -2.936  0.00  0.00    -0.082 HD
ATOM      9  H   UNL     1      -3.142   0.286  -3.904  0.00  0.00    -0.082 HD
BRANCH   6  10
ATOM     10  O   UNL     1      -3.204  -1.190  -1.799  0.00  0.00    -0.409 OA
ATOM     11  H   UNL     1      -4.105  -0.942  -2.046  0.00  0.00    +0.207 HD
ENDBRANCH   6  10
ENDBRANCH   1   2
BRANCH   1  12
ATOM     12  C   UNL     1       1.349  -3.684  -2.902  0.00  0.00    -0.029 A 
ATOM     13  C   UNL     1       0.156  -4.382  -2.898  0.00  0.00    +0.007 A 
ATOM     14  C   UNL     1       0.158  -5.753  -2.717  0.00  0.00    +0.031 A 
ATOM     15  C   UNL     1       1.352  -6.426  -2.541  0.00  0.00    +0.128 A 
ATOM     16  C   UNL     1       2.546  -5.728  -2.546  0.00  0.00    +0.031 A 
ATOM     17  C   UNL     1       2.545  -4.358  -2.731  0.00  0.00    +0.007 A 
BRANCH  15  18
ATOM     18  S   UNL     1       1.354  -8.172  -2.309  0.00  0.00    +0.151 S 
ATOM     19  O   UNL     1       2.557  -8.490  -1.623  0.00  0.00    -0.131 OA
ATOM     20  O   UNL     1       0.073  -8.516  -1.800  0.00  0.00    -0.131 OA
BRANCH  18  21
ATOM     21  O   UNL     1       1.459  -8.809  -3.688  0.00  0.00    -0.342 OA
BRANCH  21  22
ATOM     22  C   UNL     1       2.700  -8.736  -4.237  0.00  0.00    +0.157 A 
ATOM     23  C   UNL     1       3.050  -7.645  -5.020  0.00  0.00    +0.048 A 
ATOM     24  C   UNL     1       4.312  -7.573  -5.577  0.00  0.00    +0.004 A 
ATOM     25  C   UNL     1       5.226  -8.586  -5.356  0.00  0.00    +0.000 A 
ATOM     26  C   UNL     1       4.880  -9.674  -4.576  0.00  0.00    +0.004 A 
ATOM     27  C   UNL     1       3.621  -9.748  -4.011  0.00  0.00    +0.048 A 
ENDBRANCH  21  22
ENDBRANCH  18  21
ENDBRANCH  15  18
ENDBRANCH   1  12
BRANCH   1  28
ATOM     28  C   UNL     1       1.701  -1.502  -1.780  0.00  0.00    +0.117 C 
BRANCH  28  29
ATOM     29  N   UNL     1       1.642  -0.044  -1.956  0.00  0.00    -0.262 NA
ATOM     30  H   UNL     1       2.407   0.282  -2.527  0.00  0.00    +0.135 HD
BRANCH  29  32
ATOM     31  C   UNL     1       1.544   2.541  -0.833  0.00  0.00    +0.102 C 
ATOM     32  S   UNL     1       1.618   0.781  -0.397  0.00  0.00    -0.084 S 
ENDBRANCH  29  32
ENDBRANCH  28  29
ENDBRANCH   1  28
TORSDOF 9
