REMARK  Name = ZINC34868036
REMARK  16 active torsions:
REMARK  status: ('A' for Active; 'I' for Inactive)
REMARK    1  A    between atoms: C_1  and  C_2
REMARK    2  A    between atoms: C_5  and  C_8
REMARK    3  A    between atoms: C_8  and  C_10
REMARK    4  A    between atoms: C_8  and  O_16
REMARK    5  A    between atoms: O_16  and  C_17
REMARK    6  A    between atoms: C_17  and  C_18
REMARK    7  A    between atoms: C_18  and  C_20
REMARK    8  A    between atoms: C_18  and  O_38
REMARK    9  A    between atoms: C_20  and  N_21
REMARK   10  A    between atoms: N_21  and  C_22
REMARK   11  A    between atoms: C_22  and  C_24
REMARK   12  A    between atoms: C_22  and  C_26
REMARK   13  A    between atoms: C_24  and  O_25
REMARK   14  A    between atoms: C_26  and  C_28
REMARK   15  A    between atoms: C_26  and  O_37
REMARK   16  A    between atoms: C_31  and  N_34
REMARK                            x       y       z     vdW  Elec       q    Type
REMARK                         _______ _______ _______ _____ _____    ______ ____
ROOT
ATOM      1  C   UNK A   0       2.975  -7.849   1.685  0.00  0.00    -0.048 C 
ENDROOT
BRANCH   1   2
ATOM      2  N   UNK A   1       3.771  -8.125   2.889  0.00  0.00    +0.386 N 
ATOM      3  H   UNK A   1       4.356  -7.329   3.095  0.00  0.00    -0.085 HD
ATOM      4  H   UNK A   1       3.153  -8.299   3.668  0.00  0.00    -0.085 HD
BRANCH   2   5
ATOM      5  C   UNK A   1       4.614  -9.306   2.659  0.00  0.00    -0.012 C 
BRANCH   5   6
ATOM      6  C   UNK A   1       5.634  -8.998   1.561  0.00  0.00    +0.143 C 
BRANCH   6   7
ATOM      7  O   UNK A   1       6.514  -7.963   2.006  0.00  0.00    -0.397 OA
ATOM      8  H   UNK A   1       7.189  -7.716   1.358  0.00  0.00    +0.209 HD
ENDBRANCH   6   7
ENDBRANCH   5   6
BRANCH   5   9
ATOM      9  C   UNK A   1       5.348  -9.667   3.951  0.00  0.00    +0.133 C 
BRANCH   9  10
ATOM     10  C   UNK A   1       4.346 -10.065   5.005  0.00  0.00    -0.020 A 
ATOM     11  C   UNK A   1       3.887 -11.368   5.064  0.00  0.00    +0.008 A 
ATOM     12  C   UNK A   1       2.968 -11.733   6.030  0.00  0.00    +0.033 A 
ATOM     13  C   UNK A   1       2.509 -10.796   6.937  0.00  0.00    +0.126 A 
ATOM     14  C   UNK A   1       2.969  -9.493   6.878  0.00  0.00    +0.033 A 
ATOM     15  C   UNK A   1       3.891  -9.129   5.914  0.00  0.00    +0.008 A 
BRANCH  13  16
ATOM     16  N   UNK A   1       1.524 -11.186   7.970  0.00  0.00    +0.056 N 
ATOM     17  O   UNK A   1       1.121 -12.325   8.022  0.00  0.00    -0.126 OA
ATOM     18  O   UNK A   1       1.122 -10.367   8.763  0.00  0.00    -0.126 OA
ENDBRANCH  13  16
ENDBRANCH   9  10
BRANCH   9  19
ATOM     19  O   UNK A   1       6.238 -10.758   3.704  0.00  0.00    -0.389 OA
ATOM     20  H   UNK A   1       5.813 -11.530   3.308  0.00  0.00    +0.210 HD
ENDBRANCH   9  19
ENDBRANCH   5   9
ENDBRANCH   2   5
ENDBRANCH   1   2
BRANCH   1  21
ATOM     21  C   UNK A   0       2.097  -6.620   1.925  0.00  0.00    +0.123 C 
BRANCH  21  22
ATOM     22  O   UNK A   0       1.222  -6.866   3.028  0.00  0.00    -0.391 OA
ATOM     23  H   UNK A   0       0.629  -7.619   2.899  0.00  0.00    +0.210 HD
ENDBRANCH  21  22
BRANCH  21  24
ATOM     24  C   UNK A   0       1.268  -6.332   0.671  0.00  0.00    +0.190 C 
BRANCH  24  25
ATOM     25  O   UNK A   0       0.536  -5.119   0.852  0.00  0.00    -0.365 OA
BRANCH  25  26
ATOM     26  C   UNK A   0      -0.275  -4.757  -0.268  0.00  0.00    +0.178 C 
BRANCH  26  31
ATOM     27  C   UNK A   0      -0.746   0.996  -0.530  0.00  0.00    +0.044 C 
ATOM     28  C   UNK A   0      -0.623  -0.504  -0.461  0.00  0.00    -0.050 A 
ATOM     29  C   UNK A   0      -0.569  -1.247  -1.626  0.00  0.00    +0.004 A 
ATOM     30  C   UNK A   0      -0.456  -2.623  -1.563  0.00  0.00    +0.007 A 
ATOM     31  C   UNK A   0      -0.397  -3.257  -0.336  0.00  0.00    -0.014 A 
ATOM     32  C   UNK A   0      -0.451  -2.514   0.829  0.00  0.00    +0.007 A 
ATOM     33  C   UNK A   0      -0.559  -1.137   0.766  0.00  0.00    +0.004 A 
ENDBRANCH  26  31
BRANCH  26  34
ATOM     34  C   UNK A   0      -1.645  -5.366  -0.113  0.00  0.00    -0.015 A 
ATOM     35  C   UNK A   0      -2.255  -5.388   1.127  0.00  0.00    +0.006 A 
ATOM     36  C   UNK A   0      -3.512  -5.947   1.269  0.00  0.00    +0.000 A 
ATOM     37  C   UNK A   0      -4.158  -6.483   0.171  0.00  0.00    +0.000 A 
ATOM     38  C   UNK A   0      -3.548  -6.459  -1.070  0.00  0.00    +0.000 A 
ATOM     39  C   UNK A   0      -2.293  -5.897  -1.212  0.00  0.00    +0.006 A 
ENDBRANCH  26  34
ENDBRANCH  25  26
ENDBRANCH  24  25
ENDBRANCH  21  24
ENDBRANCH   1  21
TORSDOF 15
