REMARK  Name = ZINC33821850
REMARK  15 active torsions:
REMARK  status: ('A' for Active; 'I' for Inactive)
REMARK    1  A    between atoms: C_1  and  C_2
REMARK    2  A    between atoms: C_2  and  O_38
REMARK    3  A    between atoms: C_5  and  C_27
REMARK    4  A    between atoms: C_7  and  C_17
REMARK    5  A    between atoms: C_9  and  C_11
REMARK    6  A    between atoms: C_11  and  O_13
REMARK    7  A    between atoms: O_13  and  C_14
REMARK    8  A    between atoms: C_14  and  C_15
REMARK    9  A    between atoms: C_20  and  C_23
REMARK   10  A    between atoms: C_23  and  C_24
REMARK   11  A    between atoms: C_23  and  C_25
REMARK   12  A    between atoms: C_23  and  C_26
REMARK   13  A    between atoms: C_27  and  O_29
REMARK   14  A    between atoms: O_29  and  C_30
REMARK   15  A    between atoms: C_30  and  C_31
REMARK                            x       y       z     vdW  Elec       q    Type
REMARK                         _______ _______ _______ _____ _____    ______ ____
ROOT
ATOM      1  C   UNL     1      -1.801   3.489  -0.871  0.00  0.00    +0.042 C 
ATOM      2  C   UNL     1      -0.368   4.018  -0.962  0.00  0.00    +0.080 C 
ATOM      3  C   UNL     1       0.228   3.648  -2.322  0.00  0.00    +0.079 C 
ATOM      4  C   UNL     1       1.663   4.159  -2.405  0.00  0.00    +0.116 C 
ATOM      5  C   UNL     1       2.512   3.559  -1.288  0.00  0.00    +0.145 C 
ATOM      6  C   UNL     1       1.908   3.930   0.068  0.00  0.00    +0.053 C 
ATOM      7  C   UNL     1       0.477   3.396   0.152  0.00  0.00    +0.137 C 
ATOM      8  N   UNL     1       1.688   5.625  -2.334  0.00  0.00    -0.306 N 
ATOM      9  C   UNL     1       2.227   6.060  -3.489  0.00  0.00    +0.146 C 
ATOM     10  S   UNL     1       2.467   7.710  -3.877  0.00  0.00    -0.018 S 
ATOM     11  N   UNL     1       2.553   5.041  -4.296  0.00  0.00    -0.260 N 
ATOM     12  N   UNL     1       2.245   3.840  -3.719  0.00  0.00    -0.217 NA
ATOM     13  H   UNL     1       1.303   6.139  -1.440  0.00  0.00    +0.150 HD
ATOM     14  H   UNL     1       3.007   5.070  -5.297  0.00  0.00    +0.168 HD
ATOM     15  H   UNL     1       3.069   3.265  -3.620  0.00  0.00    +0.147 HD
ENDROOT
BRANCH   6  16
ATOM     16  C   UNL     1       2.736   3.322   1.170  0.00  0.00    -0.042 A 
ATOM     17  C   UNL     1       2.134   2.923   2.348  0.00  0.00    +0.004 A 
ATOM     18  C   UNL     1       2.893   2.361   3.357  0.00  0.00    +0.004 A 
ATOM     19  C   UNL     1       4.257   2.207   3.192  0.00  0.00    -0.042 A 
ATOM     20  C   UNL     1       4.861   2.610   2.015  0.00  0.00    +0.004 A 
ATOM     21  C   UNL     1       4.100   3.168   1.004  0.00  0.00    +0.004 A 
BRANCH  19  22
ATOM     22  C   UNL     1       5.086   1.598   4.293  0.00  0.00    -0.013 C 
ATOM     23  C   UNL     1       6.147   2.603   4.747  0.00  0.00    +0.015 C 
ATOM     24  C   UNL     1       4.181   1.243   5.475  0.00  0.00    +0.015 C 
ATOM     25  C   UNL     1       5.771   0.332   3.776  0.00  0.00    +0.015 C 
ENDBRANCH  19  22
ENDBRANCH   6  16
BRANCH   7  26
ATOM     26  C   UNL     1       0.490   1.897  -0.007  0.00  0.00    +0.314 C 
ATOM     27  O   UNL     1       1.188   1.220   0.710  0.00  0.00    -0.250 OA
BRANCH  26  28
ATOM     28  O   UNL     1      -0.273   1.315  -0.946  0.00  0.00    -0.460 OA
BRANCH  28  29
ATOM     29  C   UNL     1      -0.284  -0.137  -0.979  0.00  0.00    +0.259 C 
BRANCH  29  30
ATOM     30  C   UNL     1      -1.287  -0.609  -1.999  0.00  0.00    +0.006 C 
ATOM     31  C   UNL     1      -0.971  -1.567  -2.835  0.00  0.00    +0.007 C 
ENDBRANCH  29  30
ENDBRANCH  28  29
ENDBRANCH  26  28
ENDBRANCH   7  26
BRANCH   5  32
ATOM     32  C   UNL     1       2.542   2.059  -1.431  0.00  0.00    +0.315 C 
ATOM     33  O   UNL     1       1.881   1.521  -2.288  0.00  0.00    -0.250 OA
BRANCH  32  34
ATOM     34  O   UNL     1       3.302   1.321  -0.607  0.00  0.00    -0.460 OA
BRANCH  34  35
ATOM     35  C   UNL     1       3.372  -0.104  -0.874  0.00  0.00    +0.259 C 
BRANCH  35  36
ATOM     36  C   UNL     1       4.193  -0.776   0.196  0.00  0.00    +0.006 C 
ATOM     37  C   UNL     1       3.773  -1.891   0.740  0.00  0.00    +0.007 C 
ENDBRANCH  35  36
ENDBRANCH  34  35
ENDBRANCH  32  34
ENDBRANCH   5  32
BRANCH   2  38
ATOM     38  O   UNL     1      -0.375   5.440  -0.816  0.00  0.00    -0.388 OA
ATOM     39  H   UNL     1       0.570   6.001  -0.854  0.00  0.00    +0.210 HD
ENDBRANCH   2  38
TORSDOF 11
