REMARK  Name = ZINC39655279
REMARK  8 active torsions:
REMARK  status: ('A' for Active; 'I' for Inactive)
REMARK    1  A    between atoms: C_4  and  N_7
REMARK    2  A    between atoms: N_7  and  C_8
REMARK    3  A    between atoms: C_8  and  C_9
REMARK    4  A    between atoms: C_9  and  N_10
REMARK    5  A    between atoms: C_11  and  C_13
REMARK    6  A    between atoms: C_24  and  C_26
REMARK    7  A    between atoms: C_26  and  C_27
REMARK    8  A    between atoms: C_27  and  C_28
REMARK                            x       y       z     vdW  Elec       q    Type
REMARK                         _______ _______ _______ _____ _____    ______ ____
ROOT
ATOM      1  C   UNL     1       6.312  -6.230  -0.093  0.00  0.00    +0.100 C 
ATOM      2  C   UNL     1       5.540  -6.773  -1.316  0.00  0.00    +0.121 C 
ATOM      3  N   UNL     1       6.581  -7.000  -2.345  0.00  0.00    -0.300 N 
ATOM      4  C   UNL     1       7.734  -7.547  -1.590  0.00  0.00    +0.115 C 
ATOM      5  C   UNL     1       7.751  -6.744  -0.274  0.00  0.00    -0.004 C 
ATOM      6  C   UNL     1       8.141  -7.647   0.891  0.00  0.00    -0.010 C 
ATOM      7  C   UNL     1       9.594  -8.098   0.718  0.00  0.00    -0.082 C 
ATOM      8  N   UNL     1      10.471  -6.921   0.670  0.00  0.00    +0.379 N 
ATOM      9  C   UNL     1      10.150  -6.105  -0.507  0.00  0.00    -0.082 C 
ATOM     10  C   UNL     1       8.720  -5.571  -0.386  0.00  0.00    -0.010 C 
ATOM     11  C   UNL     1       6.499  -6.764  -3.670  0.00  0.00    +0.216 C 
ATOM     12  O   UNL     1       7.446  -7.005  -4.389  0.00  0.00    -0.276 OA
ATOM     13  H   UNL     1      10.338  -6.370   1.505  0.00  0.00    -0.086 HD
ATOM     14  H   UNL     1      11.432  -7.222   0.618  0.00  0.00    -0.086 HD
ENDROOT
BRANCH   1  16
ATOM     15  N   UNL     1       6.370  -4.055   1.083  0.00  0.00    -0.314 N 
ATOM     16  C   UNL     1       6.290  -4.724  -0.085  0.00  0.00    +0.218 C 
ATOM     17  O   UNL     1       6.201  -4.113  -1.128  0.00  0.00    -0.275 OA
ATOM     18  H   UNL     1       6.441  -4.543   1.918  0.00  0.00    +0.149 HD
BRANCH  15  19
ATOM     19  C   UNL     1       6.348  -2.590   1.091  0.00  0.00    +0.123 C 
BRANCH  19  20
ATOM     20  C   UNL     1       6.451  -2.086   2.532  0.00  0.00    +0.120 C 
BRANCH  20  21
ATOM     21  N   UNL     1       6.429  -0.622   2.540  0.00  0.00    -0.342 N 
ATOM     22  H   UNL     1       6.357  -0.133   1.705  0.00  0.00    +0.146 HD
BRANCH  21  26
ATOM     23  C   UNL     1       6.673   1.444   6.147  0.00  0.00    +0.000 A 
ATOM     24  C   UNL     1       6.572   2.143   4.957  0.00  0.00    +0.002 A 
ATOM     25  C   UNL     1       6.491   1.460   3.759  0.00  0.00    +0.023 A 
ATOM     26  C   UNL     1       6.511   0.072   3.750  0.00  0.00    +0.027 A 
ATOM     27  C   UNL     1       6.613  -0.626   4.947  0.00  0.00    +0.023 A 
ATOM     28  C   UNL     1       6.694   0.062   6.141  0.00  0.00    +0.002 A 
ENDBRANCH  21  26
ENDBRANCH  20  21
ENDBRANCH  19  20
ENDBRANCH  15  19
ENDBRANCH   1  16
BRANCH  11  29
ATOM     29  C   UNL     1       5.231  -6.200  -4.257  0.00  0.00    +0.096 C 
BRANCH  29  30
ATOM     30  C   UNL     1       5.401  -6.029  -5.768  0.00  0.00    +0.013 C 
BRANCH  30  31
ATOM     31  C   UNL     1       4.113  -5.457  -6.364  0.00  0.00    -0.011 C 
ATOM     32  C   UNL     1       2.978  -6.497  -6.266  0.00  0.00    +0.003 C 
ATOM     33  C   UNL     1       2.177  -6.310  -7.579  0.00  0.00    +0.000 C 
ATOM     34  C   UNL     1       3.289  -6.033  -8.621  0.00  0.00    +0.000 C 
ATOM     35  C   UNL     1       4.311  -5.162  -7.862  0.00  0.00    +0.003 C 
ENDBRANCH  30  31
ENDBRANCH  29  30
ENDBRANCH  11  29
TORSDOF 8
