REMARK  Name = ZINC10021787
REMARK  6 active torsions:
REMARK  status: ('A' for Active; 'I' for Inactive)
REMARK    1  A    between atoms: C_1  and  C_2
REMARK    2  A    between atoms: C_2  and  C_16
REMARK    3  A    between atoms: N_3  and  N_4
REMARK    4  A    between atoms: C_5  and  C_7
REMARK    5  A    between atoms: C_9  and  N_14
REMARK    6  A    between atoms: C_19  and  N_22
REMARK                            x       y       z     vdW  Elec       q    Type
REMARK                         _______ _______ _______ _____ _____    ______ ____
ROOT
ATOM      1  N   UNL     1      -3.691  -1.004   0.015  0.00  0.00    -0.201 N 
ATOM      2  C   UNL     1      -3.676  -2.352   0.009  0.00  0.00    +0.281 C 
ATOM      3  O   UNL     1      -2.616  -2.948   0.000  0.00  0.00    -0.267 OA
ATOM      4  H   UNL     1      -4.536  -0.529   0.022  0.00  0.00    +0.178 HD
ENDROOT
BRANCH   2   5
ATOM      5  C   UNL     1      -4.949  -3.106   0.011  0.00  0.00    +0.125 A 
ATOM      6  C   UNL     1      -4.926  -4.498  -0.002  0.00  0.00    +0.091 A 
ATOM      7  C   UNL     1      -6.135  -5.194   0.005  0.00  0.00    +0.067 A 
ATOM      8  C   UNL     1      -7.321  -4.461   0.015  0.00  0.00    +0.098 A 
ATOM      9  C   UNL     1      -7.261  -3.077   0.022  0.00  0.00    +0.128 A 
ATOM     10 CL   UNL     1      -8.734  -2.157   0.035  0.00  0.00    -0.062 Cl
ATOM     11 CL   UNL     1      -8.855  -5.274   0.017  0.00  0.00    -0.079 Cl
ATOM     12 CL   UNL     1      -3.416  -5.354  -0.021  0.00  0.00    -0.079 Cl
ATOM     13  N   UNL     1      -6.103  -2.368   0.020  0.00  0.00    -0.339 N 
ATOM     14  H   UNL     1      -6.093  -1.341   0.026  0.00  0.00    +0.167 HD
BRANCH   7  15
ATOM     15  N   UNL     1      -6.157  -6.587  -0.002  0.00  0.00    -0.356 N 
ATOM     16  H   UNL     1      -7.005  -7.059  -0.001  0.00  0.00    +0.142 HD
ATOM     17  H   UNL     1      -5.325  -7.085  -0.009  0.00  0.00    +0.142 HD
ENDBRANCH   7  15
ENDBRANCH   2   5
BRANCH   1  20
ATOM     18  C   UNL     1      -3.813   1.747   0.030  0.00  0.00    +0.068 C 
ATOM     19  C   UNL     1      -2.500   1.008   0.020  0.00  0.00    +0.063 C 
ATOM     20  N   UNL     1      -2.486  -0.290   0.013  0.00  0.00    -0.184 NA
BRANCH  19  21
ATOM     21  C   UNL     1      -1.232   1.759   0.017  0.00  0.00    -0.002 A 
ATOM     22  C   UNL     1      -0.013   1.076   0.008  0.00  0.00    +0.012 A 
ATOM     23  C   UNL     1       1.171   1.782   0.001  0.00  0.00    +0.027 A 
ATOM     24  C   UNL     1       1.153   3.171   0.008  0.00  0.00    +0.047 A 
ATOM     25  C   UNL     1      -0.057   3.855   0.022  0.00  0.00    +0.027 A 
ATOM     26  C   UNL     1      -1.245   3.157   0.029  0.00  0.00    +0.012 A 
BRANCH  24  27
ATOM     27  N   UNL     1       2.358   3.885   0.001  0.00  0.00    -0.306 N 
ATOM     28  C   UNL     1       2.498   5.250   0.001  0.00  0.00    +0.112 A 
ATOM     29  C   UNL     1       3.819   5.506  -0.005  0.00  0.00    +0.130 A 
ATOM     30  N   UNL     1       4.473   4.335  -0.017  0.00  0.00    -0.244 NA
ATOM     31  C   UNL     1       3.610   3.357  -0.014  0.00  0.00    +0.204 A 
ENDBRANCH  24  27
ENDBRANCH  19  21
ENDBRANCH   1  20
TORSDOF 5
