REMARK  Name = ZINC08675058
REMARK  2 active torsions:
REMARK  status: ('A' for Active; 'I' for Inactive)
REMARK    1  A    between atoms: C_3  and  C_6
REMARK    2  A    between atoms: N_16  and  C_17
REMARK                            x       y       z     vdW  Elec       q    Type
REMARK                         _______ _______ _______ _____ _____    ______ ____
ROOT
ATOM      1  C   UNL     1      -0.674  -0.400   2.432  0.00  0.00    +0.282 C 
ATOM      2  O   UNL     1      -0.518  -1.598   2.571  0.00  0.00    -0.267 OA
ATOM      3  N   UNL     1      -0.360   0.189   1.261  0.00  0.00    -0.292 N 
ATOM      4  C   UNL     1       0.020  -0.621   0.095  0.00  0.00    +0.127 C 
ATOM      5  C   UNL     1      -0.897  -0.256  -1.079  0.00  0.00    +0.128 C 
ATOM      6  N   UNL     1      -0.929   1.207  -1.214  0.00  0.00    -0.282 N 
ATOM      7  C   UNL     1      -1.313   2.017  -0.049  0.00  0.00    +0.128 C 
ATOM      8  C   UNL     1      -0.396   1.652   1.125  0.00  0.00    +0.127 C 
ATOM      9  C   UNL     1      -0.612   1.795  -2.384  0.00  0.00    +0.307 C 
ATOM     10  O   UNL     1      -0.221   1.121  -3.317  0.00  0.00    -0.252 OA
ATOM     11  N   UNL     1      -0.729   3.131  -2.520  0.00  0.00    -0.267 N 
ATOM     12  H   UNL     1      -1.114   3.660  -1.803  0.00  0.00    +0.156 HD
ENDROOT
BRANCH  11  13
ATOM     13  C   UNL     1      -0.293   3.756  -3.696  0.00  0.00    +0.073 A 
ATOM     14  C   UNL     1       0.396   3.029  -4.656  0.00  0.00    +0.029 A 
ATOM     15  C   UNL     1       0.821   3.644  -5.818  0.00  0.00    +0.043 A 
ATOM     16  C   UNL     1       0.568   4.990  -6.022  0.00  0.00    +0.161 A 
ATOM     17  C   UNL     1      -0.115   5.723  -5.064  0.00  0.00    +0.195 A 
ATOM     18  C   UNL     1      -0.547   5.108  -3.901  0.00  0.00    +0.182 A 
ATOM     19  F   UNL     1      -1.214   5.820  -2.966  0.00  0.00    -0.200 F 
ATOM     20  F   UNL     1      -0.360   7.036  -5.265  0.00  0.00    -0.199 F 
ATOM     21  F   UNL     1       0.989   5.590  -7.157  0.00  0.00    -0.202 F 
ENDBRANCH  11  13
BRANCH   1  24
ATOM     22  C   UNL     1      -2.072   1.037   5.483  0.00  0.00    +0.042 A 
ATOM     23  C   UNL     1      -1.666  -0.075   4.730  0.00  0.00    +0.054 A 
ATOM     24  C   UNL     1      -1.204   0.405   3.538  0.00  0.00    +0.189 A 
ATOM     25  O   UNL     1      -1.316   1.749   3.558  0.00  0.00    -0.458 OA
ATOM     26  C   UNL     1      -1.844   2.134   4.727  0.00  0.00    +0.196 A 
ENDBRANCH   1  24
TORSDOF 2
