REMARK  Name = ZINC67298395
REMARK  4 active torsions:
REMARK  status: ('A' for Active; 'I' for Inactive)
REMARK    1  A    between atoms: C_1  and  C_2
REMARK    2  A    between atoms: C_3  and  N_9
REMARK    3  A    between atoms: C_11  and  C_21
REMARK    4  A    between atoms: C_16  and  O_20
REMARK                            x       y       z     vdW  Elec       q    Type
REMARK                         _______ _______ _______ _____ _____    ______ ____
ROOT
ATOM      1  N   UNL     1       0.170   0.068  -2.380  0.00  0.00    -0.325 N 
ATOM      2  C   UNL     1       0.204  -0.617  -3.503  0.00  0.00    +0.212 A 
ATOM      3  C   UNL     1       0.216   0.064  -4.813  0.00  0.00    +0.097 A 
ATOM      4  C   UNL     1       0.776  -0.620  -5.883  0.00  0.00    +0.030 A 
ATOM      5  C   UNL     1       1.267  -1.931  -5.656  0.00  0.00    +0.018 A 
ATOM      6  C   UNL     1       2.019  -2.587  -6.642  0.00  0.00    +0.015 A 
ATOM      7  C   UNL     1       2.521  -3.831  -6.398  0.00  0.00    +0.046 A 
ATOM      8  C   UNL     1       2.287  -4.461  -5.176  0.00  0.00    +0.120 A 
ATOM      9  C   UNL     1       1.530  -3.836  -4.197  0.00  0.00    +0.092 A 
ATOM     10  C   UNL     1       1.006  -2.576  -4.432  0.00  0.00    +0.141 A 
ATOM     11  O   UNL     1       0.234  -1.974  -3.498  0.00  0.00    -0.438 OA
ATOM     12  H   UNL     1       0.241   1.035  -2.400  0.00  0.00    +0.169 HD
ENDROOT
BRANCH   1  15
ATOM     13  C   UNL     1       2.012   0.708  -0.312  0.00  0.00    +0.047 C 
ATOM     14  C   UNL     1       0.914  -0.309  -0.134  0.00  0.00    -0.009 A 
ATOM     15  C   UNL     1       0.036  -0.584  -1.186  0.00  0.00    +0.046 A 
ATOM     16  C   UNL     1      -0.979  -1.528  -1.011  0.00  0.00    +0.026 A 
ATOM     17  C   UNL     1      -1.109  -2.182   0.196  0.00  0.00    +0.003 A 
ATOM     18  C   UNL     1      -0.237  -1.905   1.234  0.00  0.00    +0.020 A 
ATOM     19  C   UNL     1       0.776  -0.975   1.067  0.00  0.00    +0.046 A 
ATOM     20 CL   UNL     1       1.869  -0.641   2.373  0.00  0.00    -0.083 Cl
ENDBRANCH   1  15
BRANCH   3  21
ATOM     21  C   UNL     1      -0.344   1.415  -4.978  0.00  0.00    +0.247 C 
ATOM     22  O   UNL     1      -0.822   1.996  -4.022  0.00  0.00    -0.270 OA
ATOM     23  N   UNL     1      -0.327   2.009  -6.188  0.00  0.00    -0.325 N 
ATOM     24  H   UNL     1       0.105   1.570  -6.937  0.00  0.00    +0.145 HD
ATOM     25  H   UNL     1      -0.748   2.874  -6.309  0.00  0.00    +0.145 HD
ENDBRANCH   3  21
BRANCH   8  26
ATOM     26  O   UNL     1       2.804  -5.694  -4.944  0.00  0.00    -0.507 OA
ATOM     27  H   UNL     1       3.686  -5.683  -4.546  0.00  0.00    +0.292 HD
ENDBRANCH   8  26
TORSDOF 3
