REMARK  Name = ZINC35035598
REMARK  5 active torsions:
REMARK  status: ('A' for Active; 'I' for Inactive)
REMARK    1  A    between atoms: C_1  and  C_2
REMARK    2  A    between atoms: C_2  and  C_4
REMARK    3  A    between atoms: C_2  and  N_17
REMARK    4  A    between atoms: N_14  and  C_15
REMARK    5  A    between atoms: C_23  and  C_25
REMARK                            x       y       z     vdW  Elec       q    Type
REMARK                         _______ _______ _______ _____ _____    ______ ____
ROOT
ATOM      1  C   UNL     1       0.078   1.417   0.538  0.00  0.00    +0.032 C 
ATOM      2  C   UNL     1       0.046  -0.109   0.424  0.00  0.00    +0.120 C 
ENDROOT
BRANCH   2   3
ATOM      3  C   UNL     1      -1.384  -0.577   0.339  0.00  0.00    +0.130 A 
ATOM      4  N   UNL     1      -2.326   0.262   0.648  0.00  0.00    -0.232 NA
ATOM      5  C   UNL     1      -3.635  -0.088   0.595  0.00  0.00    +0.080 A 
ATOM      6  C   UNL     1      -4.650   0.812   0.926  0.00  0.00    +0.048 A 
ATOM      7  C   UNL     1      -5.966   0.408   0.855  0.00  0.00    +0.043 A 
ATOM      8  C   UNL     1      -6.294  -0.883   0.459  0.00  0.00    +0.021 A 
ATOM      9  C   UNL     1      -5.317  -1.782   0.131  0.00  0.00    +0.017 A 
ATOM     10  C   UNL     1      -3.979  -1.398   0.193  0.00  0.00    +0.065 A 
ATOM     11  C   UNL     1      -2.888  -2.323  -0.150  0.00  0.00    +0.262 A 
ATOM     12  O   UNL     1      -3.115  -3.465  -0.504  0.00  0.00    -0.267 OA
ATOM     13  N   UNL     1      -1.622  -1.853  -0.062  0.00  0.00    -0.298 N 
ATOM     14  C   UNL     1      -0.497  -2.730  -0.397  0.00  0.00    +0.154 C 
ATOM     15 CL   UNL     1      -7.229   1.526   1.267  0.00  0.00    -0.083 Cl
ENDBRANCH   2   3
BRANCH   2  16
ATOM     16  N   UNL     1       0.686  -0.702   1.606  0.00  0.00    -0.290 NA
ATOM     17  C   UNL     1      -0.003  -0.293   2.838  0.00  0.00    +0.104 C 
ATOM     18  C   UNL     1       0.576  -1.070   4.025  0.00  0.00    +0.123 C 
ATOM     19  N   UNL     1       2.035  -0.885   4.037  0.00  0.00    -0.299 N 
ATOM     20  C   UNL     1       2.780  -1.143   2.796  0.00  0.00    +0.123 C 
ATOM     21  C   UNL     1       2.114  -0.363   1.657  0.00  0.00    +0.104 C 
ATOM     22  C   UNL     1       2.673  -0.489   5.157  0.00  0.00    +0.219 C 
ATOM     23  O   UNL     1       2.042  -0.281   6.172  0.00  0.00    -0.275 OA
BRANCH  22  24
ATOM     24  C   UNL     1       4.168  -0.305   5.147  0.00  0.00    +0.075 C 
ATOM     25  C   UNL     1       4.864  -1.651   4.855  0.00  0.00    +0.013 C 
ATOM     26  C   UNL     1       6.131  -1.625   5.745  0.00  0.00    +0.001 C 
ATOM     27  C   UNL     1       5.626  -0.939   7.039  0.00  0.00    +0.001 C 
ATOM     28  C   UNL     1       4.653   0.147   6.536  0.00  0.00    +0.013 C 
ENDBRANCH  22  24
ENDBRANCH   2  16
TORSDOF 3
