REMARK  Name = ZINC58703602
REMARK  9 active torsions:
REMARK  status: ('A' for Active; 'I' for Inactive)
REMARK    1  A    between atoms: C_1  and  C_2
REMARK    2  A    between atoms: C_2  and  C_3
REMARK    3  A    between atoms: C_2  and  C_4
REMARK    4  A    between atoms: C_2  and  N_17
REMARK    5  A    between atoms: C_4  and  N_5
REMARK    6  A    between atoms: C_6  and  C_8
REMARK    7  A    between atoms: C_8  and  C_9
REMARK    8  A    between atoms: C_9  and  C_10
REMARK    9  A    between atoms: C_15  and  O_16
REMARK                            x       y       z     vdW  Elec       q    Type
REMARK                         _______ _______ _______ _____ _____    ______ ____
ROOT
ATOM      1  C   UNL     1      -1.523  -0.094   0.078  0.00  0.00    +0.092 C 
ENDROOT
BRANCH   1   2
ATOM      2  N   UNL     1      -1.928  -1.502   0.115  0.00  0.00    -0.317 N 
ATOM      3  C   UNL     1      -3.235  -1.826   0.182  0.00  0.00    +0.213 C 
ATOM      4  O   UNL     1      -4.075  -0.952   0.213  0.00  0.00    -0.276 OA
ATOM      5  H   UNL     1      -1.256  -2.201   0.090  0.00  0.00    +0.149 HD
BRANCH   3   6
ATOM      6  C   UNL     1      -3.651  -3.274   0.220  0.00  0.00    +0.100 C 
BRANCH   6   7
ATOM      7  C   UNL     1      -5.176  -3.364   0.296  0.00  0.00    +0.048 C 
BRANCH   7   8
ATOM      8  C   UNL     1      -5.592  -4.812   0.334  0.00  0.00    -0.005 A 
ATOM      9  C   UNL     1      -5.936  -5.463  -0.836  0.00  0.00    +0.007 A 
ATOM     10  C   UNL     1      -6.319  -6.791  -0.802  0.00  0.00    +0.000 A 
ATOM     11  C   UNL     1      -6.358  -7.471   0.402  0.00  0.00    +0.004 A 
ATOM     12  C   UNL     1      -6.014  -6.825   1.573  0.00  0.00    +0.045 A 
ATOM     13  C   UNL     1      -5.625  -5.494   1.541  0.00  0.00    +0.120 A 
BRANCH  13  14
ATOM     14  O   UNL     1      -5.281  -4.857   2.692  0.00  0.00    -0.506 OA
ATOM     15  H   UNL     1      -6.023  -4.428   3.140  0.00  0.00    +0.292 HD
ENDBRANCH  13  14
ENDBRANCH   7   8
ENDBRANCH   6   7
ENDBRANCH   3   6
ENDBRANCH   1   2
BRANCH   1  17
ATOM     16  C   UNL     1       0.425   1.466  -0.036  0.00  0.00    -0.008 C 
ATOM     17  C   UNL     1       0.002  -0.004   0.002  0.00  0.00    -0.055 C 
ATOM     18  C   UNL     1       0.615  -0.679   1.231  0.00  0.00    -0.008 C 
BRANCH  17  19
ATOM     19  N   UNL     1       0.473  -0.681  -1.214  0.00  0.00    +0.387 N 
ATOM     20  C   UNL     1       1.927  -0.503  -1.345  0.00  0.00    -0.073 C 
ATOM     21  C   UNL     1       2.439  -1.456  -2.426  0.00  0.00    +0.017 C 
ATOM     22  C   UNL     1       1.615  -1.297  -3.678  0.00  0.00    -0.048 A 
ATOM     23  C   UNL     1       2.113  -1.800  -4.870  0.00  0.00    +0.004 A 
ATOM     24  C   UNL     1       1.385  -1.676  -6.036  0.00  0.00    +0.000 A 
ATOM     25  C   UNL     1       0.153  -1.047  -6.014  0.00  0.00    +0.000 A 
ATOM     26  C   UNL     1      -0.342  -0.545  -4.828  0.00  0.00    +0.002 A 
ATOM     27  C   UNL     1       0.389  -0.667  -3.656  0.00  0.00    -0.061 A 
ATOM     28  C   UNL     1      -0.186  -0.097  -2.386  0.00  0.00    -0.042 C 
ATOM     29  H   UNL     1       0.255  -1.664  -1.159  0.00  0.00    -0.080 HD
ENDBRANCH  17  19
ENDBRANCH   1  17
TORSDOF 7
