REMARK  Name = ZINC05731690
REMARK  3 active torsions:
REMARK  status: ('A' for Active; 'I' for Inactive)
REMARK    1  A    between atoms: N_8  and  N_9
REMARK    2  A    between atoms: N_15  and  C_16
REMARK    3  A    between atoms: C_16  and  C_17
REMARK                            x       y       z     vdW  Elec       q    Type
REMARK                         _______ _______ _______ _____ _____    ______ ____
ROOT
ATOM      1  C   UNL     1       0.047   1.318   0.763  0.00  0.00    +0.001 A 
ATOM      2  C   UNL     1       1.229   2.035   0.675  0.00  0.00    +0.002 A 
ATOM      3  C   UNL     1       2.418   1.397   0.384  0.00  0.00    +0.024 A 
ATOM      4  C   UNL     1       2.439   0.022   0.175  0.00  0.00    +0.046 A 
ATOM      5  C   UNL     1       1.242  -0.698   0.265  0.00  0.00    +0.028 A 
ATOM      6  C   UNL     1       0.050  -0.047   0.559  0.00  0.00    +0.012 A 
ATOM      7  C   UNL     1       1.585  -2.115  -0.003  0.00  0.00    +0.153 C 
ATOM      8  N   UNL     1       0.772  -3.143  -0.023  0.00  0.00    -0.173 NA
ATOM      9  C   UNL     1       3.042  -2.115  -0.244  0.00  0.00    +0.272 C 
ATOM     10  O   UNL     1       3.725  -3.088  -0.501  0.00  0.00    -0.268 OA
ATOM     11  N   UNL     1       3.480  -0.850  -0.127  0.00  0.00    -0.261 N 
ENDROOT
BRANCH   8  12
ATOM     12  N   UNL     1      -0.610  -2.946   0.096  0.00  0.00    -0.190 N 
ATOM     13  C   UNL     1      -1.435  -4.007   0.200  0.00  0.00    +0.317 C 
ATOM     14  O   UNL     1      -2.634  -3.836   0.303  0.00  0.00    -0.251 OA
ATOM     15  N   UNL     1      -0.931  -5.256   0.188  0.00  0.00    -0.312 N 
ATOM     16  H   UNL     1      -0.973  -2.047   0.105  0.00  0.00    +0.179 HD
ATOM     17  H   UNL     1       0.026  -5.393   0.105  0.00  0.00    +0.147 HD
ATOM     18  H   UNL     1      -1.525  -6.020   0.262  0.00  0.00    +0.147 HD
ENDBRANCH   8  12
BRANCH  11  19
ATOM     19  C   UNL     1       4.876  -0.441  -0.297  0.00  0.00    +0.149 C 
BRANCH  19  20
ATOM     20  C   UNL     1       5.584  -0.507   1.032  0.00  0.00    -0.030 A 
ATOM     21  C   UNL     1       5.598   0.597   1.863  0.00  0.00    +0.008 A 
ATOM     22  C   UNL     1       6.247   0.538   3.082  0.00  0.00    +0.038 A 
ATOM     23  C   UNL     1       6.883  -0.629   3.470  0.00  0.00    +0.123 A 
ATOM     24  C   UNL     1       6.869  -1.735   2.637  0.00  0.00    +0.038 A 
ATOM     25  C   UNL     1       6.215  -1.674   1.421  0.00  0.00    +0.008 A 
ATOM     26  F   UNL     1       7.518  -0.688   4.661  0.00  0.00    -0.205 F 
ENDBRANCH  19  20
ENDBRANCH  11  19
TORSDOF 3
