REMARK  Name = ZINC32952264
REMARK  14 active torsions:
REMARK  status: ('A' for Active; 'I' for Inactive)
REMARK    1  A    between atoms: C_1  and  C_2
REMARK    2  A    between atoms: C_2  and  N_3
REMARK    3  A    between atoms: N_3  and  C_4
REMARK    4  A    between atoms: N_3  and  C_6
REMARK    5  A    between atoms: C_4  and  C_5
REMARK    6  A    between atoms: C_6  and  C_7
REMARK    7  A    between atoms: C_7  and  C_8
REMARK    8  A    between atoms: C_8  and  N_9
REMARK    9  A    between atoms: C_10  and  N_27
REMARK   10  A    between atoms: C_11  and  C_15
REMARK   11  A    between atoms: N_17  and  C_18
REMARK   12  A    between atoms: C_23  and  O_24
REMARK   13  A    between atoms: O_24  and  C_25
REMARK   14  A    between atoms: C_25  and  C_26
REMARK                            x       y       z     vdW  Elec       q    Type
REMARK                         _______ _______ _______ _____ _____    ______ ____
ROOT
ATOM      1  N   UNL     1      -1.188   2.571  -0.035  0.00  0.00    -0.317 N 
ATOM      2  C   UNL     1      -0.973   3.902  -0.028  0.00  0.00    +0.117 A 
ATOM      3  C   UNL     1       0.329   4.340  -0.062  0.00  0.00    +0.114 A 
ATOM      4  S   UNL     1       1.223   2.795  -0.096  0.00  0.00    -0.055 S 
ATOM      5  C   UNL     1      -0.139   1.721  -0.063  0.00  0.00    +0.128 A 
ATOM      6  S   UNL     1      -0.149   0.009  -0.071  0.00  0.00    -0.025 S 
ENDROOT
BRANCH   3   7
ATOM      7  C   UNL     1       0.826   5.660  -0.070  0.00  0.00    +0.258 C 
ATOM      8  O   UNL     1       0.054   6.603  -0.044  0.00  0.00    -0.269 OA
ATOM      9  N   UNL     1       2.156   5.879  -0.107  0.00  0.00    -0.278 N 
ATOM     10  H   UNL     1       2.854   5.031  -0.057  0.00  0.00    +0.155 HD
BRANCH   9  11
ATOM     11  C   UNL     1       2.648   7.187  -0.208  0.00  0.00    +0.076 A 
ATOM     12  C   UNL     1       1.978   8.232   0.411  0.00  0.00    +0.027 A 
ATOM     13  C   UNL     1       2.469   9.520   0.314  0.00  0.00    +0.002 A 
ATOM     14  C   UNL     1       3.620   9.773  -0.409  0.00  0.00    +0.004 A 
ATOM     15  C   UNL     1       4.290   8.737  -1.033  0.00  0.00    +0.047 A 
ATOM     16  C   UNL     1       3.808   7.442  -0.936  0.00  0.00    +0.142 A 
BRANCH  16  17
ATOM     17  O   UNL     1       4.465   6.422  -1.551  0.00  0.00    -0.490 OA
BRANCH  17  18
ATOM     18  C   UNL     1       5.647   6.758  -2.280  0.00  0.00    +0.226 C 
ATOM     19  C   UNL     1       6.243   5.492  -2.897  0.00  0.00    +0.048 C 
ENDBRANCH  17  18
ENDBRANCH  16  17
ENDBRANCH   9  11
ENDBRANCH   3   7
BRANCH   2  20
ATOM     20  N   UNL     1      -2.023   4.792   0.006  0.00  0.00    -0.343 N 
ATOM     21  H   UNL     1      -1.827   5.875   0.011  0.00  0.00    +0.144 HD
ATOM     22  H   UNL     1      -3.058   4.421   0.029  0.00  0.00    +0.144 HD
ENDBRANCH   2  20
BRANCH   1  23
ATOM     23  C   UNL     1      -2.556   2.047  -0.007  0.00  0.00    +0.123 C 
BRANCH  23  24
ATOM     24  C   UNL     1      -3.000   1.859   1.445  0.00  0.00    +0.003 C 
BRANCH  24  25
ATOM     25  C   UNL     1      -4.429   1.312   1.474  0.00  0.00    -0.077 C 
BRANCH  25  26
ATOM     26  N   UNL     1      -4.855   1.131   2.868  0.00  0.00    +0.379 N 
ATOM     27  H   UNL     1      -4.087   0.535   3.382  0.00  0.00    -0.082 HD
BRANCH  26  29
ATOM     28  C   UNL     1      -6.073   3.255   2.917  0.00  0.00    -0.017 C 
ATOM     29  C   UNL     1      -4.961   2.423   3.559  0.00  0.00    -0.082 C 
ENDBRANCH  26  29
BRANCH  26  30
ATOM     30  C   UNL     1      -6.122   0.391   2.939  0.00  0.00    -0.082 C 
ATOM     31  C   UNL     1      -6.345  -0.103   4.370  0.00  0.00    -0.017 C 
ENDBRANCH  26  30
ENDBRANCH  25  26
ENDBRANCH  24  25
ENDBRANCH  23  24
ENDBRANCH   1  23
TORSDOF 11
