REMARK  Name = ZINC60332774
REMARK  12 active torsions:
REMARK  status: ('A' for Active; 'I' for Inactive)
REMARK    1  A    between atoms: C_1  and  C_2
REMARK    2  A    between atoms: C_2  and  C_3
REMARK    3  A    between atoms: C_3  and  N_4
REMARK    4  A    between atoms: C_5  and  C_7
REMARK    5  A    between atoms: C_11  and  C_13
REMARK    6  A    between atoms: C_13  and  N_14
REMARK    7  A    between atoms: N_14  and  C_15
REMARK    8  A    between atoms: C_15  and  C_16
REMARK    9  A    between atoms: C_20  and  O_23
REMARK   10  A    between atoms: C_21  and  O_22
REMARK   11  A    between atoms: O_23  and  C_24
REMARK   12  A    between atoms: C_24  and  C_25
REMARK                            x       y       z     vdW  Elec       q    Type
REMARK                         _______ _______ _______ _____ _____    ______ ____
ROOT
ATOM      1  N   UNL     1       4.096  -7.185   4.039  0.00  0.00    +0.384 N 
ATOM      2  H   UNL     1       4.159  -7.722   3.187  0.00  0.00    -0.085 HD
ATOM      3  H   UNL     1       4.558  -6.297   3.911  0.00  0.00    -0.085 HD
ENDROOT
BRANCH   1   4
ATOM      4  C   UNL     1       2.684  -6.959   4.372  0.00  0.00    -0.046 C 
BRANCH   4   9
ATOM      5  C   UNL     1       1.384  -4.125   2.227  0.00  0.00    +0.037 A 
ATOM      6  C   UNL     1       0.785  -4.829   1.180  0.00  0.00    +0.013 A 
ATOM      7  C   UNL     1       0.808  -6.208   1.179  0.00  0.00    +0.001 A 
ATOM      8  C   UNL     1       1.422  -6.894   2.211  0.00  0.00    +0.002 A 
ATOM      9  C   UNL     1       2.018  -6.203   3.251  0.00  0.00    -0.064 A 
ATOM     10  C   UNL     1       2.007  -4.824   3.262  0.00  0.00    +0.014 A 
BRANCH   5  12
ATOM     11  N   UNL     1       0.762  -1.976   1.234  0.00  0.00    -0.311 N 
ATOM     12  C   UNL     1       1.364  -2.647   2.235  0.00  0.00    +0.244 C 
ATOM     13  O   UNL     1       1.891  -2.037   3.145  0.00  0.00    -0.270 OA
ATOM     14  H   UNL     1       0.342  -2.462   0.507  0.00  0.00    +0.149 HD
BRANCH  11  15
ATOM     15  C   UNL     1       0.742  -0.511   1.242  0.00  0.00    +0.104 C 
BRANCH  15  17
ATOM     16  C   UNL     1      -0.019   1.526   0.010  0.00  0.00    +0.005 C 
ATOM     17  C   UNL     1       0.002  -0.004   0.002  0.00  0.00    +0.015 C 
ENDBRANCH  15  17
ENDBRANCH  11  15
ENDBRANCH   5  12
ENDBRANCH   4   9
ENDBRANCH   1   4
BRANCH   1  18
ATOM     18  C   UNL     1       4.746  -7.921   5.131  0.00  0.00    -0.043 C 
BRANCH  18  19
ATOM     19  C   UNL     1       6.195  -8.153   4.789  0.00  0.00    -0.019 A 
ATOM     20  C   UNL     1       6.600  -9.377   4.289  0.00  0.00    +0.005 A 
ATOM     21  C   UNL     1       7.929  -9.593   3.974  0.00  0.00    +0.004 A 
ATOM     22  C   UNL     1       8.858  -8.586   4.158  0.00  0.00    +0.049 A 
ATOM     23  C   UNL     1       8.459  -7.358   4.658  0.00  0.00    +0.162 A 
ATOM     24  C   UNL     1       7.120  -7.138   4.970  0.00  0.00    +0.160 A 
BRANCH  24  25
ATOM     25  O   UNL     1       6.723  -5.932   5.456  0.00  0.00    -0.503 OA
ATOM     26  H   UNL     1       6.757  -5.866   6.420  0.00  0.00    +0.292 HD
ENDBRANCH  24  25
BRANCH  23  27
ATOM     27  O   UNL     1       9.372  -6.366   4.840  0.00  0.00    -0.489 OA
BRANCH  27  28
ATOM     28  C   UNL     1      10.727  -6.661   4.493  0.00  0.00    +0.226 C 
ATOM     29  C   UNL     1      11.601  -5.434   4.763  0.00  0.00    +0.048 C 
ENDBRANCH  27  28
ENDBRANCH  23  27
ENDBRANCH  18  19
ENDBRANCH   1  18
TORSDOF 10
