REMARK  Name = ZINC12196999
REMARK  9 active torsions:
REMARK  status: ('A' for Active; 'I' for Inactive)
REMARK    1  A    between atoms: C_1  and  N_67
REMARK    2  A    between atoms: C_8  and  C_10
REMARK    3  A    between atoms: C_13  and  S_26
REMARK    4  A    between atoms: C_16  and  C_17
REMARK    5  A    between atoms: C_16  and  N_69
REMARK    6  A    between atoms: C_18  and  C_19
REMARK    7  A    between atoms: S_26  and  C_27
REMARK    8  A    between atoms: C_30  and  O_33
REMARK    9  A    between atoms: O_33  and  C_34
REMARK                            x       y       z     vdW  Elec       q    Type
REMARK                         _______ _______ _______ _____ _____    ______ ____
ROOT
ATOM      1  C   UNL     1      -0.867  -2.099   1.043  0.00  0.00    +0.021 C 
ATOM      2  C   UNL     1      -1.012  -2.183   2.578  0.00  0.00    +0.006 C 
ATOM      3  C   UNL     1      -0.165  -1.015   3.124  0.00  0.00    +0.034 C 
ATOM      4  C   UNL     1       0.421  -0.325   1.874  0.00  0.00    -0.063 C 
ATOM      5  N   UNL     1      -0.513  -0.701   0.807  0.00  0.00    +0.391 N 
ATOM      6  H   UNL     1      -1.354  -0.114   0.852  0.00  0.00    -0.080 HD
ENDROOT
BRANCH   1  14
ATOM      7  C   UNL     1      -4.102  -5.748   3.600  0.00  0.00    -0.096 C 
ATOM      8  C   UNL     1      -4.927  -5.157   1.407  0.00  0.00    -0.078 C 
ATOM      9  C   UNL     1      -4.982  -4.023   0.464  0.00  0.00    +0.000 C 
ATOM     10  C   UNL     1      -3.747  -4.059  -0.470  0.00  0.00    +0.106 C 
ATOM     11  N   UNL     1      -2.557  -3.741   0.290  0.00  0.00    -0.305 N 
ATOM     12  C   UNL     1      -1.746  -4.767   0.979  0.00  0.00    +0.089 C 
ATOM     13  C   UNL     1      -2.641  -5.804   1.692  0.00  0.00    -0.060 C 
ATOM     14  C   UNL     1      -2.168  -2.453   0.370  0.00  0.00    +0.202 C 
ATOM     15  O   UNL     1      -2.865  -1.579  -0.101  0.00  0.00    -0.277 OA
ATOM     16  N   UNL     1      -3.764  -5.115   2.310  0.00  0.00    +0.379 N 
ATOM     17  H   UNL     1      -3.504  -4.136   2.477  0.00  0.00    -0.082 HD
ENDBRANCH   1  14
BRANCH   5  18
ATOM     18  C   UNL     1       0.131  -0.535  -0.535  0.00  0.00    -0.029 C 
BRANCH  18  19
ATOM     19  C   UNL     1       0.250   0.927  -0.877  0.00  0.00    +0.003 C 
ATOM     20  C   UNL     1       1.448   1.488  -0.985  0.00  0.00    +0.021 C 
ATOM     21 CL   UNL     1      -1.180   1.877  -1.136  0.00  0.00    -0.090 Cl
BRANCH  20  22
ATOM     22  C   UNL     1       1.572   2.878  -1.472  0.00  0.00    -0.024 A 
ATOM     23  C   UNL     1       0.683   3.366  -2.431  0.00  0.00    +0.008 A 
ATOM     24  C   UNL     1       0.801   4.667  -2.877  0.00  0.00    +0.001 A 
ATOM     25  C   UNL     1       1.804   5.482  -2.385  0.00  0.00    +0.000 A 
ATOM     26  C   UNL     1       2.692   5.002  -1.439  0.00  0.00    +0.001 A 
ATOM     27  C   UNL     1       2.582   3.706  -0.980  0.00  0.00    +0.008 A 
ENDBRANCH  20  22
ENDBRANCH  18  19
ENDBRANCH   5  18
BRANCH   3  28
ATOM     28  S   UNL     1       1.168  -1.645   4.181  0.00  0.00    -0.124 S 
BRANCH  28  29
ATOM     29  C   UNL     1       1.926  -0.190   4.824  0.00  0.00    +0.008 A 
ATOM     30  C   UNL     1       1.447   1.062   4.461  0.00  0.00    +0.018 A 
ATOM     31  C   UNL     1       2.038   2.201   4.969  0.00  0.00    +0.047 A 
ATOM     32  C   UNL     1       3.118   2.096   5.834  0.00  0.00    +0.120 A 
ATOM     33  C   UNL     1       3.600   0.847   6.194  0.00  0.00    +0.047 A 
ATOM     34  C   UNL     1       3.007  -0.294   5.691  0.00  0.00    +0.018 A 
BRANCH  32  35
ATOM     35  O   UNL     1       3.702   3.219   6.331  0.00  0.00    -0.495 OA
ATOM     36  C   UNL     1       3.154   4.473   5.918  0.00  0.00    +0.277 C 
ENDBRANCH  32  35
ENDBRANCH  28  29
ENDBRANCH   3  28
TORSDOF 7
