REMARK  Name = ZINC08635761
REMARK  10 active torsions:
REMARK  status: ('A' for Active; 'I' for Inactive)
REMARK    1  A    between atoms: C_1  and  N_52
REMARK    2  A    between atoms: C_2  and  C_3
REMARK    3  A    between atoms: C_2  and  N_52
REMARK    4  A    between atoms: C_5  and  C_6
REMARK    5  A    between atoms: C_5  and  N_52
REMARK    6  A    between atoms: C_14  and  C_16
REMARK    7  A    between atoms: C_16  and  N_17
REMARK    8  A    between atoms: N_17  and  C_18
REMARK    9  A    between atoms: C_18  and  N_20
REMARK   10  A    between atoms: N_20  and  C_21
REMARK                            x       y       z     vdW  Elec       q    Type
REMARK                         _______ _______ _______ _____ _____    ______ ____
ROOT
ATOM      1  C   UNL     1       2.717  -0.287   0.070  0.00  0.00    -0.041 C 
ATOM      2  C   UNL     1       1.304  -0.721  -0.333  0.00  0.00    -0.076 C 
ATOM      3  C   UNL     1       0.369   1.347   0.515  0.00  0.00    -0.078 C 
ATOM      4  C   UNL     1       1.755   1.839   0.943  0.00  0.00    -0.015 C 
ATOM      5  C   UNL     1       2.623   0.625   1.299  0.00  0.00    -0.015 C 
ATOM      6  C   UNL     1       1.939  -0.149   2.433  0.00  0.00    -0.010 C 
ATOM      7  C   UNL     1       0.548  -0.587   1.964  0.00  0.00    -0.051 C 
ATOM      8  N   UNL     1       0.303  -0.129   0.580  0.00  0.00    +0.383 N 
ATOM      9  H   UNL     1      -0.634  -0.433   0.289  0.00  0.00    -0.081 HD
ENDROOT
BRANCH   1  10
ATOM     10  C   UNL     1       3.554  -1.521   0.410  0.00  0.00    -0.076 C 
BRANCH  10  12
ATOM     11  C   UNL     1       4.559  -1.620  -1.791  0.00  0.00    -0.095 C 
ATOM     12  N   UNL     1       3.717  -2.338  -0.811  0.00  0.00    +0.385 N 
ATOM     13  H   UNL     1       2.793  -2.507  -1.225  0.00  0.00    -0.081 HD
BRANCH  12  14
ATOM     14  C   UNL     1       4.335  -3.637  -0.471  0.00  0.00    +0.012 C 
BRANCH  14  15
ATOM     15  C   UNL     1       4.289  -4.510  -1.655  0.00  0.00    -0.124 C 
ATOM     16  C   UNL     1       4.252  -5.206  -2.600  0.00  0.00    +0.002 C 
ENDBRANCH  14  15
ENDBRANCH  12  14
ENDBRANCH  10  12
ENDBRANCH   1  10
BRANCH   7  17
ATOM     17  C   UNL     1       0.452  -2.113   2.006  0.00  0.00    +0.088 C 
BRANCH  17  18
ATOM     18  N   UNL     1      -0.833  -2.537   1.444  0.00  0.00    -0.328 N 
ATOM     19  H   UNL     1      -1.462  -1.874   1.118  0.00  0.00    +0.148 HD
BRANCH  18  20
ATOM     20  C   UNL     1      -1.141  -3.847   1.378  0.00  0.00    +0.134 C 
ATOM     21  S   UNL     1      -0.030  -5.017   1.952  0.00  0.00    -0.019 S 
BRANCH  20  22
ATOM     22  N   UNL     1      -2.322  -4.237   0.860  0.00  0.00    -0.297 N 
ATOM     23  H   UNL     1      -2.977  -3.573   0.591  0.00  0.00    +0.154 HD
BRANCH  22  24
ATOM     24  C   UNL     1      -2.605  -5.599   0.710  0.00  0.00    +0.033 A 
ATOM     25  C   UNL     1      -3.167  -6.067  -0.471  0.00  0.00    +0.023 A 
ATOM     26  C   UNL     1      -3.441  -7.412  -0.618  0.00  0.00    +0.002 A 
ATOM     27  C   UNL     1      -3.166  -8.292   0.413  0.00  0.00    +0.000 A 
ATOM     28  C   UNL     1      -2.611  -7.828   1.592  0.00  0.00    +0.002 A 
ATOM     29  C   UNL     1      -2.330  -6.485   1.743  0.00  0.00    +0.023 A 
ENDBRANCH  22  24
ENDBRANCH  20  22
ENDBRANCH  18  20
ENDBRANCH  17  18
ENDBRANCH   7  17
TORSDOF 9
