REMARK  Name = ZINC66188072
REMARK  11 active torsions:
REMARK  status: ('A' for Active; 'I' for Inactive)
REMARK    1  A    between atoms: C_1  and  C_2
REMARK    2  A    between atoms: C_5  and  C_7
REMARK    3  A    between atoms: C_7  and  C_8
REMARK    4  A    between atoms: C_8  and  C_9
REMARK    5  A    between atoms: C_9  and  C_10
REMARK    6  A    between atoms: C_10  and  N_11
REMARK    7  A    between atoms: N_14  and  C_15
REMARK    8  A    between atoms: C_15  and  C_17
REMARK    9  A    between atoms: C_15  and  C_18
REMARK   10  A    between atoms: C_18  and  N_19
REMARK   11  A    between atoms: C_23  and  C_26
REMARK                            x       y       z     vdW  Elec       q    Type
REMARK                         _______ _______ _______ _____ _____    ______ ____
ROOT
ATOM      1  N   UNL     1      -3.153  -5.058   5.562  0.00  0.00    -0.299 N 
ATOM      2  C   UNL     1      -4.241  -5.644   6.100  0.00  0.00    +0.300 C 
ATOM      3  O   UNL     1      -5.353  -5.294   5.756  0.00  0.00    -0.253 OA
ATOM      4  N   UNL     1      -4.095  -6.618   7.020  0.00  0.00    -0.299 N 
ATOM      5  H   UNL     1      -2.266  -5.337   5.836  0.00  0.00    +0.150 HD
ATOM      6  H   UNL     1      -3.208  -6.898   7.294  0.00  0.00    +0.150 HD
ENDROOT
BRANCH   4   7
ATOM      7  C   UNL     1      -5.277  -7.255   7.605  0.00  0.00    +0.055 C 
ATOM      8  C   UNL     1      -5.728  -8.413   6.712  0.00  0.00    +0.026 C 
BRANCH   7   9
ATOM      9  C   UNL     1      -4.933  -7.789   8.997  0.00  0.00    -0.057 C 
BRANCH   9  10
ATOM     10  N   UNL     1      -4.400  -6.697   9.822  0.00  0.00    +0.381 N 
ATOM     11  C   UNL     1      -3.930  -7.238  11.103  0.00  0.00    -0.079 C 
ATOM     12  C   UNL     1      -3.301  -6.118  11.934  0.00  0.00    -0.018 C 
ATOM     13  C   UNL     1      -4.348  -5.030  12.191  0.00  0.00    -0.001 C 
ATOM     14  C   UNL     1      -4.885  -4.526  10.849  0.00  0.00    -0.031 C 
ATOM     15  C   UNL     1      -5.456  -5.705  10.058  0.00  0.00    -0.076 C 
ATOM     16  C   UNL     1      -5.987  -3.493  11.095  0.00  0.00    +0.005 C 
ATOM     17  H   UNL     1      -3.629  -6.259   9.341  0.00  0.00    -0.082 HD
ENDBRANCH   9  10
ENDBRANCH   7   9
ENDBRANCH   4   7
BRANCH   1  18
ATOM     18  C   UNL     1      -3.311  -3.999   4.562  0.00  0.00    +0.106 C 
BRANCH  18  19
ATOM     19  C   UNL     1      -1.932  -3.507   4.117  0.00  0.00    +0.019 C 
BRANCH  19  20
ATOM     20  C   UNL     1      -2.097  -2.401   3.073  0.00  0.00    +0.008 C 
BRANCH  20  21
ATOM     21  C   UNL     1      -0.718  -1.910   2.628  0.00  0.00    +0.063 C 
BRANCH  21  26
ATOM     22  C   UNL     1      -1.228   2.793   0.997  0.00  0.00    +0.066 C 
ATOM     23  C   UNL     1      -1.117   1.306   0.781  0.00  0.00    +0.046 A 
ATOM     24  C   UNL     1      -1.155   0.765  -0.464  0.00  0.00    +0.070 A 
ATOM     25  S   UNL     1      -0.982  -0.969  -0.074  0.00  0.00    -0.080 S 
ATOM     26  C   UNL     1      -0.880  -0.821   1.599  0.00  0.00    +0.079 A 
ATOM     27  N   UNL     1      -0.972   0.471   1.791  0.00  0.00    -0.249 NA
ENDBRANCH  21  26
ENDBRANCH  20  21
ENDBRANCH  19  20
ENDBRANCH  18  19
ENDBRANCH   1  18
TORSDOF 8
