REMARK  Name = ZINC20285942
REMARK  10 active torsions:
REMARK  status: ('A' for Active; 'I' for Inactive)
REMARK    1  A    between atoms: C_1  and  C_2
REMARK    2  A    between atoms: N_11  and  C_12
REMARK    3  A    between atoms: C_12  and  C_13
REMARK    4  A    between atoms: C_13  and  C_15
REMARK    5  A    between atoms: C_13  and  N_16
REMARK    6  A    between atoms: N_16  and  C_17
REMARK    7  A    between atoms: C_19  and  C_25
REMARK    8  A    between atoms: C_19  and  C_26
REMARK    9  A    between atoms: C_21  and  C_23
REMARK   10  A    between atoms: C_21  and  C_24
REMARK                            x       y       z     vdW  Elec       q    Type
REMARK                         _______ _______ _______ _____ _____    ______ ____
ROOT
ATOM      1  C   UNL     1       5.675  -7.866  -0.303  0.00  0.00    +0.072 C 
ATOM      2  C   UNL     1       6.506  -8.622   0.735  0.00  0.00    +0.026 C 
ENDROOT
BRANCH   1   3
ATOM      3  N   UNL     1       4.252  -8.175  -0.111  0.00  0.00    -0.309 NA
ATOM      4  H   UNL     1       4.024  -8.232   0.871  0.00  0.00    +0.123 HD
BRANCH   3   5
ATOM      5  C   UNL     1       3.882  -9.416  -0.811  0.00  0.00    +0.051 C 
ATOM      6  C   UNL     1       3.507  -9.084  -2.257  0.00  0.00    +0.006 C 
ATOM      7  C   UNL     1       3.109 -10.362  -2.995  0.00  0.00    -0.072 C 
ATOM      8  N   UNL     1       2.059 -11.091  -2.300  0.00  0.00    +0.386 N 
ATOM      9  C   UNL     1       2.210 -11.291  -0.868  0.00  0.00    -0.072 C 
ATOM     10  C   UNL     1       2.662 -10.035  -0.130  0.00  0.00    +0.006 C 
ATOM     11  C   UNL     1       3.158 -12.451  -0.554  0.00  0.00    -0.010 C 
ATOM     12  C   UNL     1       0.821 -11.678  -0.304  0.00  0.00    -0.010 C 
ATOM     13  C   UNL     1       4.340 -11.230  -3.252  0.00  0.00    -0.010 C 
ATOM     14  C   UNL     1       2.550  -9.939  -4.373  0.00  0.00    -0.010 C 
ATOM     15  H   UNL     1       1.171 -10.612  -2.467  0.00  0.00    -0.084 HD
ATOM     16  H   UNL     1       1.956 -12.007  -2.744  0.00  0.00    -0.084 HD
ENDBRANCH   3   5
ENDBRANCH   1   3
BRANCH   1  17
ATOM     17  C   UNL     1       5.897  -6.361  -0.136  0.00  0.00    +0.162 C 
BRANCH  17  28
ATOM     18  C   UNL     1      -0.166   1.442   0.325  0.00  0.00    +0.007 C 
ATOM     19  C   UNL     1      -0.105  -0.085   0.248  0.00  0.00    -0.011 C 
ATOM     20  C   UNL     1       0.559  -0.503  -1.066  0.00  0.00    +0.022 C 
ATOM     21  C   UNL     1       0.587  -2.032  -1.155  0.00  0.00    +0.107 C 
ATOM     22  N   UNL     1       1.242  -2.564   0.048  0.00  0.00    -0.309 N 
ATOM     23  C   UNL     1       0.739  -2.153   1.366  0.00  0.00    +0.107 C 
ATOM     24  C   UNL     1       0.710  -0.623   1.427  0.00  0.00    +0.022 C 
ATOM     25  C   UNL     1       2.295  -3.423  -0.057  0.00  0.00    +0.167 C 
ATOM     26  N   UNL     1       3.046  -4.030  -1.013  0.00  0.00    -0.200 NA
ATOM     27  C   UNL     1       4.072  -4.870  -0.573  0.00  0.00    +0.193 C 
ATOM     28  N   UNL     1       5.012  -5.633  -1.049  0.00  0.00    -0.258 NA
ATOM     29  S   UNL     1       3.411  -4.332   0.986  0.00  0.00    -0.015 S 
ENDBRANCH  17  28
ENDBRANCH   1  17
TORSDOF 4
