REMARK  Name = ZINC10067847
REMARK  8 active torsions:
REMARK  status: ('A' for Active; 'I' for Inactive)
REMARK    1  A    between atoms: C_1  and  C_2
REMARK    2  A    between atoms: N_11  and  C_12
REMARK    3  A    between atoms: C_12  and  C_13
REMARK    4  A    between atoms: C_13  and  C_14
REMARK    5  A    between atoms: C_14  and  N_59
REMARK    6  A    between atoms: C_15  and  N_59
REMARK    7  A    between atoms: C_16  and  N_59
REMARK    8  A    between atoms: C_17  and  C_19
REMARK                            x       y       z     vdW  Elec       q    Type
REMARK                         _______ _______ _______ _____ _____    ______ ____
ROOT
ATOM      1  C   UNL     1       4.013   2.582  -0.193  0.00  0.00    +0.046 C 
ATOM      2  C   UNL     1       2.811   1.675  -0.118  0.00  0.00    -0.024 A 
ATOM      3  C   UNL     1       2.985   0.316  -0.140  0.00  0.00    +0.005 A 
ATOM      4  C   UNL     1       1.906  -0.554  -0.073  0.00  0.00    +0.001 A 
ATOM      5  C   UNL     1       0.626  -0.039   0.017  0.00  0.00    +0.017 A 
ATOM      6  C   UNL     1       0.442   1.321   0.040  0.00  0.00    +0.041 A 
ATOM      7  C   UNL     1       1.517   2.237  -0.027  0.00  0.00    +0.083 A 
ATOM      8  N   UNL     1       1.175   3.543   0.006  0.00  0.00    -0.224 NA
ATOM      9  C   UNL     1      -0.072   3.944   0.094  0.00  0.00    +0.168 A 
ATOM     10  S   UNL     1      -0.968   2.398   0.136  0.00  0.00    -0.052 S 
ATOM     11  N   UNL     1      -0.568   5.236   0.137  0.00  0.00    -0.246 N 
ATOM     12  C   UNL     1       0.278   6.284   0.087  0.00  0.00    +0.259 C 
ATOM     13  O   UNL     1       1.468   6.098  -0.080  0.00  0.00    -0.269 OA
ENDROOT
BRANCH  12  14
ATOM     14  C   UNL     1      -0.239   7.653   0.234  0.00  0.00    +0.122 A 
ATOM     15  C   UNL     1      -1.193   8.150  -0.645  0.00  0.00    +0.032 A 
ATOM     16  C   UNL     1      -1.663   9.465  -0.461  0.00  0.00    +0.026 A 
ATOM     17  C   UNL     1      -2.674  10.028  -1.360  0.00  0.00    -0.007 A 
ATOM     18  C   UNL     1      -3.206   9.286  -2.417  0.00  0.00    +0.009 A 
ATOM     19  C   UNL     1      -4.146   9.850  -3.232  0.00  0.00    +0.001 A 
ATOM     20  C   UNL     1      -4.581  11.154  -3.022  0.00  0.00    +0.001 A 
ATOM     21  C   UNL     1      -4.081  11.904  -1.999  0.00  0.00    +0.008 A 
ATOM     22  C   UNL     1      -3.113  11.355  -1.143  0.00  0.00    -0.017 A 
ATOM     23  C   UNL     1      -2.573  12.099  -0.076  0.00  0.00    +0.012 A 
ATOM     24  C   UNL     1      -1.638  11.565   0.749  0.00  0.00    +0.047 A 
ATOM     25  C   UNL     1      -1.166  10.258   0.583  0.00  0.00    +0.140 A 
ATOM     26  O   UNL     1      -0.234   9.773   1.431  0.00  0.00    -0.422 OA
ATOM     27  C   UNL     1       0.246   8.525   1.308  0.00  0.00    +0.350 A 
ATOM     28  O   UNL     1       1.086   8.117   2.090  0.00  0.00    -0.244 OA
ENDBRANCH  12  14
BRANCH  11  29
ATOM     29  C   UNL     1      -2.012   5.463   0.236  0.00  0.00    +0.114 C 
BRANCH  29  30
ATOM     30  C   UNL     1      -2.432   5.434   1.707  0.00  0.00    +0.001 C 
BRANCH  30  31
ATOM     31  C   UNL     1      -3.955   5.547   1.804  0.00  0.00    -0.078 C 
BRANCH  31  34
ATOM     32  C   UNL     1      -5.788   5.747   3.374  0.00  0.00    -0.097 C 
ATOM     33  C   UNL     1      -4.085   4.058   3.709  0.00  0.00    -0.097 C 
ATOM     34  N   UNL     1      -4.352   5.428   3.223  0.00  0.00    +0.376 N 
ATOM     35  H   UNL     1      -3.803   6.093   3.780  0.00  0.00    -0.083 HD
ENDBRANCH  31  34
ENDBRANCH  30  31
ENDBRANCH  29  30
ENDBRANCH  11  29
TORSDOF 5
