REMARK  Name = ZINC63295204
REMARK  7 active torsions:
REMARK  status: ('A' for Active; 'I' for Inactive)
REMARK    1  A    between atoms: N_4  and  C_6
REMARK    2  A    between atoms: C_12  and  C_16
REMARK    3  A    between atoms: N_18  and  C_19
REMARK    4  A    between atoms: C_19  and  C_20
REMARK    5  A    between atoms: N_22  and  C_23
REMARK    6  A    between atoms: C_23  and  C_24
REMARK    7  A    between atoms: C_24  and  C_25
REMARK                            x       y       z     vdW  Elec       q    Type
REMARK                         _______ _______ _______ _____ _____    ______ ____
ROOT
ATOM      1  C   UNL     1      -1.326  -6.682   2.833  0.00  0.00    +0.244 C 
ATOM      2  O   UNL     1      -0.922  -6.742   3.978  0.00  0.00    -0.270 OA
ATOM      3  N   UNL     1      -2.256  -7.556   2.399  0.00  0.00    -0.303 N 
ATOM      4  H   UNL     1      -2.577  -7.508   1.485  0.00  0.00    +0.150 HD
ENDROOT
BRANCH   1  10
ATOM      5  C   UNL     1       1.760  -1.804  -0.025  0.00  0.00    +0.237 C 
ATOM      6  N   UNL     1       0.755  -2.686  -0.634  0.00  0.00    -0.314 N 
ATOM      7  C   UNL     1       0.206  -3.683   0.160  0.00  0.00    +0.043 A 
ATOM      8  C   UNL     1      -0.766  -4.616  -0.256  0.00  0.00    +0.025 A 
ATOM      9  C   UNL     1      -1.252  -5.570   0.599  0.00  0.00    +0.015 A 
ATOM     10  C   UNL     1      -0.798  -5.652   1.918  0.00  0.00    +0.038 A 
ATOM     11  C   UNL     1       0.168  -4.736   2.354  0.00  0.00    +0.029 A 
ATOM     12  C   UNL     1       0.645  -3.786   1.487  0.00  0.00    +0.033 A 
ATOM     13  S   UNL     1       1.847  -2.487   1.679  0.00  0.00    -0.079 S 
ATOM     14  H   UNL     1       0.484  -2.574  -1.558  0.00  0.00    +0.149 HD
BRANCH   5  18
ATOM     15  C   UNL     1      -0.016   1.344   0.009  0.00  0.00    +0.019 A 
ATOM     16  C   UNL     1       1.322   1.784  -0.001  0.00  0.00    +0.019 A 
ATOM     17  C   UNL     1       2.107   0.688  -0.014  0.00  0.00    +0.088 A 
ATOM     18  N   UNL     1       1.303  -0.413  -0.013  0.00  0.00    -0.326 N 
ATOM     19  C   UNL     1       0.002  -0.004   0.002  0.00  0.00    +0.088 A 
ENDBRANCH   5  18
ENDBRANCH   1  10
BRANCH   3  20
ATOM     20  C   UNL     1      -2.780  -8.579   3.308  0.00  0.00    +0.200 C 
BRANCH  20  21
ATOM     21  C   UNL     1      -3.797  -9.421   2.582  0.00  0.00    +0.230 C 
ATOM     22  O   UNL     1      -4.059  -9.190   1.421  0.00  0.00    -0.274 OA
ATOM     23  N   UNL     1      -4.417 -10.431   3.224  0.00  0.00    -0.314 N 
ATOM     24  H   UNL     1      -4.207 -10.616   4.153  0.00  0.00    +0.149 HD
BRANCH  23  25
ATOM     25  C   UNL     1      -5.406 -11.250   2.519  0.00  0.00    +0.108 C 
BRANCH  25  26
ATOM     26  C   UNL     1      -5.953 -12.318   3.468  0.00  0.00    +0.052 C 
BRANCH  26  27
ATOM     27  C   UNL     1      -6.971 -13.160   2.743  0.00  0.00    -0.040 C 
ATOM     28  C   UNL     1      -6.755 -14.343   2.124  0.00  0.00    +0.002 A 
ATOM     29  C   UNL     1      -5.554 -15.168   1.948  0.00  0.00    +0.048 A 
ATOM     30  C   UNL     1      -5.651 -16.332   1.264  0.00  0.00    +0.124 A 
ATOM     31  C   UNL     1      -6.870 -16.768   0.720  0.00  0.00    +0.040 A 
ATOM     32  C   UNL     1      -8.015 -16.064   0.841  0.00  0.00    +0.029 A 
ATOM     33  C   UNL     1      -8.028 -14.826   1.541  0.00  0.00    +0.043 A 
ATOM     34  N   UNL     1      -8.993 -13.974   1.790  0.00  0.00    -0.380 N 
ATOM     35  C   UNL     1      -8.442 -12.857   2.566  0.00  0.00    +0.144 C 
ATOM     36  F   UNL     1      -4.547 -17.093   1.099  0.00  0.00    -0.205 F 
ATOM     37  H   UNL     1      -9.917 -14.068   1.511  0.00  0.00    +0.160 HD
ENDBRANCH  26  27
ENDBRANCH  25  26
ENDBRANCH  23  25
ENDBRANCH  20  21
ENDBRANCH   3  20
TORSDOF 7
