REMARK  Name = ZINC45697998
REMARK  10 active torsions:
REMARK  status: ('A' for Active; 'I' for Inactive)
REMARK    1  A    between atoms: C_1  and  N_2
REMARK    2  A    between atoms: N_2  and  C_3
REMARK    3  A    between atoms: N_2  and  C_4
REMARK    4  A    between atoms: C_4  and  C_6
REMARK    5  A    between atoms: C_4  and  C_22
REMARK    6  A    between atoms: C_6  and  N_7
REMARK    7  A    between atoms: N_10  and  C_11
REMARK    8  A    between atoms: C_14  and  O_17
REMARK    9  A    between atoms: O_17  and  C_18
REMARK   10  A    between atoms: C_18  and  C_19
REMARK                            x       y       z     vdW  Elec       q    Type
REMARK                         _______ _______ _______ _____ _____    ______ ____
ROOT
ATOM      1  N   UNL     1      -0.406  -2.380   0.669  0.00  0.00    -0.300 N 
ATOM      2  C   UNL     1      -0.177  -3.707   0.727  0.00  0.00    +0.304 C 
ATOM      3  O   UNL     1      -0.593  -4.435  -0.154  0.00  0.00    -0.253 OA
ATOM      4  N   UNL     1       0.514  -4.227   1.761  0.00  0.00    -0.269 N 
ATOM      5  H   UNL     1      -0.074  -1.800   1.372  0.00  0.00    +0.150 HD
ATOM      6  H   UNL     1       0.772  -3.662   2.505  0.00  0.00    +0.156 HD
ENDROOT
BRANCH   4   7
ATOM      7  C   UNL     1       0.861  -5.585   1.760  0.00  0.00    +0.035 A 
ATOM      8  C   UNL     1       0.889  -6.296   2.952  0.00  0.00    +0.027 A 
ATOM      9  C   UNL     1       1.230  -7.634   2.950  0.00  0.00    +0.047 A 
ATOM     10  C   UNL     1       1.543  -8.268   1.757  0.00  0.00    +0.121 A 
ATOM     11  C   UNL     1       1.516  -7.559   0.566  0.00  0.00    +0.047 A 
ATOM     12  C   UNL     1       1.170  -6.222   0.565  0.00  0.00    +0.027 A 
BRANCH  10  13
ATOM     13  O   UNL     1       1.879  -9.586   1.756  0.00  0.00    -0.483 OA
BRANCH  13  14
ATOM     14  C   UNL     1       2.190 -10.175   0.492  0.00  0.00    +0.324 C 
BRANCH  14  15
ATOM     15  C   UNL     1       2.535 -11.629   0.687  0.00  0.00    +0.248 C 
ATOM     16  O   UNL     1       2.516 -12.113   1.799  0.00  0.00    -0.272 OA
ATOM     17  N   UNL     1       2.865 -12.392  -0.374  0.00  0.00    -0.327 N 
ATOM     18  H   UNL     1       2.880 -12.005  -1.264  0.00  0.00    +0.145 HD
ATOM     19  H   UNL     1       3.087 -13.328  -0.249  0.00  0.00    +0.145 HD
ENDBRANCH  14  15
ENDBRANCH  13  14
ENDBRANCH  10  13
ENDBRANCH   4   7
BRANCH   1  20
ATOM     20  C   UNL     1      -1.157  -1.815  -0.454  0.00  0.00    +0.095 C 
BRANCH  20  21
ATOM     21  C   UNL     1      -1.385  -0.321  -0.215  0.00  0.00    -0.020 C 
BRANCH  21  22
ATOM     22  C   UNL     1      -2.199  -0.131   1.039  0.00  0.00    -0.052 A 
ATOM     23  C   UNL     1      -1.585   0.216   2.227  0.00  0.00    +0.009 A 
ATOM     24  C   UNL     1      -2.345   0.379   3.337  0.00  0.00    +0.045 A 
ATOM     25  S   UNL     1      -3.983   0.038   2.716  0.00  0.00    -0.105 S 
ATOM     26  C   UNL     1      -3.544  -0.293   1.017  0.00  0.00    +0.047 A 
ENDBRANCH  21  22
BRANCH  21  28
ATOM     27  C   UNL     1      -2.237   1.705  -1.176  0.00  0.00    -0.096 C 
ATOM     28  N   UNL     1      -2.107   0.253  -1.359  0.00  0.00    +0.382 N 
ATOM     29  C   UNL     1      -1.362  -0.020  -2.595  0.00  0.00    -0.096 C 
ATOM     30  H   UNL     1      -3.025  -0.162  -1.420  0.00  0.00    -0.082 HD
ENDBRANCH  21  28
ENDBRANCH  20  21
ENDBRANCH   1  20
TORSDOF 8
