REMARK  Name = ZINC16389015
REMARK  4 active torsions:
REMARK  status: ('A' for Active; 'I' for Inactive)
REMARK    1  A    between atoms: C_1  and  C_2
REMARK    2  A    between atoms: C_8  and  N_10
REMARK    3  A    between atoms: C_14  and  C_16
REMARK    4  A    between atoms: C_16  and  N_17
REMARK                            x       y       z     vdW  Elec       q    Type
REMARK                         _______ _______ _______ _____ _____    ______ ____
ROOT
ATOM      1  N   UNL     1       0.056  -0.038   2.447  0.00  0.00    -0.296 N 
ATOM      2  C   UNL     1       0.738   0.093   3.602  0.00  0.00    +0.306 C 
ATOM      3  O   UNL     1       1.921  -0.180   3.644  0.00  0.00    -0.252 OA
ATOM      4  N   UNL     1       0.107   0.528   4.711  0.00  0.00    -0.239 N 
ATOM      5  C   UNL     1       0.789   0.659   5.866  0.00  0.00    +0.234 C 
ATOM      6  O   UNL     1       1.969   0.387   5.908  0.00  0.00    -0.274 OA
ATOM      7  H   UNL     1      -0.888   0.180   2.413  0.00  0.00    +0.151 HD
ATOM      8  H   UNL     1      -0.838   0.746   4.678  0.00  0.00    +0.159 HD
ENDROOT
BRANCH   1  15
ATOM      9  C   UNL     1      -0.019   1.526   0.010  0.00  0.00    +0.009 C 
ATOM     10  C   UNL     1       0.002  -0.004   0.002  0.00  0.00    +0.006 C 
ATOM     11  C   UNL     1      -1.433  -0.534   0.013  0.00  0.00    +0.005 C 
ATOM     12  C   UNL     1      -1.413  -2.063   0.004  0.00  0.00    +0.000 C 
ATOM     13  C   UNL     1      -0.673  -2.570   1.244  0.00  0.00    +0.002 C 
ATOM     14  C   UNL     1       0.763  -2.041   1.233  0.00  0.00    +0.022 C 
ATOM     15  C   UNL     1       0.742  -0.511   1.242  0.00  0.00    +0.077 C 
ENDBRANCH   1  15
BRANCH   5  16
ATOM     16  C   UNL     1       0.083   1.145   7.106  0.00  0.00    +0.181 C 
BRANCH  16  17
ATOM     17  N   UNL     1       1.037   1.202   8.222  0.00  0.00    -0.284 NA
ATOM     18  C   UNL     1       0.346   1.466   9.494  0.00  0.00    +0.104 C 
ATOM     19  C   UNL     1       1.320   1.210  10.645  0.00  0.00    +0.119 C 
ATOM     20  N   UNL     1       2.575   1.917  10.406  0.00  0.00    -0.313 N 
ATOM     21  C   UNL     1       2.936   2.368   9.200  0.00  0.00    +0.227 C 
ATOM     22  O   UNL     1       4.011   2.918   9.084  0.00  0.00    -0.274 OA
ATOM     23  C   UNL     1       2.067   2.222   7.983  0.00  0.00    +0.181 C 
ATOM     24  H   UNL     1       3.173   2.067  11.155  0.00  0.00    +0.149 HD
ENDBRANCH  16  17
ENDBRANCH   5  16
TORSDOF 3
