REMARK  Name = ZINC67390125
REMARK  10 active torsions:
REMARK  status: ('A' for Active; 'I' for Inactive)
REMARK    1  A    between atoms: C_1  and  C_2
REMARK    2  A    between atoms: N_8  and  C_9
REMARK    3  A    between atoms: C_9  and  C_10
REMARK    4  A    between atoms: C_10  and  C_11
REMARK    5  A    between atoms: C_11  and  C_12
REMARK    6  A    between atoms: C_12  and  N_13
REMARK    7  A    between atoms: N_16  and  N_17
REMARK    8  A    between atoms: C_18  and  C_20
REMARK    9  A    between atoms: C_20  and  C_21
REMARK   10  A    between atoms: C_21  and  C_22
REMARK                            x       y       z     vdW  Elec       q    Type
REMARK                         _______ _______ _______ _____ _____    ______ ____
ROOT
ATOM      1  N   UNL     1       6.221   0.443   3.874  0.00  0.00    -0.298 N 
ATOM      2  C   UNL     1       7.026   0.217   4.931  0.00  0.00    +0.316 C 
ATOM      3  O   UNL     1       6.634  -0.461   5.861  0.00  0.00    -0.251 OA
ATOM      4  N   UNL     1       8.267   0.743   4.956  0.00  0.00    -0.218 N 
ATOM      5  H   UNL     1       6.533   0.983   3.132  0.00  0.00    +0.150 HD
ATOM      6  H   UNL     1       8.847   0.581   5.716  0.00  0.00    +0.174 HD
ENDROOT
BRANCH   4   7
ATOM      7  N   UNL     1       8.719   1.524   3.884  0.00  0.00    -0.233 N 
ATOM      8  C   UNL     1       9.960   2.049   3.909  0.00  0.00    +0.229 C 
ATOM      9  O   UNL     1      10.685   1.846   4.860  0.00  0.00    -0.274 OA
ATOM     10  H   UNL     1       8.139   1.686   3.124  0.00  0.00    +0.173 HD
BRANCH   8  11
ATOM     11  C   UNL     1      10.446   2.889   2.756  0.00  0.00    +0.097 C 
BRANCH  11  12
ATOM     12  C   UNL     1      11.875   3.359   3.035  0.00  0.00    +0.013 C 
BRANCH  12  13
ATOM     13  C   UNL     1      12.369   4.212   1.864  0.00  0.00    -0.011 C 
ATOM     14  C   UNL     1      12.466   3.345   0.607  0.00  0.00    +0.003 C 
ATOM     15  C   UNL     1      12.959   4.198  -0.563  0.00  0.00    +0.000 C 
ATOM     16  C   UNL     1      14.339   4.770  -0.231  0.00  0.00    +0.000 C 
ATOM     17  C   UNL     1      14.242   5.636   1.026  0.00  0.00    +0.000 C 
ATOM     18  C   UNL     1      13.749   4.784   2.196  0.00  0.00    +0.003 C 
ENDBRANCH  12  13
ENDBRANCH  11  12
ENDBRANCH   8  11
ENDBRANCH   4   7
BRANCH   1  19
ATOM     19  C   UNL     1       4.872  -0.129   3.846  0.00  0.00    +0.106 C 
BRANCH  19  20
ATOM     20  C   UNL     1       4.173   0.276   2.547  0.00  0.00    +0.017 C 
BRANCH  20  21
ATOM     21  C   UNL     1       2.764  -0.321   2.518  0.00  0.00    -0.017 C 
BRANCH  21  22
ATOM     22  C   UNL     1       2.066   0.083   1.218  0.00  0.00    -0.078 C 
BRANCH  22  29
ATOM     23  C   UNL     1      -0.019   1.526   0.010  0.00  0.00    -0.013 C 
ATOM     24  C   UNL     1       0.002  -0.004   0.002  0.00  0.00    -0.072 C 
ATOM     25  C   UNL     1      -1.434  -0.533   0.011  0.00  0.00    -0.016 C 
ATOM     26  C   UNL     1      -1.408  -2.064   0.003  0.00  0.00    -0.003 C 
ATOM     27  C   UNL     1      -0.600  -2.558   1.206  0.00  0.00    -0.019 C 
ATOM     28  C   UNL     1       0.805  -1.954   1.152  0.00  0.00    -0.078 C 
ATOM     29  N   UNL     1       0.713  -0.490   1.191  0.00  0.00    +0.381 N 
ATOM     30  H   UNL     1       0.213  -0.206   2.020  0.00  0.00    -0.081 HD
ENDBRANCH  22  29
ENDBRANCH  21  22
ENDBRANCH  20  21
ENDBRANCH  19  20
ENDBRANCH   1  19
TORSDOF 9
