REMARK  Name = ZINC08723519
REMARK  4 active torsions:
REMARK  status: ('A' for Active; 'I' for Inactive)
REMARK    1  A    between atoms: C_6  and  S_10
REMARK    2  A    between atoms: S_10  and  C_11
REMARK    3  A    between atoms: C_11  and  C_12
REMARK    4  A    between atoms: C_19  and  N_46
REMARK                            x       y       z     vdW  Elec       q    Type
REMARK                         _______ _______ _______ _____ _____    ______ ____
ROOT
ATOM      1  C   UNL     1       0.059   1.348   0.014  0.00  0.00    +0.226 C 
ATOM      2  O   UNL     1       0.144   0.140  -0.060  0.00  0.00    -0.275 OA
ATOM      3  N   UNL     1      -1.153   1.939   0.021  0.00  0.00    -0.304 N 
ATOM      4  C   UNL     1      -1.279   3.401   0.116  0.00  0.00    +0.089 C 
ATOM      5  C   UNL     1      -2.199   3.881  -1.018  0.00  0.00    -0.059 C 
ATOM      6  C   UNL     1      -3.260   1.706  -1.182  0.00  0.00    -0.059 C 
ATOM      7  C   UNL     1      -2.384   1.138  -0.061  0.00  0.00    +0.089 C 
ATOM      8  N   UNL     1      -3.480   3.147  -0.930  0.00  0.00    +0.385 N 
ATOM      9  H   UNL     1      -3.866   3.264   0.015  0.00  0.00    -0.081 HD
ENDROOT
BRANCH   8  10
ATOM     10  C   UNL     1      -4.441   3.690  -1.912  0.00  0.00    -0.046 C 
ATOM     11  C   UNL     1      -5.789   2.968  -1.750  0.00  0.00    +0.009 C 
ATOM     12  C   UNL     1      -6.895   3.739  -2.510  0.00  0.00    +0.164 C 
ATOM     13  S   UNL     1      -6.278   5.471  -2.473  0.00  0.00    -0.033 S 
ATOM     14  O   UNL     1      -6.035   5.904  -3.804  0.00  0.00    -0.174 OA
ATOM     15  O   UNL     1      -7.121   6.244  -1.629  0.00  0.00    -0.174 OA
ATOM     16  C   UNL     1      -4.665   5.203  -1.625  0.00  0.00    +0.151 C 
ENDBRANCH   8  10
BRANCH   1  17
ATOM     17  C   UNL     1       1.307   2.188   0.092  0.00  0.00    +0.171 C 
BRANCH  17  18
ATOM     18  S   UNL     1       2.762   1.112   0.055  0.00  0.00    -0.096 S 
BRANCH  18  24
ATOM     19  C   UNL     1       5.989   0.597   0.090  0.00  0.00    +0.020 A 
ATOM     20  C   UNL     1       7.324   0.466   0.109  0.00  0.00    +0.048 A 
ATOM     21  S   UNL     1       7.906   2.147   0.225  0.00  0.00    -0.077 S 
ATOM     22  C   UNL     1       6.341   2.980   0.245  0.00  0.00    +0.112 A 
ATOM     23  C   UNL     1       5.407   1.925   0.160  0.00  0.00    +0.040 A 
ATOM     24  C   UNL     1       4.040   2.320   0.157  0.00  0.00    +0.109 A 
ATOM     25  N   UNL     1       3.740   3.608   0.226  0.00  0.00    -0.229 NA
ATOM     26  C   UNL     1       4.670   4.543   0.307  0.00  0.00    +0.223 A 
ATOM     27  N   UNL     1       5.953   4.239   0.315  0.00  0.00    -0.228 NA
ENDBRANCH  18  24
ENDBRANCH  17  18
ENDBRANCH   1  17
TORSDOF 4
