REMARK  Name = ZINC31299728
REMARK  7 active torsions:
REMARK  status: ('A' for Active; 'I' for Inactive)
REMARK    1  A    between atoms: C_5  and  O_7
REMARK    2  A    between atoms: O_7  and  C_8
REMARK    3  A    between atoms: C_8  and  C_9
REMARK    4  A    between atoms: N_11  and  C_12
REMARK    5  A    between atoms: C_12  and  C_13
REMARK    6  A    between atoms: C_13  and  C_15
REMARK    7  A    between atoms: C_13  and  O_23
REMARK                            x       y       z     vdW  Elec       q    Type
REMARK                         _______ _______ _______ _____ _____    ______ ____
ROOT
ATOM      1  C   UNL     1      -4.917  -0.172  -2.574  0.00  0.00    +0.251 C 
ATOM      2  O   UNL     1      -4.448   0.222  -3.621  0.00  0.00    -0.272 OA
ATOM      3  N   UNL     1      -4.280   0.080  -1.413  0.00  0.00    -0.310 N 
ATOM      4  H   UNL     1      -4.705  -0.278  -0.464  0.00  0.00    +0.149 HD
ENDROOT
BRANCH   1   5
ATOM      5  C   UNL     1      -6.211  -0.945  -2.572  0.00  0.00    +0.324 C 
BRANCH   5   6
ATOM      6  O   UNL     1      -6.686  -1.082  -3.912  0.00  0.00    -0.480 OA
BRANCH   6  11
ATOM      7  C   UNL     1      -9.708  -2.969  -3.173  0.00  0.00    +0.004 A 
ATOM      8  C   UNL     1     -10.225  -3.138  -4.444  0.00  0.00    +0.003 A 
ATOM      9  C   UNL     1      -9.559  -2.619  -5.538  0.00  0.00    +0.042 A 
ATOM     10  C   UNL     1      -8.373  -1.929  -5.364  0.00  0.00    +0.165 A 
ATOM     11  C   UNL     1      -7.852  -1.759  -4.087  0.00  0.00    +0.156 A 
ATOM     12  C   UNL     1      -8.521  -2.285  -2.993  0.00  0.00    +0.048 A 
ATOM     13  F   UNL     1      -7.721  -1.423  -6.434  0.00  0.00    -0.202 F 
ENDBRANCH   6  11
ENDBRANCH   5   6
ENDBRANCH   1   5
BRANCH   3  14
ATOM     14  C   UNL     1      -3.023   0.831  -1.415  0.00  0.00    +0.140 C 
BRANCH  14  15
ATOM     15  C   UNL     1      -2.513   0.977   0.020  0.00  0.00    +0.162 C 
BRANCH  15  16
ATOM     16  C   UNL     1      -1.220   1.750   0.017  0.00  0.00    -0.015 A 
ATOM     17  C   UNL     1      -0.013   1.076   0.008  0.00  0.00    +0.009 A 
ATOM     18  C   UNL     1       1.175   1.782   0.000  0.00  0.00    +0.041 A 
ATOM     19  C   UNL     1       1.157   3.166   0.008  0.00  0.00    +0.158 A 
ATOM     20  C   UNL     1      -0.053   3.842   0.022  0.00  0.00    +0.159 A 
ATOM     21  C   UNL     1      -1.241   3.132   0.030  0.00  0.00    +0.047 A 
ATOM     22  F   UNL     1      -0.073   5.193   0.029  0.00  0.00    -0.202 F 
ATOM     23  F   UNL     1       2.318   3.858   0.001  0.00  0.00    -0.202 F 
ENDBRANCH  15  16
BRANCH  15  24
ATOM     24  O   UNL     1      -3.484   1.677   0.801  0.00  0.00    -0.386 OA
ATOM     25  H   UNL     1      -3.293   1.877   1.865  0.00  0.00    +0.210 HD
ENDBRANCH  15  24
ENDBRANCH  14  15
ENDBRANCH   3  14
TORSDOF 7
