REMARK  Name = ZINC64182124
REMARK  5 active torsions:
REMARK  status: ('A' for Active; 'I' for Inactive)
REMARK    1  A    between atoms: C_7  and  C_10
REMARK    2  A    between atoms: C_16  and  C_18
REMARK    3  A    between atoms: C_18  and  C_19
REMARK    4  A    between atoms: C_19  and  C_21
REMARK    5  A    between atoms: C_19  and  N_28
REMARK                            x       y       z     vdW  Elec       q    Type
REMARK                         _______ _______ _______ _____ _____    ______ ____
ROOT
ATOM      1  C   UNL     1       0.933  -3.125  -0.511  0.00  0.00    -0.043 C 
ATOM      2  C   UNL     1      -0.346  -2.788  -0.395  0.00  0.00    -0.004 C 
ATOM      3  C   UNL     1      -1.452  -3.793  -0.227  0.00  0.00    +0.135 C 
ATOM      4  N   UNL     1      -0.921  -5.140  -0.483  0.00  0.00    -0.297 N 
ATOM      5  C   UNL     1       0.388  -5.475   0.103  0.00  0.00    +0.113 C 
ATOM      6  C   UNL     1       1.434  -4.539  -0.513  0.00  0.00    +0.054 C 
ATOM      7  C   UNL     1      -1.605  -6.033  -1.225  0.00  0.00    +0.218 C 
ATOM      8  O   UNL     1      -1.145  -7.138  -1.421  0.00  0.00    -0.276 OA
ENDROOT
BRANCH   1  15
ATOM      9  C   UNL     1       5.394  -3.179  -1.320  0.00  0.00    +0.001 A 
ATOM     10  C   UNL     1       5.970  -1.905  -1.380  0.00  0.00    +0.002 A 
ATOM     11  C   UNL     1       5.236  -0.780  -1.208  0.00  0.00    +0.026 A 
ATOM     12  C   UNL     1       3.841  -0.878  -0.959  0.00  0.00    +0.043 A 
ATOM     13  N   UNL     1       2.925   0.045  -0.761  0.00  0.00    -0.380 N 
ATOM     14  C   UNL     1       1.626  -0.601  -0.548  0.00  0.00    +0.149 C 
ATOM     15  C   UNL     1       1.879  -2.089  -0.646  0.00  0.00    -0.016 C 
ATOM     16  C   UNL     1       3.239  -2.222  -0.897  0.00  0.00    +0.003 A 
ATOM     17  C   UNL     1       4.070  -3.351  -1.086  0.00  0.00    +0.010 A 
ATOM     18  H   UNL     1       3.083   1.002  -0.756  0.00  0.00    +0.160 HD
ENDBRANCH   1  15
BRANCH   7  19
ATOM     19  C   UNL     1      -2.942  -5.659  -1.811  0.00  0.00    +0.123 C 
BRANCH  19  20
ATOM     20  C   UNL     1      -3.501  -6.843  -2.602  0.00  0.00    +0.115 C 
BRANCH  20  21
ATOM     21  C   UNL     1      -4.777  -6.430  -3.289  0.00  0.00    -0.008 A 
ATOM     22  C   UNL     1      -5.442  -5.288  -2.884  0.00  0.00    +0.007 A 
ATOM     23  C   UNL     1      -6.613  -4.909  -3.514  0.00  0.00    +0.000 A 
ATOM     24  C   UNL     1      -7.119  -5.672  -4.550  0.00  0.00    +0.001 A 
ATOM     25  C   UNL     1      -6.455  -6.814  -4.956  0.00  0.00    +0.020 A 
ATOM     26  C   UNL     1      -5.280  -7.190  -4.330  0.00  0.00    +0.046 A 
ATOM     27 CL   UNL     1      -4.442  -8.621  -4.843  0.00  0.00    -0.083 Cl
ENDBRANCH  20  21
BRANCH  20  28
ATOM     28  N   UNL     1      -3.776  -7.954  -1.689  0.00  0.00    -0.292 N 
ATOM     29  C   UNL     1      -4.722  -7.827  -0.737  0.00  0.00    +0.298 C 
ATOM     30  O   UNL     1      -5.283  -6.760  -0.577  0.00  0.00    -0.253 OA
ATOM     31  N   UNL     1      -5.047  -8.881   0.036  0.00  0.00    -0.313 N 
ATOM     32  H   UNL     1      -3.277  -8.782  -1.769  0.00  0.00    +0.151 HD
ATOM     33  H   UNL     1      -4.599  -9.732  -0.091  0.00  0.00    +0.146 HD
ATOM     34  H   UNL     1      -5.727  -8.789   0.721  0.00  0.00    +0.146 HD
ENDBRANCH  20  28
ENDBRANCH  19  20
ENDBRANCH   7  19
TORSDOF 5
