REMARK  Name = ZINC09014305
REMARK  6 active torsions:
REMARK  status: ('A' for Active; 'I' for Inactive)
REMARK    1  A    between atoms: C_1  and  O_2
REMARK    2  A    between atoms: O_2  and  C_3
REMARK    3  A    between atoms: C_13  and  C_17
REMARK    4  A    between atoms: C_18  and  O_35
REMARK    5  A    between atoms: C_20  and  O_34
REMARK    6  A    between atoms: N_21  and  C_24
REMARK                            x       y       z     vdW  Elec       q    Type
REMARK                         _______ _______ _______ _____ _____    ______ ____
ROOT
ATOM      1  C   UNL     1       3.584   2.842  -0.015  0.00  0.00    +0.071 A 
ATOM      2  C   UNL     1       3.489   1.461  -0.022  0.00  0.00    +0.224 A 
ATOM      3  N   UNL     1       2.285   0.878  -0.010  0.00  0.00    -0.161 NA
ATOM      4  C   UNL     1       1.182   1.592  -0.001  0.00  0.00    +0.306 A 
ATOM      5  N   UNL     1       1.219   2.952   0.006  0.00  0.00    -0.230 N 
ATOM      6  C   UNL     1       2.404   3.597  -0.001  0.00  0.00    +0.267 A 
ATOM      7  O   UNL     1       2.448   4.817   0.005  0.00  0.00    -0.267 OA
ENDROOT
BRANCH   1  18
ATOM      8  C   UNL     1       5.946   7.156   4.712  0.00  0.00    +0.121 A 
ATOM      9  C   UNL     1       5.426   6.085   5.430  0.00  0.00    +0.047 A 
ATOM     10  C   UNL     1       5.008   4.919   4.814  0.00  0.00    +0.030 A 
ATOM     11  C   UNL     1       5.127   4.854   3.428  0.00  0.00    +0.047 A 
ATOM     12  C   UNL     1       5.656   5.946   2.692  0.00  0.00    +0.006 A 
ATOM     13  C   UNL     1       6.075   7.117   3.332  0.00  0.00    +0.056 A 
ATOM     14  C   UNL     1       5.633   5.539   1.305  0.00  0.00    -0.022 A 
ATOM     15  C   UNL     1       5.120   4.285   1.265  0.00  0.00    +0.011 A 
ATOM     16  N   UNL     1       4.814   3.871   2.529  0.00  0.00    -0.359 N 
ATOM     17  H   UNL     1       4.433   3.008   2.756  0.00  0.00    +0.166 HD
ATOM     18  C   UNL     1       4.930   3.519  -0.023  0.00  0.00    +0.018 C 
ATOM     19  C   UNL     1       6.212   5.295  -1.076  0.00  0.00    -0.076 C 
ATOM     20  C   UNL     1       6.077   6.297   0.079  0.00  0.00    +0.018 C 
ATOM     21  N   UNL     1       4.991   4.467  -1.158  0.00  0.00    +0.388 N 
ATOM     22  H   UNL     1       4.166   5.078  -1.133  0.00  0.00    -0.084 HD
ATOM     23  H   UNL     1       5.000   3.939  -2.039  0.00  0.00    -0.084 HD
BRANCH   8  25
ATOM     24  C   UNL     1       6.186   8.264   6.803  0.00  0.00    +0.277 C 
ATOM     25  O   UNL     1       6.338   8.272   5.382  0.00  0.00    -0.495 OA
ENDBRANCH   8  25
ENDBRANCH   1  18
BRANCH   5  26
ATOM     26  C   UNL     1       0.027   3.682   0.021  0.00  0.00    +0.062 A 
ATOM     27  C   UNL     1      -0.555   4.039   1.218  0.00  0.00    +0.027 A 
ATOM     28  C   UNL     1      -1.741   4.766   1.244  0.00  0.00    +0.003 A 
ATOM     29  C   UNL     1      -2.359   5.145   0.091  0.00  0.00    +0.008 A 
ATOM     30  C   UNL     1      -1.799   4.801  -1.150  0.00  0.00    -0.016 A 
ATOM     31  C   UNL     1      -0.588   4.066  -1.189  0.00  0.00    +0.006 A 
ATOM     32  C   UNL     1      -0.032   3.719  -2.431  0.00  0.00    +0.010 A 
ATOM     33  C   UNL     1      -0.656   4.100  -3.579  0.00  0.00    +0.001 A 
ATOM     34  C   UNL     1      -1.845   4.827  -3.542  0.00  0.00    +0.001 A 
ATOM     35  C   UNL     1      -2.415   5.177  -2.357  0.00  0.00    +0.008 A 
ENDBRANCH   5  26
BRANCH   4  36
ATOM     36  O   UNL     1      -0.011   0.963   0.007  0.00  0.00    -0.479 OA
ATOM     37  H   UNL     1       0.002  -0.004   0.002  0.00  0.00    +0.295 HD
ENDBRANCH   4  36
BRANCH   2  38
ATOM     38  O   UNL     1       4.611   0.704  -0.037  0.00  0.00    -0.492 OA
ATOM     39  H   UNL     1       4.442  -0.248  -0.041  0.00  0.00    +0.294 HD
ENDBRANCH   2  38
TORSDOF 5
