REMARK  Name = ZINC63270525
REMARK  6 active torsions:
REMARK  status: ('A' for Active; 'I' for Inactive)
REMARK    1  A    between atoms: C_8  and  C_11
REMARK    2  A    between atoms: N_13  and  C_14
REMARK    3  A    between atoms: C_14  and  C_15
REMARK    4  A    between atoms: N_17  and  C_18
REMARK    5  A    between atoms: C_18  and  C_19
REMARK    6  A    between atoms: C_19  and  C_20
REMARK                            x       y       z     vdW  Elec       q    Type
REMARK                         _______ _______ _______ _____ _____    ______ ____
ROOT
ATOM      1  C   UNL     1       7.308  -4.250  -0.091  0.00  0.00    +0.230 C 
ATOM      2  O   UNL     1       7.671  -3.093  -0.089  0.00  0.00    -0.274 OA
ATOM      3  N   UNL     1       8.219  -5.242  -0.105  0.00  0.00    -0.314 N 
ATOM      4  H   UNL     1       7.928  -6.168  -0.106  0.00  0.00    +0.149 HD
ENDROOT
BRANCH   1   5
ATOM      5  C   UNL     1       5.837  -4.578  -0.078  0.00  0.00    +0.200 C 
BRANCH   5   8
ATOM      6  C   UNL     1       3.713  -3.383  -0.051  0.00  0.00    +0.261 C 
ATOM      7  O   UNL     1       3.143  -4.458  -0.051  0.00  0.00    -0.269 OA
ATOM      8  N   UNL     1       5.060  -3.336  -0.065  0.00  0.00    -0.302 N 
ATOM      9  H   UNL     1       5.515  -2.479  -0.065  0.00  0.00    +0.150 HD
BRANCH   6  17
ATOM     10  C   UNL     1      -0.016   1.360   0.009  0.00  0.00    +0.001 A 
ATOM     11  C   UNL     1       1.169   2.084   0.002  0.00  0.00    +0.002 A 
ATOM     12  C   UNL     1       2.385   1.439  -0.013  0.00  0.00    +0.026 A 
ATOM     13  C   UNL     1       2.430   0.047  -0.021  0.00  0.00    +0.047 A 
ATOM     14  C   UNL     1       1.227  -0.684  -0.013  0.00  0.00    +0.000 A 
ATOM     15  C   UNL     1       0.002  -0.004   0.002  0.00  0.00    +0.010 A 
ATOM     16  C   UNL     1       1.577  -2.056  -0.024  0.00  0.00    +0.040 A 
ATOM     17  C   UNL     1       2.933  -2.137  -0.038  0.00  0.00    +0.103 A 
ATOM     18  N   UNL     1       3.463  -0.861  -0.036  0.00  0.00    -0.351 N 
ATOM     19  H   UNL     1       4.408  -0.641  -0.045  0.00  0.00    +0.166 HD
ENDBRANCH   6  17
ENDBRANCH   5   8
ENDBRANCH   1   5
BRANCH   3  20
ATOM     20  C   UNL     1       9.649  -4.924  -0.118  0.00  0.00    +0.108 C 
BRANCH  20  21
ATOM     21  C   UNL     1      10.461  -6.221  -0.132  0.00  0.00    +0.052 C 
BRANCH  21  22
ATOM     22  C   UNL     1      11.931  -5.893  -0.145  0.00  0.00    -0.040 C 
ATOM     23  C   UNL     1      12.758  -5.819   0.923  0.00  0.00    -0.001 A 
ATOM     24  C   UNL     1      12.542  -6.012   2.362  0.00  0.00    +0.010 A 
ATOM     25  C   UNL     1      13.587  -5.866   3.208  0.00  0.00    +0.001 A 
ATOM     26  C   UNL     1      14.868  -5.534   2.745  0.00  0.00    +0.002 A 
ATOM     27  C   UNL     1      15.144  -5.341   1.438  0.00  0.00    +0.026 A 
ATOM     28  C   UNL     1      14.120  -5.470   0.461  0.00  0.00    +0.043 A 
ATOM     29  N   UNL     1      14.135  -5.334  -0.843  0.00  0.00    -0.380 N 
ATOM     30  C   UNL     1      12.784  -5.588  -1.356  0.00  0.00    +0.144 C 
ATOM     31  H   UNL     1      14.911  -5.108  -1.380  0.00  0.00    +0.160 HD
ENDBRANCH  21  22
ENDBRANCH  20  21
ENDBRANCH   3  20
TORSDOF 6
