REMARK  Name = ZINC48971783
REMARK  7 active torsions:
REMARK  status: ('A' for Active; 'I' for Inactive)
REMARK    1  A    between atoms: C_1  and  N_2
REMARK    2  A    between atoms: N_2  and  C_3
REMARK    3  A    between atoms: N_2  and  C_10
REMARK    4  A    between atoms: C_3  and  C_4
REMARK    5  A    between atoms: C_10  and  C_12
REMARK    6  A    between atoms: C_10  and  C_14
REMARK    7  A    between atoms: C_12  and  N_13
REMARK                            x       y       z     vdW  Elec       q    Type
REMARK                         _______ _______ _______ _____ _____    ______ ____
ROOT
ATOM      1  C   UNL     1      -0.022  -0.847  -1.261  0.00  0.00    +0.069 C 
ENDROOT
BRANCH   1   2
ATOM      2  C   UNL     1      -0.781  -0.559  -2.530  0.00  0.00    -0.032 A 
ATOM      3  C   UNL     1      -1.253   0.716  -2.779  0.00  0.00    +0.006 A 
ATOM      4  C   UNL     1      -1.949   0.981  -3.943  0.00  0.00    +0.015 A 
ATOM      5  C   UNL     1      -2.172  -0.030  -4.860  0.00  0.00    +0.018 A 
ATOM      6  C   UNL     1      -1.700  -1.306  -4.611  0.00  0.00    +0.015 A 
ATOM      7  C   UNL     1      -1.000  -1.569  -3.449  0.00  0.00    +0.006 A 
ATOM      8 BR   UNL     1      -3.125   0.331  -6.454  0.00  0.00    -0.050 Br
ENDBRANCH   1   2
BRANCH   1  10
ATOM      9  C   UNL     1       0.276   1.327  -0.237  0.00  0.00    +0.105 C 
ATOM     10  N   UNL     1      -0.475   0.064  -0.202  0.00  0.00    -0.296 NA
BRANCH  10  11
ATOM     11  C   UNL     1      -0.375  -0.572   1.119  0.00  0.00    +0.127 C 
BRANCH  11  12
ATOM     12  C   UNL     1      -1.297   0.127   2.084  0.00  0.00    +0.005 A 
ATOM     13  C   UNL     1      -2.593  -0.144   2.374  0.00  0.00    +0.014 A 
ATOM     14  C   UNL     1      -3.250   0.639   3.304  0.00  0.00    +0.028 A 
ATOM     15  C   UNL     1      -2.578   1.656   3.900  0.00  0.00    +0.078 A 
ATOM     16  S   UNL     1      -0.964   1.522   3.148  0.00  0.00    -0.080 S 
ATOM     17 CL   UNL     1      -3.139   2.789   5.089  0.00  0.00    -0.076 Cl
ENDBRANCH  11  12
ENDBRANCH  10  11
ENDBRANCH   1  10
BRANCH   1  18
ATOM     18  C   UNL     1       1.475  -0.642  -1.504  0.00  0.00    -0.063 C 
BRANCH  18  19
ATOM     19  N   UNL     1       2.226  -1.060  -0.312  0.00  0.00    +0.379 N 
ATOM     20  H   UNL     1       2.017  -0.437   0.453  0.00  0.00    -0.090 HD
ATOM     21  H   UNL     1       1.962  -2.001  -0.061  0.00  0.00    -0.090 HD
ATOM     22  H   UNL     1       3.215  -1.030  -0.511  0.00  0.00    -0.090 HD
ENDBRANCH  18  19
ENDBRANCH   1  18
TORSDOF 6
