REMARK  Name = ZINC37946609
REMARK  5 active torsions:
REMARK  status: ('A' for Active; 'I' for Inactive)
REMARK    1  A    between atoms: C_3  and  C_6
REMARK    2  A    between atoms: C_6  and  N_7
REMARK    3  A    between atoms: N_7  and  C_8
REMARK    4  A    between atoms: C_8  and  C_10
REMARK    5  A    between atoms: C_8  and  C_20
REMARK                            x       y       z     vdW  Elec       q    Type
REMARK                         _______ _______ _______ _____ _____    ______ ____
ROOT
ATOM      1  C   UNL     1       5.617   2.501   1.346  0.00  0.00    +0.047 C 
ENDROOT
BRANCH   1   2
ATOM      2  C   UNL     1       6.062   2.780   2.759  0.00  0.00    -0.048 A 
ATOM      3  C   UNL     1       6.821   3.902   3.034  0.00  0.00    +0.052 A 
ATOM      4  C   UNL     1       7.231   4.162   4.331  0.00  0.00    +0.168 A 
ATOM      5  C   UNL     1       6.877   3.289   5.357  0.00  0.00    +0.180 A 
ATOM      6  C   UNL     1       6.116   2.166   5.074  0.00  0.00    +0.063 A 
ATOM      7  C   UNL     1       5.705   1.917   3.777  0.00  0.00    +0.021 A 
ATOM      8 BR   UNL     1       5.633   0.978   6.464  0.00  0.00    -0.046 Br
ATOM      9  O   UNL     1       7.396   3.760   6.529  0.00  0.00    -0.451 OA
ATOM     10  C   UNL     1       8.412   4.706   6.147  0.00  0.00    +0.466 C 
ATOM     11  O   UNL     1       7.972   5.179   4.860  0.00  0.00    -0.453 OA
ENDBRANCH   1   2
BRANCH   1  12
ATOM     12  C   UNL     1       6.520   1.462   0.731  0.00  0.00    +0.201 C 
ATOM     13  O   UNL     1       6.057   0.411   0.341  0.00  0.00    -0.277 OA
ATOM     14  N   UNL     1       7.841   1.700   0.616  0.00  0.00    -0.330 N 
ATOM     15  H   UNL     1       8.211   2.541   0.928  0.00  0.00    +0.145 HD
ATOM     16  H   UNL     1       8.422   1.032   0.220  0.00  0.00    +0.145 HD
ENDBRANCH   1  12
BRANCH   1  17
ATOM     17  N   UNL     1       4.235   2.004   1.357  0.00  0.00    +0.392 N 
ATOM     18  H   UNL     1       3.645   2.663   1.842  0.00  0.00    -0.084 HD
ATOM     19  H   UNL     1       4.202   1.113   1.828  0.00  0.00    -0.084 HD
BRANCH  17  20
ATOM     20  C   UNL     1       3.761   1.845  -0.024  0.00  0.00    -0.038 C 
BRANCH  20  23
ATOM     21  C   UNL     1      -0.016   1.351   0.009  0.00  0.00    +0.008 A 
ATOM     22  C   UNL     1       1.183   2.038   0.002  0.00  0.00    +0.009 A 
ATOM     23  C   UNL     1       2.343   1.336  -0.013  0.00  0.00    -0.027 A 
ATOM     24  S   UNL     1       1.754  -0.349  -0.017  0.00  0.00    -0.104 S 
ATOM     25  C   UNL     1       0.002  -0.004   0.002  0.00  0.00    +0.045 A 
ENDBRANCH  20  23
ENDBRANCH  17  20
ENDBRANCH   1  17
TORSDOF 5
