REMARK  Name = ZINC23664563
REMARK  8 active torsions:
REMARK  status: ('A' for Active; 'I' for Inactive)
REMARK    1  A    between atoms: C_4  and  N_7
REMARK    2  A    between atoms: C_8  and  C_10
REMARK    3  A    between atoms: C_10  and  N_11
REMARK    4  A    between atoms: N_14  and  C_17
REMARK    5  A    between atoms: C_17  and  C_18
REMARK    6  A    between atoms: N_23  and  C_24
REMARK    7  A    between atoms: C_24  and  C_25
REMARK    8  A    between atoms: C_25  and  C_26
REMARK                            x       y       z     vdW  Elec       q    Type
REMARK                         _______ _______ _______ _____ _____    ______ ____
ROOT
ATOM      1  N   UNL     1      -2.495  -2.707   0.324  0.00  0.00    +0.387 N 
ATOM      2  C   UNL     1      -3.116  -2.283   1.586  0.00  0.00    -0.063 C 
ATOM      3  C   UNL     1      -4.568  -2.766   1.624  0.00  0.00    +0.066 C 
ATOM      4  N   UNL     1      -4.599  -4.229   1.491  0.00  0.00    -0.298 NA
ATOM      5  C   UNL     1      -3.978  -4.653   0.228  0.00  0.00    +0.066 C 
ATOM      6  C   UNL     1      -2.526  -4.170   0.190  0.00  0.00    -0.063 C 
ATOM      7  H   UNL     1      -3.079  -2.278  -0.503  0.00  0.00    -0.081 HD
ENDROOT
BRANCH   1   8
ATOM      8  C   UNL     1      -1.121  -2.197   0.216  0.00  0.00    +0.019 C 
BRANCH   8  10
ATOM      9  N   UNL     1       0.002  -0.004   0.002  0.00  0.00    -0.287 N 
ATOM     10  C   UNL     1      -1.150  -0.694   0.111  0.00  0.00    +0.201 C 
ATOM     11  O   UNL     1      -2.211  -0.106   0.124  0.00  0.00    -0.278 OA
ATOM     12  H   UNL     1       0.958  -0.541  -0.087  0.00  0.00    +0.155 HD
BRANCH   9  16
ATOM     13  C   UNL     1      -0.057   4.162   0.003  0.00  0.00    +0.000 A 
ATOM     14  C   UNL     1       0.994   3.486   0.596  0.00  0.00    +0.002 A 
ATOM     15  C   UNL     1       1.016   2.106   0.598  0.00  0.00    +0.023 A 
ATOM     16  C   UNL     1      -0.018   1.395   0.002  0.00  0.00    +0.033 A 
ATOM     17  C   UNL     1      -1.068   2.076  -0.598  0.00  0.00    +0.023 A 
ATOM     18  C   UNL     1      -1.088   3.457  -0.591  0.00  0.00    +0.002 A 
ENDBRANCH   9  16
ENDBRANCH   8  10
ENDBRANCH   1   8
BRANCH   4  19
ATOM     19  C   UNL     1      -5.973  -4.739   1.599  0.00  0.00    +0.180 C 
BRANCH  19  20
ATOM     20  C   UNL     1      -6.489  -4.499   2.994  0.00  0.00    +0.234 C 
ATOM     21  O   UNL     1      -5.784  -3.957   3.817  0.00  0.00    -0.274 OA
ATOM     22  N   UNL     1      -7.737  -4.887   3.326  0.00  0.00    -0.239 N 
ATOM     23  C   UNL     1      -8.199  -4.672   4.574  0.00  0.00    +0.306 C 
ATOM     24  O   UNL     1      -7.491  -4.129   5.399  0.00  0.00    -0.252 OA
ATOM     25  N   UNL     1      -9.446  -5.060   4.906  0.00  0.00    -0.299 N 
ATOM     26  H   UNL     1      -8.377  -5.379   2.579  0.00  0.00    +0.159 HD
ATOM     27  H   UNL     1     -10.087  -5.552   4.160  0.00  0.00    +0.150 HD
BRANCH  25  28
ATOM     28  C   UNL     1      -9.949  -4.827   6.263  0.00  0.00    +0.110 C 
BRANCH  28  29
ATOM     29  C   UNL     1     -11.379  -5.358   6.375  0.00  0.00    +0.049 C 
BRANCH  29  30
ATOM     30  C   UNL     1     -11.896  -5.118   7.770  0.00  0.00    -0.072 C 
ATOM     31  C   UNL     1     -12.593  -4.048   7.983  0.00  0.00    -0.028 C 
ATOM     32  C   UNL     1     -13.165  -3.669   9.318  0.00  0.00    +0.027 C 
ATOM     33  C   UNL     1     -13.182  -4.884  10.248  0.00  0.00    +0.004 C 
ATOM     34  C   UNL     1     -11.795  -5.538  10.217  0.00  0.00    +0.005 C 
ATOM     35  C   UNL     1     -11.576  -6.136   8.824  0.00  0.00    +0.030 C 
ENDBRANCH  29  30
ENDBRANCH  28  29
ENDBRANCH  25  28
ENDBRANCH  19  20
ENDBRANCH   4  19
TORSDOF 8
