REMARK  Name = ZINC63743870
REMARK  6 active torsions:
REMARK  status: ('A' for Active; 'I' for Inactive)
REMARK    1  A    between atoms: C_1  and  O_2
REMARK    2  A    between atoms: O_2  and  C_3
REMARK    3  A    between atoms: C_7  and  C_9
REMARK    4  A    between atoms: C_9  and  N_10
REMARK    5  A    between atoms: N_13  and  C_14
REMARK    6  A    between atoms: C_17  and  C_20
REMARK                            x       y       z     vdW  Elec       q    Type
REMARK                         _______ _______ _______ _____ _____    ______ ____
ROOT
ATOM      1  C   UNL     1      -2.798  -7.806  -3.086  0.00  0.00    +0.035 A 
ATOM      2  C   UNL     1      -2.926  -8.658  -1.998  0.00  0.00    +0.024 A 
ATOM      3  C   UNL     1      -3.072 -10.017  -2.200  0.00  0.00    +0.008 A 
ATOM      4  C   UNL     1      -3.090 -10.528  -3.485  0.00  0.00    -0.021 A 
ATOM      5  C   UNL     1      -2.962  -9.681  -4.571  0.00  0.00    +0.008 A 
ATOM      6  C   UNL     1      -2.822  -8.321  -4.375  0.00  0.00    +0.024 A 
ENDROOT
BRANCH   4   7
ATOM      7  C   UNL     1      -3.249 -12.011  -3.702  0.00  0.00    +0.133 C 
ATOM      8  C   UNL     1      -1.913 -12.635  -4.037  0.00  0.00    +0.012 C 
ATOM      9  C   UNL     1      -2.050 -13.174  -5.270  0.00  0.00    -0.002 A 
ATOM     10  C   UNL     1      -1.126 -13.910  -6.141  0.00  0.00    +0.029 A 
ATOM     11  C   UNL     1      -1.562 -14.334  -7.350  0.00  0.00    +0.042 A 
ATOM     12  C   UNL     1      -2.871 -14.088  -7.790  0.00  0.00    +0.022 A 
ATOM     13  C   UNL     1      -3.776 -13.419  -7.045  0.00  0.00    +0.027 A 
ATOM     14  C   UNL     1      -3.426 -12.928  -5.757  0.00  0.00    +0.043 A 
ATOM     15  N   UNL     1      -4.114 -12.262  -4.860  0.00  0.00    -0.374 N 
ATOM     16 CL   UNL     1      -0.472 -15.204  -8.384  0.00  0.00    -0.084 Cl
ATOM     17  H   UNL     1      -5.039 -11.983  -4.947  0.00  0.00    +0.161 HD
ENDBRANCH   4   7
BRANCH   1  21
ATOM     18  N   UNL     1      -3.146  -4.233  -3.506  0.00  0.00    -0.295 N 
ATOM     19  C   UNL     1      -3.207  -5.558  -3.749  0.00  0.00    +0.304 C 
ATOM     20  O   UNL     1      -3.765  -5.966  -4.750  0.00  0.00    -0.252 OA
ATOM     21  N   UNL     1      -2.651  -6.428  -2.885  0.00  0.00    -0.269 N 
ATOM     22  H   UNL     1      -2.700  -3.907  -2.708  0.00  0.00    +0.151 HD
ATOM     23  H   UNL     1      -2.148  -6.101  -2.122  0.00  0.00    +0.156 HD
BRANCH  18  24
ATOM     24  C   UNL     1      -3.751  -3.287  -4.446  0.00  0.00    +0.141 C 
BRANCH  24  29
ATOM     25  C   UNL     1      -4.292  -0.004  -2.654  0.00  0.00    +0.120 A 
ATOM     26  C   UNL     1      -3.159   0.704  -3.030  0.00  0.00    +0.045 A 
ATOM     27  C   UNL     1      -2.224   0.118  -3.861  0.00  0.00    +0.004 A 
ATOM     28  C   UNL     1      -2.416  -1.173  -4.318  0.00  0.00    +0.005 A 
ATOM     29  C   UNL     1      -3.544  -1.880  -3.945  0.00  0.00    -0.027 A 
ATOM     30  C   UNL     1      -4.479  -1.301  -3.110  0.00  0.00    +0.050 A 
BRANCH  25  32
ATOM     31  C   UNL     1      -4.954   1.908  -1.406  0.00  0.00    +0.277 C 
ATOM     32  O   UNL     1      -5.213   0.570  -1.836  0.00  0.00    -0.495 OA
ENDBRANCH  25  32
ENDBRANCH  24  29
ENDBRANCH  18  24
ENDBRANCH   1  21
TORSDOF 5
