REMARK  Name = ZINC06940550
REMARK  5 active torsions:
REMARK  status: ('A' for Active; 'I' for Inactive)
REMARK    1  A    between atoms: C_1  and  C_2
REMARK    2  A    between atoms: C_9  and  O_16
REMARK    3  A    between atoms: C_12  and  C_14
REMARK    4  A    between atoms: C_12  and  C_15
REMARK    5  A    between atoms: C_18  and  C_19
REMARK                            x       y       z     vdW  Elec       q    Type
REMARK                         _______ _______ _______ _____ _____    ______ ____
ROOT
ATOM      1  C   UNL     1       4.836  -0.275  -0.168  0.00  0.00    +0.048 C 
ATOM      2  C   UNL     1       3.403  -0.722  -0.033  0.00  0.00    +0.008 A 
ATOM      3  C   UNL     1       2.241   0.122   0.245  0.00  0.00    +0.033 A 
ATOM      4  C   UNL     1       1.137  -0.747   0.275  0.00  0.00    +0.137 A 
ATOM      5  C   UNL     1      -0.129  -0.227   0.520  0.00  0.00    +0.050 A 
ATOM      6  C   UNL     1      -0.287   1.123   0.731  0.00  0.00    +0.049 A 
ATOM      7  C   UNL     1       0.808   1.990   0.705  0.00  0.00    +0.128 A 
ATOM      8  C   UNL     1       2.070   1.495   0.461  0.00  0.00    +0.034 A 
ATOM      9  C   UNL     1       3.276   2.398   0.416  0.00  0.00    +0.152 C 
ATOM     10  C   UNL     1       2.949   3.731   1.095  0.00  0.00    +0.083 C 
ATOM     11  C   UNL     1       1.609   4.235   0.544  0.00  0.00    +0.108 C 
ATOM     12  O   UNL     1       0.590   3.313   0.930  0.00  0.00    -0.486 OA
ATOM     13  C   UNL     1       1.301   5.617   1.123  0.00  0.00    +0.055 C 
ATOM     14  C   UNL     1       1.679   4.320  -0.982  0.00  0.00    +0.055 C 
ATOM     15  O   UNL     1       1.592  -1.994   0.040  0.00  0.00    -0.450 OA
ATOM     16  C   UNL     1       2.929  -1.990  -0.144  0.00  0.00    +0.194 A 
ENDROOT
BRANCH  16  17
ATOM     17  C   UNL     1       3.748  -3.178  -0.423  0.00  0.00    +0.282 C 
ATOM     18  O   UNL     1       4.961  -3.089  -0.445  0.00  0.00    -0.267 OA
ATOM     19  N   UNL     1       3.155  -4.366  -0.655  0.00  0.00    -0.291 N 
ATOM     20  C   UNL     1       1.695  -4.517  -0.549  0.00  0.00    +0.136 C 
ATOM     21  C   UNL     1       1.190  -5.197  -1.831  0.00  0.00    +0.179 C 
ATOM     22  O   UNL     1       1.937  -6.395  -2.053  0.00  0.00    -0.377 OA
ATOM     23  C   UNL     1       3.334  -6.182  -2.269  0.00  0.00    +0.179 C 
ATOM     24  C   UNL     1       3.949  -5.551  -1.015  0.00  0.00    +0.136 C 
ENDBRANCH  16  17
BRANCH   9  25
ATOM     25  O   UNL     1       4.364   1.772   1.097  0.00  0.00    -0.387 OA
ATOM     26  H   UNL     1       5.196   2.263   1.045  0.00  0.00    +0.210 HD
ENDBRANCH   9  25
TORSDOF 2
