REMARK  Name = ZINC48026855
REMARK  5 active torsions:
REMARK  status: ('A' for Active; 'I' for Inactive)
REMARK    1  A    between atoms: C_2  and  N_9
REMARK    2  A    between atoms: C_10  and  C_12
REMARK    3  A    between atoms: C_12  and  N_13
REMARK    4  A    between atoms: C_16  and  C_19
REMARK    5  A    between atoms: C_19  and  C_20
REMARK                            x       y       z     vdW  Elec       q    Type
REMARK                         _______ _______ _______ _____ _____    ______ ____
ROOT
ATOM      1  C   UNL     1       2.291   5.677   0.225  0.00  0.00    +0.019 C 
ENDROOT
BRANCH   1   2
ATOM      2  N   UNL     1       3.667   6.184   0.312  0.00  0.00    +0.385 N 
ATOM      3  C   UNL     1       4.372   5.899  -0.943  0.00  0.00    -0.078 C 
ATOM      4  C   UNL     1       5.829   6.352  -0.829  0.00  0.00    -0.015 C 
ATOM      5  C   UNL     1       5.870   7.857  -0.549  0.00  0.00    -0.006 C 
ATOM      6  C   UNL     1       5.069   8.152   0.722  0.00  0.00    -0.015 C 
ATOM      7  C   UNL     1       3.640   7.632   0.550  0.00  0.00    -0.078 C 
ATOM      8  H   UNL     1       4.145   5.728   1.075  0.00  0.00    -0.081 HD
BRANCH   5   9
ATOM      9  C   UNL     1       7.321   8.302  -0.354  0.00  0.00    +0.099 C 
BRANCH   9  10
ATOM     10  C   UNL     1       7.370   9.801  -0.202  0.00  0.00    +0.211 C 
ATOM     11  O   UNL     1       6.345  10.448  -0.244  0.00  0.00    -0.276 OA
ATOM     12  N   UNL     1       8.552  10.421  -0.018  0.00  0.00    -0.329 N 
ATOM     13  H   UNL     1       9.371   9.902   0.017  0.00  0.00    +0.145 HD
ATOM     14  H   UNL     1       8.584  11.385   0.081  0.00  0.00    +0.145 HD
ENDBRANCH   9  10
ENDBRANCH   5   9
ENDBRANCH   1   2
BRANCH   1  16
ATOM     15  N   UNL     1       1.160   3.488   0.009  0.00  0.00    -0.287 N 
ATOM     16  C   UNL     1       2.315   4.175   0.104  0.00  0.00    +0.201 C 
ATOM     17  O   UNL     1       3.375   3.585   0.091  0.00  0.00    -0.278 OA
ATOM     18  H   UNL     1       0.317   3.963  -0.058  0.00  0.00    +0.155 HD
BRANCH  15  20
ATOM     19  C   UNL     1       0.236   1.383  -0.732  0.00  0.00    +0.061 A 
ATOM     20  C   UNL     1       1.176   2.089   0.008  0.00  0.00    +0.039 A 
ATOM     21  C   UNL     1       2.133   1.404   0.746  0.00  0.00    +0.061 A 
ATOM     22  C   UNL     1       2.147   0.021   0.743  0.00  0.00    +0.128 A 
ATOM     23  C   UNL     1       1.209  -0.681   0.004  0.00  0.00    +0.076 A 
ATOM     24  C   UNL     1       0.255   0.000  -0.732  0.00  0.00    +0.128 A 
ATOM     25  F   UNL     1      -0.660  -0.687  -1.452  0.00  0.00    -0.205 F 
ATOM     26  F   UNL     1       3.078  -0.646   1.460  0.00  0.00    -0.205 F 
ENDBRANCH  15  20
ENDBRANCH   1  16
TORSDOF 5
