REMARK  Name = ZINC38546983
REMARK  7 active torsions:
REMARK  status: ('A' for Active; 'I' for Inactive)
REMARK    1  A    between atoms: C_1  and  C_2
REMARK    2  A    between atoms: N_8  and  C_9
REMARK    3  A    between atoms: C_9  and  C_11
REMARK    4  A    between atoms: C_9  and  C_18
REMARK    5  A    between atoms: C_20  and  C_31
REMARK    6  A    between atoms: C_22  and  N_23
REMARK    7  A    between atoms: C_24  and  C_26
REMARK                            x       y       z     vdW  Elec       q    Type
REMARK                         _______ _______ _______ _____ _____    ______ ____
ROOT
ATOM      1  C   UNL     1       0.048  -2.108   3.615  0.00  0.00    +0.137 C 
ENDROOT
BRANCH   1   9
ATOM      2  C   UNL     1      -0.338   1.423  -0.078  0.00  0.00    +0.044 C 
ATOM      3  C   UNL     1      -0.248  -0.081  -0.046  0.00  0.00    -0.046 A 
ATOM      4  C   UNL     1      -0.262  -0.818  -1.223  0.00  0.00    +0.021 A 
ATOM      5  C   UNL     1      -0.177  -2.194  -1.159  0.00  0.00    +0.084 A 
ATOM      6  N   UNL     1      -0.085  -2.814   0.002  0.00  0.00    -0.350 N 
ATOM      7  C   UNL     1      -0.069  -2.147   1.146  0.00  0.00    +0.097 A 
ATOM      8  C   UNL     1      -0.144  -0.757   1.156  0.00  0.00    +0.045 A 
ATOM      9  N   UNL     1       0.030  -2.840   2.347  0.00  0.00    -0.320 N 
ATOM     10  H   UNL     1       0.087  -3.808   2.344  0.00  0.00    +0.148 HD
ATOM     11  H   UNL     1      -0.027  -3.782   0.019  0.00  0.00    +0.166 HD
ENDBRANCH   1   9
BRANCH   1  12
ATOM     12  C   UNL     1      -1.365  -1.787   4.030  0.00  0.00    +0.012 A 
ATOM     13  C   UNL     1      -2.410  -2.579   3.593  0.00  0.00    +0.008 A 
ATOM     14  C   UNL     1      -3.706  -2.285   3.974  0.00  0.00    +0.001 A 
ATOM     15  C   UNL     1      -3.958  -1.199   4.792  0.00  0.00    +0.003 A 
ATOM     16  C   UNL     1      -2.915  -0.407   5.231  0.00  0.00    +0.039 A 
ATOM     17  C   UNL     1      -1.616  -0.703   4.854  0.00  0.00    +0.129 A 
ATOM     18  F   UNL     1      -0.594   0.068   5.286  0.00  0.00    -0.205 F 
ENDBRANCH   1  12
BRANCH   1  19
ATOM     19  C   UNL     1       0.702  -2.956   4.675  0.00  0.00    +0.006 A 
ATOM     20  C   UNL     1      -0.060  -3.599   5.633  0.00  0.00    +0.018 A 
ATOM     21  C   UNL     1       0.560  -4.354   6.571  0.00  0.00    -0.011 A 
ATOM     22  S   UNL     1       2.277  -4.175   6.119  0.00  0.00    -0.078 S 
ATOM     23  C   UNL     1       2.056  -3.108   4.704  0.00  0.00    +0.078 A 
ATOM     24  C   UNL     1      -0.044  -5.142   7.705  0.00  0.00    +0.051 C 
BRANCH  23  25
ATOM     25  N   UNL     1       3.020  -2.568   3.850  0.00  0.00    -0.273 N 
ATOM     26  C   UNL     1       4.330  -2.745   4.115  0.00  0.00    +0.284 C 
ATOM     27  O   UNL     1       4.672  -3.375   5.098  0.00  0.00    -0.266 OA
ATOM     28  H   UNL     1       2.747  -2.066   3.066  0.00  0.00    +0.156 HD
BRANCH  26  29
ATOM     29  C   UNL     1       5.342  -2.178   3.218  0.00  0.00    +0.189 A 
ATOM     30  C   UNL     1       6.695  -2.286   3.365  0.00  0.00    +0.054 A 
ATOM     31  C   UNL     1       7.275  -1.599   2.287  0.00  0.00    +0.042 A 
ATOM     32  C   UNL     1       6.263  -1.108   1.539  0.00  0.00    +0.196 A 
ATOM     33  O   UNL     1       5.100  -1.463   2.100  0.00  0.00    -0.458 OA
ENDBRANCH  26  29
ENDBRANCH  23  25
ENDBRANCH   1  19
TORSDOF 5
