REMARK  Name = ZINC62604170
REMARK  9 active torsions:
REMARK  status: ('A' for Active; 'I' for Inactive)
REMARK    1  A    between atoms: C_1  and  C_2
REMARK    2  A    between atoms: C_2  and  C_3
REMARK    3  A    between atoms: C_3  and  N_4
REMARK    4  A    between atoms: N_4  and  C_5
REMARK    5  A    between atoms: C_5  and  C_7
REMARK    6  A    between atoms: C_5  and  C_17
REMARK    7  A    between atoms: C_7  and  C_8
REMARK    8  A    between atoms: C_8  and  S_9
REMARK    9  A    between atoms: S_9  and  C_10
REMARK                            x       y       z     vdW  Elec       q    Type
REMARK                         _______ _______ _______ _____ _____    ______ ____
ROOT
ATOM      1  C   UNL     1       1.426  -2.440  -2.474  0.00  0.00    +0.017 C 
ENDROOT
BRANCH   1   2
ATOM      2  C   UNL     1       0.630  -2.045  -3.691  0.00  0.00    +0.196 C 
ATOM      3  O   UNL     1      -0.407  -1.430  -3.565  0.00  0.00    -0.278 OA
ATOM      4  N   UNL     1       1.072  -2.376  -4.921  0.00  0.00    -0.331 N 
ATOM      5  H   UNL     1       1.902  -2.868  -5.022  0.00  0.00    +0.145 HD
ATOM      6  H   UNL     1       0.560  -2.122  -5.705  0.00  0.00    +0.145 HD
ENDBRANCH   1   2
BRANCH   1   7
ATOM      7  N   UNL     1       0.738  -1.966  -1.265  0.00  0.00    +0.387 N 
ATOM      8  H   UNL     1       1.226  -2.301  -0.447  0.00  0.00    -0.085 HD
ATOM      9  H   UNL     1      -0.208  -2.316  -1.258  0.00  0.00    -0.085 HD
BRANCH   7  10
ATOM     10  C   UNL     1       0.718  -0.497  -1.257  0.00  0.00    -0.082 C 
BRANCH  10  12
ATOM     11  C   UNL     1      -0.019   1.526   0.010  0.00  0.00    +0.002 C 
ATOM     12  C   UNL     1       0.002  -0.004   0.002  0.00  0.00    -0.022 C 
ENDBRANCH  10  12
ENDBRANCH   7  10
ENDBRANCH   1   7
BRANCH   1  13
ATOM     13  C   UNL     1       1.557  -3.964  -2.422  0.00  0.00    +0.004 C 
BRANCH  13  14
ATOM     14  C   UNL     1       2.467  -4.358  -1.257  0.00  0.00    +0.073 C 
BRANCH  14  15
ATOM     15  S   UNL     1       2.623  -6.164  -1.196  0.00  0.00    -0.125 S 
BRANCH  15  16
ATOM     16  C   UNL     1       3.687  -6.454   0.179  0.00  0.00    +0.009 A 
ATOM     17  C   UNL     1       4.178  -5.384   0.917  0.00  0.00    +0.015 A 
ATOM     18  C   UNL     1       5.011  -5.614   1.994  0.00  0.00    +0.002 A 
ATOM     19  C   UNL     1       5.358  -6.908   2.338  0.00  0.00    +0.015 A 
ATOM     20  C   UNL     1       4.871  -7.976   1.605  0.00  0.00    +0.019 A 
ATOM     21  C   UNL     1       4.032  -7.753   0.530  0.00  0.00    +0.030 A 
ATOM     22 BR   UNL     1       5.349  -9.743   2.080  0.00  0.00    -0.050 Br
ENDBRANCH  15  16
ENDBRANCH  14  15
ENDBRANCH  13  14
ENDBRANCH   1  13
TORSDOF 8
