REMARK  Name = ZINC13942755
REMARK  3 active torsions:
REMARK  status: ('A' for Active; 'I' for Inactive)
REMARK    1  A    between atoms: C_6  and  N_7
REMARK    2  A    between atoms: C_8  and  C_10
REMARK    3  A    between atoms: C_10  and  C_11
REMARK                            x       y       z     vdW  Elec       q    Type
REMARK                         _______ _______ _______ _____ _____    ______ ____
ROOT
ATOM      1  C   UNL     1       3.321   8.152  -0.305  0.00  0.00    +0.025 C 
ATOM      2  C   UNL     1       4.598   8.902  -0.557  0.00  0.00    +0.200 C 
ATOM      3  O   UNL     1       5.382   8.457  -1.370  0.00  0.00    -0.278 OA
ATOM      4  N   UNL     1       4.908  10.039   0.078  0.00  0.00    -0.315 N 
ATOM      5  C   UNL     1       4.049  10.624   1.099  0.00  0.00    +0.059 C 
ATOM      6  C   UNL     1       4.052  12.145   1.009  0.00  0.00    +0.020 C 
ATOM      7  C   UNL     1       3.433  12.592  -0.317  0.00  0.00    +0.002 C 
ATOM      8  C   UNL     1       1.995  12.073  -0.398  0.00  0.00    -0.001 C 
ATOM      9  C   UNL     1       2.007  10.546  -0.346  0.00  0.00    -0.014 C 
ATOM     10  C   UNL     1       2.628  10.076   0.973  0.00  0.00    -0.050 C 
ATOM     11  H   UNL     1       5.736  10.491  -0.151  0.00  0.00    +0.149 HD
ATOM     12  N   UNL     1       2.709   8.601   0.955  0.00  0.00    +0.390 N 
ATOM     13  H   UNL     1       3.282   8.282   1.745  0.00  0.00    -0.084 HD
ATOM     14  H   UNL     1       1.765   8.207   1.036  0.00  0.00    -0.084 HD
ENDROOT
BRANCH   1  15
ATOM     15  C   UNL     1       3.621   6.655  -0.214  0.00  0.00    +0.089 C 
BRANCH  15  17
ATOM     16  N   UNL     1       2.348   4.545   0.003  0.00  0.00    -0.285 N 
ATOM     17  C   UNL     1       2.329   5.890  -0.092  0.00  0.00    +0.216 C 
ATOM     18  O   UNL     1       1.271   6.484  -0.079  0.00  0.00    -0.276 OA
ATOM     19  H   UNL     1       3.194   4.076   0.070  0.00  0.00    +0.155 HD
BRANCH  16  25
ATOM     20  C   UNL     1       1.038   2.657   0.745  0.00  0.00    +0.026 A 
ATOM     21  C   UNL     1      -0.149   1.949   0.747  0.00  0.00    +0.041 A 
ATOM     22  C   UNL     1      -1.231   2.408   0.016  0.00  0.00    +0.142 A 
ATOM     23  C   UNL     1      -1.123   3.573  -0.728  0.00  0.00    +0.078 A 
ATOM     24  C   UNL     1       0.062   4.283  -0.732  0.00  0.00    +0.046 A 
ATOM     25  C   UNL     1       1.146   3.827   0.005  0.00  0.00    +0.035 A 
ATOM     26 CL   UNL     1      -2.480   4.143  -1.648  0.00  0.00    -0.081 Cl
ATOM     27  F   UNL     1      -2.392   1.717   0.023  0.00  0.00    -0.204 F 
ENDBRANCH  16  25
ENDBRANCH  15  17
ENDBRANCH   1  15
TORSDOF 3
