REMARK  Name = ZINC58144979
REMARK  11 active torsions:
REMARK  status: ('A' for Active; 'I' for Inactive)
REMARK    1  A    between atoms: C_1  and  N_2
REMARK    2  A    between atoms: N_2  and  C_3
REMARK    3  A    between atoms: C_5  and  C_10
REMARK    4  A    between atoms: C_10  and  N_11
REMARK    5  A    between atoms: C_12  and  C_14
REMARK    6  A    between atoms: C_15  and  C_16
REMARK    7  A    between atoms: C_19  and  O_24
REMARK    8  A    between atoms: C_20  and  O_22
REMARK    9  A    between atoms: O_22  and  C_23
REMARK   10  A    between atoms: O_24  and  C_25
REMARK   11  A    between atoms: C_25  and  C_26
REMARK                            x       y       z     vdW  Elec       q    Type
REMARK                         _______ _______ _______ _____ _____    ______ ____
ROOT
ATOM      1  C   UNL     1      -3.312  -3.582   2.095  0.00  0.00    +0.068 C 
ATOM      2  C   UNL     1      -3.640  -4.219   3.240  0.00  0.00    +0.013 C 
ENDROOT
BRANCH   2   3
ATOM      3  C   UNL     1      -5.043  -4.271   3.675  0.00  0.00    -0.021 A 
ATOM      4  C   UNL     1      -6.041  -3.667   2.901  0.00  0.00    +0.012 A 
ATOM      5  C   UNL     1      -7.355  -3.718   3.311  0.00  0.00    +0.050 A 
ATOM      6  C   UNL     1      -7.693  -4.367   4.491  0.00  0.00    +0.163 A 
ATOM      7  C   UNL     1      -6.705  -4.972   5.267  0.00  0.00    +0.162 A 
ATOM      8  C   UNL     1      -5.386  -4.931   4.861  0.00  0.00    +0.057 A 
BRANCH   7   9
ATOM      9  O   UNL     1      -7.041  -5.607   6.421  0.00  0.00    -0.491 OA
ATOM     10  C   UNL     1      -5.978  -6.204   7.167  0.00  0.00    +0.277 C 
ENDBRANCH   7   9
BRANCH   6  11
ATOM     11  O   UNL     1      -8.991  -4.413   4.890  0.00  0.00    -0.479 OA
BRANCH  11  12
ATOM     12  C   UNL     1      -9.952  -3.773   4.048  0.00  0.00    +0.324 C 
BRANCH  12  13
ATOM     13  C   UNL     1     -11.326  -3.927   4.648  0.00  0.00    +0.248 C 
ATOM     14  O   UNL     1     -11.468  -4.526   5.693  0.00  0.00    -0.272 OA
ATOM     15  N   UNL     1     -12.397  -3.399   4.022  0.00  0.00    -0.327 N 
ATOM     16  H   UNL     1     -12.283  -2.920   3.186  0.00  0.00    +0.145 HD
ATOM     17  H   UNL     1     -13.281  -3.498   4.408  0.00  0.00    +0.145 HD
ENDBRANCH  12  13
ENDBRANCH  11  12
ENDBRANCH   6  11
ENDBRANCH   2   3
BRANCH   1  19
ATOM     18  N   UNL     1      -1.587  -2.894   0.520  0.00  0.00    -0.308 N 
ATOM     19  C   UNL     1      -1.915  -3.530   1.663  0.00  0.00    +0.237 C 
ATOM     20  O   UNL     1      -1.050  -4.061   2.334  0.00  0.00    -0.271 OA
ATOM     21  H   UNL     1      -2.277  -2.471  -0.015  0.00  0.00    +0.149 HD
BRANCH  18  22
ATOM     22  C   UNL     1      -0.189  -2.842   0.087  0.00  0.00    +0.143 C 
BRANCH  22  27
ATOM     23  C   UNL     1      -1.567   0.417   0.462  0.00  0.00    +0.130 C 
ATOM     24  N   UNL     1      -0.246   0.001  -0.013  0.00  0.00    -0.323 N 
ATOM     25  C   UNL     1       0.948   0.311   0.777  0.00  0.00    +0.130 C 
ATOM     26  C   UNL     1      -0.125  -0.689  -1.214  0.00  0.00    +0.103 A 
ATOM     27  C   UNL     1      -0.093  -2.080  -1.210  0.00  0.00    +0.008 A 
ATOM     28  C   UNL     1       0.027  -2.753  -2.412  0.00  0.00    +0.010 A 
ATOM     29  C   UNL     1       0.113  -2.010  -3.582  0.00  0.00    +0.018 A 
ATOM     30  C   UNL     1       0.075  -0.632  -3.513  0.00  0.00    +0.084 A 
ATOM     31  N   UNL     1      -0.046  -0.016  -2.352  0.00  0.00    -0.349 N 
ATOM     32  H   UNL     1      -0.074   0.953  -2.331  0.00  0.00    +0.167 HD
ENDBRANCH  22  27
ENDBRANCH  18  22
ENDBRANCH   1  19
TORSDOF 8
