REMARK  Name = ZINC08643733
REMARK  12 active torsions:
REMARK  status: ('A' for Active; 'I' for Inactive)
REMARK    1  A    between atoms: C_1  and  N_50
REMARK    2  A    between atoms: C_2  and  N_50
REMARK    3  A    between atoms: C_3  and  C_4
REMARK    4  A    between atoms: C_3  and  N_50
REMARK    5  A    between atoms: C_4  and  N_5
REMARK    6  A    between atoms: C_6  and  C_8
REMARK    7  A    between atoms: C_8  and  C_9
REMARK    8  A    between atoms: C_11  and  O_26
REMARK    9  A    between atoms: C_13  and  O_25
REMARK   10  A    between atoms: C_15  and  C_18
REMARK   11  A    between atoms: C_18  and  N_19
REMARK   12  A    between atoms: C_20  and  C_22
REMARK                            x       y       z     vdW  Elec       q    Type
REMARK                         _______ _______ _______ _____ _____    ______ ____
ROOT
ATOM      1  C   UNL     1       3.800  -0.484  -1.423  0.00  0.00    +0.158 C 
ATOM      2  C   UNL     1       4.732   0.474  -0.656  0.00  0.00    +0.175 C 
ATOM      3  C   UNL     1       3.771   1.504  -0.013  0.00  0.00    +0.176 C 
ATOM      4  C   UNL     1       2.424   0.737  -0.017  0.00  0.00    +0.167 C 
ATOM      5  O   UNL     1       2.458   0.004  -1.260  0.00  0.00    -0.366 OA
ENDROOT
BRANCH   3   6
ATOM      6  O   UNL     1       4.176   1.814   1.322  0.00  0.00    -0.387 OA
ATOM      7  H   UNL     1       5.014   2.294   1.377  0.00  0.00    +0.210 HD
ENDBRANCH   3   6
BRANCH   2   8
ATOM      8  O   UNL     1       5.455  -0.233   0.353  0.00  0.00    -0.387 OA
ATOM      9  H   UNL     1       6.058   0.322   0.867  0.00  0.00    +0.210 HD
ENDBRANCH   2   8
BRANCH   1  10
ATOM     10  C   UNL     1       4.173  -0.495  -2.907  0.00  0.00    +0.130 C 
BRANCH  10  12
ATOM     11  N   UNL     1       3.482  -1.696  -4.956  0.00  0.00    -0.317 N 
ATOM     12  C   UNL     1       3.327  -1.511  -3.630  0.00  0.00    +0.216 C 
ATOM     13  O   UNL     1       2.507  -2.163  -3.019  0.00  0.00    -0.276 OA
ATOM     14  H   UNL     1       4.138  -1.175  -5.445  0.00  0.00    +0.149 HD
BRANCH  11  15
ATOM     15  C   UNL     1       2.660  -2.684  -5.659  0.00  0.00    +0.085 C 
BRANCH  15  16
ATOM     16  C   UNL     1       3.033  -2.695  -7.143  0.00  0.00    -0.061 C 
BRANCH  16  19
ATOM     17  C   UNL     1       2.365  -3.562  -9.303  0.00  0.00    -0.097 C 
ATOM     18  C   UNL     1       2.523  -5.049  -7.398  0.00  0.00    -0.097 C 
ATOM     19  N   UNL     1       2.181  -3.681  -7.841  0.00  0.00    +0.377 N 
ATOM     20  H   UNL     1       1.197  -3.493  -7.613  0.00  0.00    -0.083 HD
ENDBRANCH  16  19
ENDBRANCH  15  16
ENDBRANCH  11  15
ENDBRANCH  10  12
ENDBRANCH   1  10
BRANCH   4  21
ATOM     21  C   UNL     1       1.248   1.716  -0.001  0.00  0.00    +0.138 C 
BRANCH  21  22
ATOM     22  N   UNL     1      -0.011   0.966   0.007  0.00  0.00    -0.313 N 
ATOM     23  C   UNL     1      -1.187   1.624   0.017  0.00  0.00    +0.216 C 
ATOM     24  O   UNL     1      -1.204   2.837   0.023  0.00  0.00    -0.276 OA
ATOM     25  H   UNL     1       0.002  -0.004   0.002  0.00  0.00    +0.149 HD
BRANCH  23  26
ATOM     26  C   UNL     1      -2.482   0.853   0.018  0.00  0.00    +0.075 C 
ATOM     27  C   UNL     1      -3.348   0.923  -1.241  0.00  0.00    +0.013 C 
ATOM     28  C   UNL     1      -3.783   1.657   0.029  0.00  0.00    +0.013 C 
ENDBRANCH  23  26
ENDBRANCH  21  22
ENDBRANCH   4  21
TORSDOF 10
