REMARK  Name = ZINC20356723
REMARK  3 active torsions:
REMARK  status: ('A' for Active; 'I' for Inactive)
REMARK    1  A    between atoms: C_1  and  C_2
REMARK    2  A    between atoms: C_14  and  C_15
REMARK    3  A    between atoms: C_18  and  C_20
REMARK                            x       y       z     vdW  Elec       q    Type
REMARK                         _______ _______ _______ _____ _____    ______ ____
ROOT
ATOM      1  C   UNL     1       0.631  -0.501  -2.274  0.00  0.00    +0.007 C 
ATOM      2  C   UNL     1       0.614  -1.973  -1.858  0.00  0.00    -0.011 C 
ATOM      3  C   UNL     1      -0.832  -2.472  -1.809  0.00  0.00    +0.022 C 
ATOM      4  C   UNL     1      -0.844  -3.955  -1.427  0.00  0.00    +0.107 C 
ATOM      5  N   UNL     1      -0.104  -4.125  -0.169  0.00  0.00    -0.308 N 
ATOM      6  C   UNL     1       1.265  -3.599  -0.078  0.00  0.00    +0.107 C 
ATOM      7  C   UNL     1       1.253  -2.120  -0.476  0.00  0.00    +0.022 C 
ATOM      8  C   UNL     1      -0.686  -4.767   0.912  0.00  0.00    +0.182 C 
ATOM      9  N   UNL     1      -0.184  -5.001   2.098  0.00  0.00    -0.149 NA
ATOM     10  N   UNL     1      -0.919  -5.652   3.066  0.00  0.00    -0.150 N 
ATOM     11  C   UNL     1      -0.513  -5.872   4.398  0.00  0.00    +0.153 C 
ATOM     12  N   UNL     1       0.394  -5.146   5.002  0.00  0.00    -0.283 NA
ATOM     13  C   UNL     1      -1.216  -7.009   5.050  0.00  0.00    +0.084 C 
ATOM     14  C   UNL     1      -0.591  -7.809   5.995  0.00  0.00    +0.063 C 
ATOM     15  C   UNL     1      -2.620  -7.240   4.638  0.00  0.00    +0.273 C 
ATOM     16  O   UNL     1      -3.408  -7.802   5.382  0.00  0.00    -0.268 OA
ATOM     17  N   UNL     1      -3.001  -6.811   3.418  0.00  0.00    -0.152 NA
ATOM     18  C   UNL     1      -2.168  -6.101   2.700  0.00  0.00    +0.182 C 
ATOM     19  S   UNL     1      -2.319  -5.483   1.045  0.00  0.00    -0.018 S 
ATOM     20  H   UNL     1       0.823  -4.415   4.531  0.00  0.00    +0.188 HD
ENDROOT
BRANCH  14  21
ATOM     21  C   UNL     1       0.787  -7.676   6.227  0.00  0.00    +0.129 A 
ATOM     22  C   UNL     1       1.510  -8.311   7.226  0.00  0.00    +0.050 A 
ATOM     23  C   UNL     1       2.834  -7.896   7.092  0.00  0.00    +0.050 A 
ATOM     24  C   UNL     1       2.878  -7.026   6.023  0.00  0.00    +0.136 A 
ATOM     25  O   UNL     1       1.640  -6.910   5.512  0.00  0.00    -0.455 OA
BRANCH  24  26
ATOM     26  C   UNL     1       4.085  -6.341   5.520  0.00  0.00    +0.017 A 
ATOM     27  C   UNL     1       5.321  -6.556   6.135  0.00  0.00    +0.012 A 
ATOM     28  C   UNL     1       6.444  -5.913   5.659  0.00  0.00    +0.016 A 
ATOM     29  C   UNL     1       6.349  -5.056   4.575  0.00  0.00    +0.018 A 
ATOM     30  C   UNL     1       5.127  -4.840   3.961  0.00  0.00    +0.016 A 
ATOM     31  C   UNL     1       3.997  -5.480   4.423  0.00  0.00    +0.012 A 
ATOM     32 BR   UNL     1       7.895  -4.179   3.930  0.00  0.00    -0.050 Br
ENDBRANCH  24  26
ENDBRANCH  14  21
TORSDOF 2
