REMARK  Name = ZINC02501777
REMARK  8 active torsions:
REMARK  status: ('A' for Active; 'I' for Inactive)
REMARK    1  A    between atoms: C_1  and  C_2
REMARK    2  A    between atoms: C_5  and  N_30
REMARK    3  A    between atoms: C_7  and  N_8
REMARK    4  A    between atoms: C_11  and  C_18
REMARK    5  A    between atoms: C_13  and  C_16
REMARK    6  A    between atoms: C_14  and  N_15
REMARK    7  A    between atoms: C_20  and  C_24
REMARK    8  A    between atoms: C_22  and  C_23
REMARK                            x       y       z     vdW  Elec       q    Type
REMARK                         _______ _______ _______ _____ _____    ______ ____
ROOT
ATOM      1  N   UNL     1      -2.513   3.881   0.049  0.00  0.00    -0.260 N 
ATOM      2  C   UNL     1      -1.306   3.233   0.018  0.00  0.00    +0.024 C 
ATOM      3  C   UNL     1      -1.249   1.884   0.018  0.00  0.00    +0.025 C 
ATOM      4  C   UNL     1      -2.509   1.055   0.045  0.00  0.00    +0.098 C 
ATOM      5  C   UNL     1      -3.686   1.870   0.494  0.00  0.00    +0.077 C 
ATOM      6  C   UNL     1      -3.647   3.227   0.477  0.00  0.00    +0.107 C 
ATOM      7  C   UNL     1      -0.014   1.211   0.009  0.00  0.00    +0.162 C 
ATOM      8  O   UNL     1       0.002  -0.004   0.002  0.00  0.00    -0.292 OA
ATOM      9  C   UNL     1       1.286   1.967   0.000  0.00  0.00    +0.080 C 
ATOM     10  C   UNL     1       1.082   3.318   0.694  0.00  0.00    +0.014 C 
ATOM     11  C   UNL     1      -0.047   4.064  -0.020  0.00  0.00    +0.052 C 
ENDROOT
BRANCH   1  18
ATOM     12  C   UNL     1      -2.143   5.907   2.013  0.00  0.00    +0.045 C 
ATOM     13  C   UNL     1      -2.420   6.238   0.569  0.00  0.00    -0.029 A 
ATOM     14  C   UNL     1      -2.495   7.556   0.164  0.00  0.00    +0.007 A 
ATOM     15  C   UNL     1      -2.754   7.861  -1.160  0.00  0.00    +0.033 A 
ATOM     16  C   UNL     1      -2.933   6.847  -2.083  0.00  0.00    +0.128 A 
ATOM     17  C   UNL     1      -2.854   5.527  -1.686  0.00  0.00    +0.056 A 
ATOM     18  C   UNL     1      -2.594   5.218  -0.357  0.00  0.00    +0.045 A 
BRANCH  16  19
ATOM     19  N   UNL     1      -3.211   7.177  -3.499  0.00  0.00    +0.056 N 
ATOM     20  O   UNL     1      -3.369   6.285  -4.313  0.00  0.00    -0.126 OA
ATOM     21  O   UNL     1      -3.280   8.341  -3.851  0.00  0.00    -0.126 OA
ENDBRANCH  16  19
ENDBRANCH   1  18
BRANCH   4  22
ATOM     22  C   UNL     1      -2.775   0.525  -1.341  0.00  0.00    -0.025 A 
ATOM     23  C   UNL     1      -2.999   1.394  -2.393  0.00  0.00    +0.015 A 
ATOM     24  C   UNL     1      -3.235   0.885  -3.627  0.00  0.00    -0.013 A 
ATOM     25  S   UNL     1      -3.145  -0.872  -3.325  0.00  0.00    -0.098 S 
ATOM     26  C   UNL     1      -2.792  -0.809  -1.575  0.00  0.00    -0.009 A 
ATOM     27  C   UNL     1      -2.573  -1.946  -0.610  0.00  0.00    +0.052 C 
ATOM     28  C   UNL     1      -3.505   1.613  -4.918  0.00  0.00    +0.051 C 
ENDBRANCH   4  22
BRANCH   6  29
ATOM     29  N   UNL     1      -4.741   3.950   0.888  0.00  0.00    -0.345 N 
ATOM     30  H   UNL     1      -4.714   4.920   0.876  0.00  0.00    +0.144 HD
ATOM     31  H   UNL     1      -5.540   3.491   1.190  0.00  0.00    +0.144 HD
ENDBRANCH   6  29
BRANCH   5  32
ATOM     32  C   UNL     1      -4.869   1.205   0.950  0.00  0.00    +0.099 C 
ATOM     33  N   UNL     1      -5.808   0.678   1.311  0.00  0.00    -0.191 NA
ENDBRANCH   5  32
TORSDOF 5
