REMARK  Name = ZINC39293298
REMARK  10 active torsions:
REMARK  status: ('A' for Active; 'I' for Inactive)
REMARK    1  A    between atoms: C_1  and  N_2
REMARK    2  A    between atoms: N_2  and  C_3
REMARK    3  A    between atoms: N_2  and  C_4
REMARK    4  A    between atoms: C_4  and  C_5
REMARK    5  A    between atoms: C_5  and  C_6
REMARK    6  A    between atoms: C_6  and  N_7
REMARK    7  A    between atoms: C_12  and  N_14
REMARK    8  A    between atoms: C_20  and  O_35
REMARK    9  A    between atoms: C_31  and  O_32
REMARK   10  A    between atoms: O_32  and  C_33
REMARK                            x       y       z     vdW  Elec       q    Type
REMARK                         _______ _______ _______ _____ _____    ______ ____
ROOT
ATOM      1  N   UNL     1       8.575  -0.021  -4.256  0.00  0.00    -0.311 N 
ATOM      2  C   UNL     1       9.023   0.721  -3.093  0.00  0.00    +0.108 C 
ATOM      3  C   UNL     1       9.347   2.190  -3.360  0.00  0.00    +0.038 C 
ATOM      4  C   UNL     1      10.527   2.245  -4.339  0.00  0.00    +0.056 C 
ATOM      5  C   UNL     1      11.682   1.446  -3.832  0.00  0.00    -0.013 C 
ATOM      6  C   UNL     1      12.322   2.015  -2.819  0.00  0.00    +0.001 C 
ATOM      7  C   UNL     1      11.910   3.309  -2.196  0.00  0.00    +0.141 C 
ATOM      8  C   UNL     1      11.200   4.289  -3.134  0.00  0.00    +0.081 C 
ATOM      9  C   UNL     1      11.088   3.679  -4.500  0.00  0.00    +0.191 C 
ATOM     10  O   UNL     1      10.288   4.247  -5.515  0.00  0.00    -0.484 OA
ATOM     11  C   UNL     1       9.919   3.241  -6.357  0.00  0.00    +0.167 A 
ATOM     12  C   UNL     1       9.995   2.002  -5.707  0.00  0.00    +0.016 A 
ATOM     13  C   UNL     1       9.522   0.836  -6.279  0.00  0.00    -0.022 A 
ATOM     14  C   UNL     1       9.107   0.876  -7.586  0.00  0.00    +0.009 A 
ATOM     15  C   UNL     1       9.116   2.077  -8.281  0.00  0.00    +0.050 A 
ATOM     16  C   UNL     1       9.505   3.276  -7.689  0.00  0.00    +0.162 A 
ATOM     17  C   UNL     1       9.476  -0.384  -5.368  0.00  0.00    +0.142 C 
ENDROOT
BRANCH   1  23
ATOM     18  N   UNL     1       4.379  -0.499  -2.212  0.00  0.00    -0.315 N 
ATOM     19  C   UNL     1       5.182  -0.651  -3.330  0.00  0.00    +0.195 A 
ATOM     20  N   UNL     1       4.661  -1.164  -4.435  0.00  0.00    -0.334 N 
ATOM     21  C   UNL     1       5.397  -1.324  -5.524  0.00  0.00    +0.089 A 
ATOM     22  C   UNL     1       6.726  -0.949  -5.503  0.00  0.00    +0.061 A 
ATOM     23  C   UNL     1       7.248  -0.411  -4.324  0.00  0.00    +0.126 A 
ATOM     24  N   UNL     1       6.450  -0.274  -3.269  0.00  0.00    -0.201 NA
ATOM     25  H   UNL     1       4.747  -0.121  -1.399  0.00  0.00    +0.149 HD
ATOM     26  H   UNL     1       3.727  -1.426  -4.446  0.00  0.00    +0.168 HD
BRANCH  18  27
ATOM     27  C   UNL     1       2.974  -0.910  -2.259  0.00  0.00    +0.102 C 
BRANCH  27  28
ATOM     28  C   UNL     1       2.317  -0.637  -0.904  0.00  0.00    +0.000 C 
BRANCH  28  29
ATOM     29  C   UNL     1       0.849  -1.066  -0.953  0.00  0.00    -0.078 C 
BRANCH  29  31
ATOM     30  C   UNL     1       0.194   0.643   0.597  0.00  0.00    -0.097 C 
ATOM     31  N   UNL     1       0.219  -0.804   0.348  0.00  0.00    +0.376 N 
ATOM     32  C   UNL     1      -1.154  -1.324   0.340  0.00  0.00    -0.097 C 
ATOM     33  H   UNL     1       0.748  -1.261   1.076  0.00  0.00    -0.083 HD
ENDBRANCH  29  31
ENDBRANCH  28  29
ENDBRANCH  27  28
ENDBRANCH  18  27
ENDBRANCH   1  23
BRANCH  16  34
ATOM     34  O   UNL     1       9.482   4.444  -8.387  0.00  0.00    -0.491 OA
ATOM     35  C   UNL     1       9.042   4.379  -9.745  0.00  0.00    +0.277 C 
ENDBRANCH  16  34
BRANCH   7  36
ATOM     36  O   UNL     1      11.034   3.023  -1.103  0.00  0.00    -0.388 OA
ATOM     37  H   UNL     1      11.432   2.476  -0.413  0.00  0.00    +0.210 HD
ENDBRANCH   7  36
TORSDOF 7
