REMARK  Name = ZINC09629921
REMARK  7 active torsions:
REMARK  status: ('A' for Active; 'I' for Inactive)
REMARK    1  A    between atoms: C_1  and  N_48
REMARK    2  A    between atoms: C_7  and  N_12
REMARK    3  A    between atoms: C_8  and  C_9
REMARK    4  A    between atoms: C_13  and  C_15
REMARK    5  A    between atoms: C_15  and  C_16
REMARK    6  A    between atoms: C_16  and  S_17
REMARK    7  A    between atoms: S_17  and  C_20
REMARK                            x       y       z     vdW  Elec       q    Type
REMARK                         _______ _______ _______ _____ _____    ______ ____
ROOT
ATOM      1  C   UNL     1       7.678  -2.237  -0.308  0.00  0.00    -0.096 C 
ATOM      2  C   UNL     1       7.045  -0.001   0.374  0.00  0.00    -0.074 C 
ATOM      3  C   UNL     1       6.217   1.215  -0.050  0.00  0.00    +0.018 C 
ATOM      4  C   UNL     1       4.746   0.814  -0.040  0.00  0.00    -0.027 A 
ATOM      5  C   UNL     1       4.399  -0.493  -0.044  0.00  0.00    -0.021 A 
ATOM      6  S   UNL     1       2.630  -0.489  -0.026  0.00  0.00    -0.079 S 
ATOM      7  C   UNL     1       2.354   1.221  -0.014  0.00  0.00    +0.084 A 
ATOM      8  C   UNL     1       3.638   1.750  -0.029  0.00  0.00    +0.068 A 
ATOM      9  C   UNL     1       5.334  -1.661  -0.062  0.00  0.00    -0.036 C 
ATOM     10  N   UNL     1       6.674  -1.163  -0.460  0.00  0.00    +0.381 N 
ATOM     11  H   UNL     1       6.643  -0.872  -1.444  0.00  0.00    -0.082 HD
ENDROOT
BRANCH   8  12
ATOM     12  C   UNL     1       3.864   3.199  -0.031  0.00  0.00    +0.244 C 
ATOM     13  O   UNL     1       3.972   3.799   1.023  0.00  0.00    -0.270 OA
ATOM     14  N   UNL     1       3.954   3.865  -1.198  0.00  0.00    -0.325 N 
ATOM     15  H   UNL     1       3.869   3.387  -2.038  0.00  0.00    +0.145 HD
ATOM     16  H   UNL     1       4.104   4.824  -1.200  0.00  0.00    +0.145 HD
ENDBRANCH   8  12
BRANCH   7  17
ATOM     17  N   UNL     1       1.143   1.898   0.001  0.00  0.00    -0.279 N 
ATOM     18  C   UNL     1      -0.014   1.209   0.009  0.00  0.00    +0.219 C 
ATOM     19  O   UNL     1       0.002  -0.004   0.002  0.00  0.00    -0.275 OA
ATOM     20  H   UNL     1       1.130   2.868   0.007  0.00  0.00    +0.155 HD
BRANCH  18  21
ATOM     21  C   UNL     1      -1.330   1.944   0.019  0.00  0.00    +0.119 C 
BRANCH  21  22
ATOM     22  C   UNL     1      -2.479   0.934   0.019  0.00  0.00    +0.181 C 
BRANCH  22  23
ATOM     23  S   UNL     1      -4.062   1.820   0.031  0.00  0.00    -0.003 S 
ATOM     24  O   UNL     1      -4.237   2.493   1.270  0.00  0.00    -0.169 OA
ATOM     25  O   UNL     1      -4.248   2.507  -1.199  0.00  0.00    -0.169 OA
BRANCH  23  26
ATOM     26  C   UNL     1      -5.288   0.555   0.030  0.00  0.00    +0.088 A 
ATOM     27  C   UNL     1      -5.779   0.069  -1.168  0.00  0.00    +0.028 A 
ATOM     28  C   UNL     1      -6.737  -0.927  -1.169  0.00  0.00    +0.022 A 
ATOM     29  C   UNL     1      -7.213  -1.430   0.029  0.00  0.00    +0.041 A 
ATOM     30  C   UNL     1      -6.726  -0.940   1.227  0.00  0.00    +0.022 A 
ATOM     31  C   UNL     1      -5.764   0.052   1.227  0.00  0.00    +0.028 A 
ATOM     32 CL   UNL     1      -8.421  -2.677   0.027  0.00  0.00    -0.084 Cl
ENDBRANCH  23  26
ENDBRANCH  22  23
ENDBRANCH  21  22
ENDBRANCH  18  21
ENDBRANCH   7  17
TORSDOF 6
