REMARK  Name = ZINC64057154
REMARK  6 active torsions:
REMARK  status: ('A' for Active; 'I' for Inactive)
REMARK    1  A    between atoms: C_1  and  C_2
REMARK    2  A    between atoms: C_2  and  C_4
REMARK    3  A    between atoms: C_2  and  S_15
REMARK    4  A    between atoms: C_4  and  C_6
REMARK    5  A    between atoms: S_15  and  C_16
REMARK    6  A    between atoms: N_22  and  C_23
REMARK                            x       y       z     vdW  Elec       q    Type
REMARK                         _______ _______ _______ _____ _____    ______ ____
ROOT
ATOM      1  S   UNL     1       1.231  -1.220   1.897  0.00  0.00    -0.115 S 
ENDROOT
BRANCH   1   2
ATOM      2  C   UNL     1       1.069  -2.972   1.453  0.00  0.00    +0.212 C 
ATOM      3  N   UNL     1       1.589  -3.234   0.092  0.00  0.00    -0.244 N 
ATOM      4  N   UNL     1       0.660  -3.697  -0.812  0.00  0.00    -0.163 NA
ATOM      5  C   UNL     1      -0.586  -3.897  -0.514  0.00  0.00    +0.178 C 
ATOM      6  S   UNL     1      -0.694  -3.441   1.210  0.00  0.00    -0.054 S 
ATOM      7  N   UNL     1      -1.601  -4.358  -1.343  0.00  0.00    -0.293 N 
ATOM      8  H   UNL     1       2.519  -3.089  -0.145  0.00  0.00    +0.170 HD
ATOM      9  H   UNL     1      -2.515  -4.389  -1.020  0.00  0.00    +0.154 HD
BRANCH   7  10
ATOM     10  C   UNL     1      -1.306  -4.778  -2.643  0.00  0.00    +0.033 A 
ATOM     11  C   UNL     1      -0.036  -5.252  -2.949  0.00  0.00    +0.023 A 
ATOM     12  C   UNL     1       0.253  -5.666  -4.234  0.00  0.00    +0.002 A 
ATOM     13  C   UNL     1      -0.720  -5.611  -5.216  0.00  0.00    +0.000 A 
ATOM     14  C   UNL     1      -1.985  -5.140  -4.914  0.00  0.00    +0.002 A 
ATOM     15  C   UNL     1      -2.282  -4.729  -3.629  0.00  0.00    +0.023 A 
ENDBRANCH   7  10
ENDBRANCH   1   2
BRANCH   1  17
ATOM     16  C   UNL     1       0.318   1.134   0.846  0.00  0.00    +0.027 C 
ATOM     17  C   UNL     1       0.506  -0.341   0.485  0.00  0.00    +0.117 C 
BRANCH  17  18
ATOM     18  C   UNL     1       1.425  -0.455  -0.704  0.00  0.00    +0.174 C 
ATOM     19  O   UNL     1       2.613  -0.643  -0.537  0.00  0.00    -0.291 OA
BRANCH  18  20
ATOM     20  C   UNL     1       0.905  -0.342  -2.010  0.00  0.00    +0.024 C 
ATOM     21  C   UNL     1       1.607  -0.427  -3.200  0.00  0.00    +0.006 A 
ATOM     22  C   UNL     1       2.974  -0.638  -3.498  0.00  0.00    +0.010 A 
ATOM     23  C   UNL     1       3.393  -0.676  -4.783  0.00  0.00    +0.001 A 
ATOM     24  C   UNL     1       2.516  -0.511  -5.867  0.00  0.00    +0.002 A 
ATOM     25  C   UNL     1       1.193  -0.304  -5.691  0.00  0.00    +0.026 A 
ATOM     26  C   UNL     1       0.653  -0.249  -4.322  0.00  0.00    +0.043 A 
ATOM     27  N   UNL     1      -0.555  -0.066  -3.870  0.00  0.00    -0.380 N 
ATOM     28  C   UNL     1      -0.536  -0.108  -2.405  0.00  0.00    +0.152 C 
ATOM     29  H   UNL     1      -1.344   0.072  -4.418  0.00  0.00    +0.160 HD
ENDBRANCH  18  20
ENDBRANCH  17  18
ENDBRANCH   1  17
TORSDOF 5
