REMARK  Name = ZINC08559819
REMARK  2 active torsions:
REMARK  status: ('A' for Active; 'I' for Inactive)
REMARK    1  A    between atoms: C_4  and  N_7
REMARK    2  A    between atoms: C_11  and  N_14
REMARK                            x       y       z     vdW  Elec       q    Type
REMARK                         _______ _______ _______ _____ _____    ______ ____
ROOT
ATOM      1  N   UNL     1      -1.016  -1.128  -3.581  0.00  0.00    -0.202 N 
ATOM      2  C   UNL     1      -1.631  -0.131  -4.239  0.00  0.00    +0.252 C 
ATOM      3  O   UNL     1      -2.125  -0.215  -5.347  0.00  0.00    -0.270 OA
ATOM      4  C   UNL     1      -1.610   1.073  -3.404  0.00  0.00    +0.096 C 
ATOM      5  C   UNL     1      -0.969   0.744  -2.255  0.00  0.00    +0.098 C 
ATOM      6  C   UNL     1      -0.583  -0.688  -2.386  0.00  0.00    +0.272 C 
ATOM      7  O   UNL     1       0.014  -1.343  -1.558  0.00  0.00    -0.268 OA
ENDROOT
BRANCH   5   8
ATOM      8  N   UNL     1      -0.721   1.571  -1.182  0.00  0.00    -0.321 N 
ATOM      9  C   UNL     1      -1.154   2.978  -1.183  0.00  0.00    +0.110 C 
ATOM     10  C   UNL     1      -2.189   3.151  -0.072  0.00  0.00    +0.054 C 
ATOM     11  C   UNL     1      -1.709   2.524   1.210  0.00  0.00    -0.041 A 
ATOM     12  C   UNL     1      -2.309   2.938   2.394  0.00  0.00    +0.004 A 
ATOM     13  C   UNL     1      -1.923   2.398   3.603  0.00  0.00    +0.000 A 
ATOM     14  C   UNL     1      -0.931   1.436   3.640  0.00  0.00    +0.000 A 
ATOM     15  C   UNL     1      -0.331   1.026   2.468  0.00  0.00    +0.005 A 
ATOM     16  C   UNL     1      -0.717   1.571   1.250  0.00  0.00    -0.027 A 
ATOM     17  C   UNL     1      -0.013   1.086   0.008  0.00  0.00    +0.140 C 
ENDBRANCH   5   8
BRANCH   1  21
ATOM     18  C   UNL     1      -0.504  -5.002  -5.034  0.00  0.00    +0.000 A 
ATOM     19  C   UNL     1      -1.157  -4.056  -5.804  0.00  0.00    +0.002 A 
ATOM     20  C   UNL     1      -1.328  -2.772  -5.325  0.00  0.00    +0.024 A 
ATOM     21  C   UNL     1      -0.844  -2.431  -4.069  0.00  0.00    +0.045 A 
ATOM     22  C   UNL     1      -0.184  -3.381  -3.301  0.00  0.00    +0.024 A 
ATOM     23  C   UNL     1      -0.021  -4.665  -3.783  0.00  0.00    +0.002 A 
ENDBRANCH   1  21
TORSDOF 2
