REMARK  Name = ZINC39946033
REMARK  11 active torsions:
REMARK  status: ('A' for Active; 'I' for Inactive)
REMARK    1  A    between atoms: C_1  and  C_2
REMARK    2  A    between atoms: C_2  and  C_4
REMARK    3  A    between atoms: C_2  and  O_32
REMARK    4  A    between atoms: C_4  and  C_6
REMARK    5  A    between atoms: C_4  and  N_21
REMARK    6  A    between atoms: C_6  and  O_8
REMARK    7  A    between atoms: O_8  and  C_9
REMARK    8  A    between atoms: C_9  and  C_10
REMARK    9  A    between atoms: C_10  and  C_12
REMARK   10  A    between atoms: N_21  and  S_22
REMARK   11  A    between atoms: S_22  and  C_25
REMARK                            x       y       z     vdW  Elec       q    Type
REMARK                         _______ _______ _______ _____ _____    ______ ____
ROOT
ATOM      1  C   UNL     1       0.718  -0.497  -1.257  0.00  0.00    +0.213 C 
ENDROOT
BRANCH   1   3
ATOM      2  C   UNL     1      -0.019   1.526   0.010  0.00  0.00    +0.040 C 
ATOM      3  C   UNL     1       0.002  -0.004   0.002  0.00  0.00    +0.141 C 
BRANCH   3   4
ATOM      4  O   UNL     1      -1.339  -0.499   0.012  0.00  0.00    -0.390 OA
ATOM      5  H   UNL     1      -1.853  -0.225   0.784  0.00  0.00    +0.210 HD
ENDBRANCH   3   4
ENDBRANCH   1   3
BRANCH   1   6
ATOM      6  C   UNL     1       0.632  -2.000  -1.327  0.00  0.00    +0.329 C 
ATOM      7  O   UNL     1       0.093  -2.531  -2.270  0.00  0.00    -0.249 OA
BRANCH   6   8
ATOM      8  O   UNL     1       1.153  -2.750  -0.343  0.00  0.00    -0.455 OA
BRANCH   8   9
ATOM      9  C   UNL     1       1.035  -4.168  -0.476  0.00  0.00    +0.311 C 
BRANCH   9  10
ATOM     10  C   UNL     1       1.672  -4.838   0.714  0.00  0.00    +0.199 C 
ATOM     11  O   UNL     1       2.178  -4.167   1.591  0.00  0.00    -0.289 OA
BRANCH  10  12
ATOM     12  C   UNL     1       1.681  -6.246   0.810  0.00  0.00    +0.026 C 
ATOM     13  C   UNL     1       2.215  -7.011   1.831  0.00  0.00    +0.006 A 
ATOM     14  C   UNL     1       2.883  -6.681   3.033  0.00  0.00    +0.010 A 
ATOM     15  C   UNL     1       3.309  -7.656   3.866  0.00  0.00    +0.001 A 
ATOM     16  C   UNL     1       3.116  -9.020   3.592  0.00  0.00    +0.002 A 
ATOM     17  C   UNL     1       2.490  -9.442   2.472  0.00  0.00    +0.026 A 
ATOM     18  C   UNL     1       1.994  -8.443   1.510  0.00  0.00    +0.043 A 
ATOM     19  N   UNL     1       1.369  -8.565   0.374  0.00  0.00    -0.380 N 
ATOM     20  C   UNL     1       1.102  -7.234  -0.179  0.00  0.00    +0.152 C 
ATOM     21  H   UNL     1       1.116  -9.405  -0.040  0.00  0.00    +0.160 HD
ENDBRANCH  10  12
ENDBRANCH   9  10
ENDBRANCH   8   9
ENDBRANCH   6   8
ENDBRANCH   1   6
BRANCH   1  22
ATOM     22  N   UNL     1       0.081   0.085  -2.441  0.00  0.00    -0.174 NA
ATOM     23  H   UNL     1      -0.699  -0.341  -2.830  0.00  0.00    +0.149 HD
BRANCH  22  24
ATOM     24  S   UNL     1       0.693   1.468  -3.114  0.00  0.00    +0.059 S 
ATOM     25  O   UNL     1      -0.115   1.761  -4.246  0.00  0.00    -0.153 OA
ATOM     26  O   UNL     1       0.875   2.392  -2.049  0.00  0.00    -0.153 OA
BRANCH  24  27
ATOM     27  C   UNL     1       2.299   1.084  -3.727  0.00  0.00    +0.105 A 
ATOM     28  C   UNL     1       3.405   1.231  -2.910  0.00  0.00    +0.030 A 
ATOM     29  C   UNL     1       4.665   0.929  -3.390  0.00  0.00    +0.022 A 
ATOM     30  C   UNL     1       4.820   0.479  -4.690  0.00  0.00    +0.041 A 
ATOM     31  C   UNL     1       3.714   0.333  -5.507  0.00  0.00    +0.022 A 
ATOM     32  C   UNL     1       2.453   0.629  -5.024  0.00  0.00    +0.030 A 
ATOM     33 CL   UNL     1       6.403   0.101  -5.294  0.00  0.00    -0.084 Cl
ENDBRANCH  24  27
ENDBRANCH  22  24
ENDBRANCH   1  22
TORSDOF 10
