REMARK  Name = ZINC42135883
REMARK  5 active torsions:
REMARK  status: ('A' for Active; 'I' for Inactive)
REMARK    1  A    between atoms: C_1  and  N_2
REMARK    2  A    between atoms: N_2  and  C_3
REMARK    3  A    between atoms: N_2  and  C_4
REMARK    4  A    between atoms: C_9  and  N_10
REMARK    5  A    between atoms: N_10  and  C_11
REMARK                            x       y       z     vdW  Elec       q    Type
REMARK                         _______ _______ _______ _____ _____    ______ ____
ROOT
ATOM      1  N   UNL     1      -1.215  -0.756   2.441  0.00  0.00    -0.327 N 
ATOM      2  H   UNL     1      -0.381  -0.260   2.459  0.00  0.00    +0.147 HD
ENDROOT
BRANCH   1   3
ATOM      3  C   UNL     1      -1.859  -1.153   3.696  0.00  0.00    +0.191 C 
ATOM      4  C   UNL     1      -1.414  -0.254   4.827  0.00  0.00    +0.021 A 
ATOM      5  C   UNL     1      -0.780  -1.075   5.751  0.00  0.00    +0.040 A 
ATOM      6  C   UNL     1      -0.261  -0.506   6.913  0.00  0.00    +0.024 A 
ATOM      7  C   UNL     1      -0.381   0.851   7.134  0.00  0.00    +0.003 A 
ATOM      8  C   UNL     1      -1.014   1.657   6.207  0.00  0.00    +0.020 A 
ATOM      9  C   UNL     1      -1.532   1.100   5.049  0.00  0.00    +0.048 A 
ATOM     10 CL   UNL     1      -2.329   2.107   3.881  0.00  0.00    -0.083 Cl
ATOM     11  N   UNL     1      -0.786  -2.397   5.307  0.00  0.00    -0.283 N 
ATOM     12  C   UNL     1      -1.397  -2.533   4.115  0.00  0.00    +0.242 C 
ATOM     13  O   UNL     1      -1.550  -3.563   3.493  0.00  0.00    -0.273 OA
ATOM     14  H   UNL     1      -0.395  -3.135   5.800  0.00  0.00    +0.155 HD
ENDBRANCH   1   3
BRANCH   1  20
ATOM     15  C   UNL     1      -1.196  -0.718   0.010  0.00  0.00    +0.053 A 
ATOM     16  C   UNL     1      -1.819  -1.082  -1.181  0.00  0.00    +0.042 A 
ATOM     17  C   UNL     1      -3.004  -1.789  -1.132  0.00  0.00    +0.084 A 
ATOM     18  N   UNL     1      -3.549  -2.120   0.023  0.00  0.00    -0.365 N 
ATOM     19  C   UNL     1      -2.994  -1.796   1.176  0.00  0.00    +0.107 A 
ATOM     20  C   UNL     1      -1.802  -1.092   1.215  0.00  0.00    +0.065 A 
ATOM     21  H   UNL     1      -4.382  -2.617   0.025  0.00  0.00    +0.165 HD
BRANCH  15  23
ATOM     22  C   UNL     1      -0.018   1.461   0.010  0.00  0.00    +0.129 C 
ATOM     23  N   UNL     1       0.002  -0.004   0.002  0.00  0.00    -0.335 N 
ATOM     24  C   UNL     1       1.281  -0.719  -0.014  0.00  0.00    +0.129 C 
ENDBRANCH  15  23
ENDBRANCH   1  20
TORSDOF 3
