REMARK  Name = ZINC04259289
REMARK  8 active torsions:
REMARK  status: ('A' for Active; 'I' for Inactive)
REMARK    1  A    between atoms: C_1  and  C_2
REMARK    2  A    between atoms: C_3  and  N_9
REMARK    3  A    between atoms: C_10  and  C_12
REMARK    4  A    between atoms: N_14  and  N_15
REMARK    5  A    between atoms: C_16  and  C_17
REMARK    6  A    between atoms: C_22  and  O_23
REMARK    7  A    between atoms: O_23  and  C_24
REMARK    8  A    between atoms: C_24  and  C_25
REMARK                            x       y       z     vdW  Elec       q    Type
REMARK                         _______ _______ _______ _____ _____    ______ ____
ROOT
ATOM      1  N   UNL     1       3.844  -0.752  -3.869  0.00  0.00    -0.187 NA
ATOM      2  C   UNL     1       4.970  -1.377  -4.047  0.00  0.00    +0.142 C 
ENDROOT
BRANCH   2   3
ATOM      3  C   UNL     1       5.764  -1.807  -2.884  0.00  0.00    +0.037 A 
ATOM      4  C   UNL     1       6.975  -2.480  -3.070  0.00  0.00    +0.028 A 
ATOM      5  C   UNL     1       7.714  -2.880  -1.976  0.00  0.00    +0.019 A 
ATOM      6  C   UNL     1       7.261  -2.617  -0.693  0.00  0.00    +0.019 A 
ATOM      7  C   UNL     1       6.068  -1.948  -0.496  0.00  0.00    +0.047 A 
ATOM      8  C   UNL     1       5.311  -1.544  -1.583  0.00  0.00    +0.130 A 
ATOM      9 BR   UNL     1       9.351  -3.791  -2.228  0.00  0.00    -0.050 Br
BRANCH   8  10
ATOM     10  O   UNL     1       4.136  -0.890  -1.391  0.00  0.00    -0.487 OA
BRANCH  10  11
ATOM     11  C   UNL     1       3.738  -0.657  -0.038  0.00  0.00    +0.264 C 
BRANCH  11  12
ATOM     12  C   UNL     1       2.420   0.075  -0.021  0.00  0.00    -0.010 A 
ATOM     13  C   UNL     1       1.235  -0.637  -0.004  0.00  0.00    +0.007 A 
ATOM     14  C   UNL     1       0.027   0.034   0.011  0.00  0.00    +0.000 A 
ATOM     15  C   UNL     1       0.003   1.417   0.009  0.00  0.00    +0.000 A 
ATOM     16  C   UNL     1       1.189   2.128  -0.007  0.00  0.00    +0.000 A 
ATOM     17  C   UNL     1       2.397   1.457  -0.022  0.00  0.00    +0.007 A 
ENDBRANCH  11  12
ENDBRANCH  10  11
ENDBRANCH   8  10
ENDBRANCH   2   3
BRANCH   1  20
ATOM     18  C   UNL     1       1.921   0.306  -4.792  0.00  0.00    +0.318 C 
ATOM     19  O   UNL     1       1.525   0.535  -3.667  0.00  0.00    -0.263 OA
ATOM     20  N   UNL     1       3.088  -0.343  -4.976  0.00  0.00    -0.199 N 
ATOM     21  H   UNL     1       3.447  -0.551  -5.994  0.00  0.00    +0.178 HD
BRANCH  18  23
ATOM     22  N   UNL     1      -0.051   1.389  -5.785  0.00  0.00    -0.277 N 
ATOM     23  C   UNL     1       1.117   0.741  -5.969  0.00  0.00    +0.305 C 
ATOM     24  O   UNL     1       1.513   0.511  -7.093  0.00  0.00    -0.265 OA
ATOM     25  H   UNL     1      -0.454   1.518  -4.770  0.00  0.00    +0.155 HD
BRANCH  22  28
ATOM     26  C   UNL     1      -2.864   1.741  -5.545  0.00  0.00    +0.047 C 
ATOM     27  C   UNL     1      -2.122   2.087  -6.810  0.00  0.00    -0.011 A 
ATOM     28  C   UNL     1      -0.748   1.899  -6.884  0.00  0.00    +0.038 A 
ATOM     29  C   UNL     1      -0.068   2.213  -8.054  0.00  0.00    +0.023 A 
ATOM     30  C   UNL     1      -0.760   2.716  -9.139  0.00  0.00    +0.003 A 
ATOM     31  C   UNL     1      -2.127   2.907  -9.062  0.00  0.00    +0.020 A 
ATOM     32  C   UNL     1      -2.807   2.595  -7.897  0.00  0.00    +0.046 A 
ATOM     33 CL   UNL     1      -4.524   2.836  -7.805  0.00  0.00    -0.083 Cl
ENDBRANCH  22  28
ENDBRANCH  18  23
ENDBRANCH   1  20
TORSDOF 7
