REMARK  Name = ZINC43741890
REMARK  4 active torsions:
REMARK  status: ('A' for Active; 'I' for Inactive)
REMARK    1  A    between atoms: C_1  and  C_2
REMARK    2  A    between atoms: C_18  and  C_20
REMARK    3  A    between atoms: C_20  and  N_21
REMARK    4  A    between atoms: C_27  and  C_29
REMARK                            x       y       z     vdW  Elec       q    Type
REMARK                         _______ _______ _______ _____ _____    ______ ____
ROOT
ATOM      1  C   UNL     1       0.172   1.484  -0.025  0.00  0.00    +0.011 C 
ATOM      2  C   UNL     1       0.134  -0.045  -0.030  0.00  0.00    -0.023 C 
ATOM      3  C   UNL     1       0.799  -0.572  -1.301  0.00  0.00    +0.007 C 
ATOM      4  C   UNL     1       2.232  -0.044  -1.393  0.00  0.00    +0.003 C 
ATOM      5  C   UNL     1       3.049  -0.578  -0.212  0.00  0.00    +0.037 C 
ATOM      6  C   UNL     1       2.355  -0.180   1.093  0.00  0.00    +0.096 C 
ATOM      7  C   UNL     1       0.883  -0.584   1.198  0.00  0.00    +0.030 C 
ATOM      8  C   UNL     1       0.272   0.064   2.440  0.00  0.00    +0.014 C 
ATOM      9  C   UNL     1      -1.198  -0.246   2.564  0.00  0.00    +0.042 C 
ATOM     10  C   UNL     1      -2.007   0.035   1.282  0.00  0.00    +0.181 C 
ATOM     11  C   UNL     1      -1.313  -0.523   0.050  0.00  0.00    +0.052 C 
ATOM     12  O   UNL     1      -3.185  -0.789   1.505  0.00  0.00    -0.461 OA
ATOM     13  C   UNL     1      -2.767  -1.972   2.004  0.00  0.00    +0.309 C 
ATOM     14  O   UNL     1      -3.325  -3.034   1.860  0.00  0.00    -0.251 OA
ATOM     15  C   UNL     1      -1.478  -1.748   2.763  0.00  0.00    +0.088 C 
ATOM     16  C   UNL     1       3.188  -0.170   2.373  0.00  0.00    +0.196 C 
ATOM     17  O   UNL     1       2.763   1.031   1.725  0.00  0.00    -0.368 OA
ENDROOT
BRANCH  15  18
ATOM     18  C   UNL     1      -1.677  -2.069   4.246  0.00  0.00    -0.064 C 
BRANCH  18  19
ATOM     19  N   UNL     1      -1.822  -3.521   4.417  0.00  0.00    +0.382 N 
ATOM     20  C   UNL     1      -0.572  -4.186   4.029  0.00  0.00    -0.059 C 
ATOM     21  C   UNL     1      -0.759  -5.705   4.098  0.00  0.00    +0.089 C 
ATOM     22  N   UNL     1      -1.241  -6.055   5.443  0.00  0.00    -0.299 N 
ATOM     23  C   UNL     1      -2.397  -5.319   5.979  0.00  0.00    +0.089 C 
ATOM     24  C   UNL     1      -2.132  -3.818   5.822  0.00  0.00    -0.059 C 
ATOM     25  C   UNL     1      -0.641  -7.023   6.164  0.00  0.00    +0.282 C 
ATOM     26  O   UNL     1       0.270  -7.667   5.678  0.00  0.00    -0.267 OA
ATOM     27  H   UNL     1      -2.573  -3.854   3.831  0.00  0.00    -0.082 HD
BRANCH  25  28
ATOM     28  C   UNL     1      -1.087  -7.300   7.533  0.00  0.00    +0.189 A 
ATOM     29  C   UNL     1      -0.488  -8.154   8.414  0.00  0.00    +0.054 A 
ATOM     30  C   UNL     1      -1.243  -8.110   9.597  0.00  0.00    +0.042 A 
ATOM     31  C   UNL     1      -2.258  -7.242   9.388  0.00  0.00    +0.196 A 
ATOM     32  O   UNL     1      -2.157  -6.752   8.145  0.00  0.00    -0.458 OA
ENDBRANCH  25  28
ENDBRANCH  18  19
ENDBRANCH  15  18
TORSDOF 3
