REMARK  Name = ZINC63689304
REMARK  11 active torsions:
REMARK  status: ('A' for Active; 'I' for Inactive)
REMARK    1  A    between atoms: C_1  and  C_2
REMARK    2  A    between atoms: C_2  and  C_3
REMARK    3  A    between atoms: C_2  and  N_4
REMARK    4  A    between atoms: N_4  and  C_5
REMARK    5  A    between atoms: N_4  and  C_6
REMARK    6  A    between atoms: C_6  and  C_7
REMARK    7  A    between atoms: C_12  and  C_13
REMARK    8  A    between atoms: C_13  and  N_14
REMARK    9  A    between atoms: C_15  and  C_17
REMARK   10  A    between atoms: C_20  and  S_23
REMARK   11  A    between atoms: S_23  and  N_26
REMARK                            x       y       z     vdW  Elec       q    Type
REMARK                         _______ _______ _______ _____ _____    ______ ____
ROOT
ATOM      1  N   UNL     1      -2.151  -3.403  -2.721  0.00  0.00    -0.307 N 
ATOM      2  C   UNL     1      -1.535  -3.241  -3.908  0.00  0.00    +0.244 C 
ATOM      3  O   UNL     1      -1.762  -2.253  -4.580  0.00  0.00    -0.270 OA
ATOM      4  H   UNL     1      -1.970  -4.191  -2.184  0.00  0.00    +0.149 HD
ENDROOT
BRANCH   2   5
ATOM      5  C   UNL     1      -0.584  -4.263  -4.394  0.00  0.00    +0.037 A 
ATOM      6  C   UNL     1      -0.326  -5.400  -3.627  0.00  0.00    +0.015 A 
ATOM      7  C   UNL     1       0.563  -6.351  -4.086  0.00  0.00    +0.029 A 
ATOM      8  C   UNL     1       1.198  -6.178  -5.303  0.00  0.00    +0.105 A 
ATOM      9  C   UNL     1       0.947  -5.053  -6.068  0.00  0.00    +0.029 A 
ATOM     10  C   UNL     1       0.056  -4.098  -5.623  0.00  0.00    +0.015 A 
BRANCH   8  11
ATOM     11  S   UNL     1       2.331  -7.396  -5.882  0.00  0.00    +0.056 S 
ATOM     12  O   UNL     1       3.204  -6.740  -6.791  0.00  0.00    -0.153 OA
ATOM     13  O   UNL     1       2.806  -8.087  -4.734  0.00  0.00    -0.153 OA
BRANCH  11  14
ATOM     14  N   UNL     1       1.462  -8.492  -6.768  0.00  0.00    -0.204 NA
ATOM     15  H   UNL     1       1.883  -8.964  -7.504  0.00  0.00    +0.144 HD
ATOM     16  H   UNL     1       0.532  -8.663  -6.551  0.00  0.00    +0.144 HD
ENDBRANCH  11  14
ENDBRANCH   8  11
ENDBRANCH   2   5
BRANCH   1  17
ATOM     17  C   UNL     1      -3.094  -2.390  -2.240  0.00  0.00    +0.140 C 
BRANCH  17  23
ATOM     18  C   UNL     1      -2.748  -2.422   0.239  0.00  0.00    -0.059 A 
ATOM     19  C   UNL     1      -3.163  -2.741   1.519  0.00  0.00    +0.002 A 
ATOM     20  C   UNL     1      -4.369  -3.387   1.714  0.00  0.00    +0.000 A 
ATOM     21  C   UNL     1      -5.161  -3.714   0.629  0.00  0.00    +0.000 A 
ATOM     22  C   UNL     1      -4.747  -3.394  -0.650  0.00  0.00    +0.005 A 
ATOM     23  C   UNL     1      -3.543  -2.744  -0.845  0.00  0.00    -0.029 A 
BRANCH  18  24
ATOM     24  C   UNL     1      -1.433  -1.717   0.027  0.00  0.00    -0.043 C 
BRANCH  24  25
ATOM     25  N   UNL     1      -0.407  -2.699  -0.348  0.00  0.00    +0.382 N 
ATOM     26  C   UNL     1      -0.180  -3.622   0.772  0.00  0.00    -0.095 C 
ATOM     27  H   UNL     1      -0.717  -3.219  -1.155  0.00  0.00    -0.081 HD
BRANCH  25  29
ATOM     28  C   UNL     1       1.915  -3.023  -1.057  0.00  0.00    -0.014 C 
ATOM     29  C   UNL     1       0.846  -2.000  -0.667  0.00  0.00    -0.075 C 
ATOM     30  C   UNL     1       0.610  -1.039  -1.834  0.00  0.00    -0.014 C 
ENDBRANCH  25  29
ENDBRANCH  24  25
ENDBRANCH  18  24
ENDBRANCH  17  23
ENDBRANCH   1  17
TORSDOF 8
