REMARK  Name = ZINC06280573
REMARK  11 active torsions:
REMARK  status: ('A' for Active; 'I' for Inactive)
REMARK    1  A    between atoms: C_1  and  C_2
REMARK    2  A    between atoms: C_7  and  N_8
REMARK    3  A    between atoms: C_13  and  C_15
REMARK    4  A    between atoms: C_13  and  C_29
REMARK    5  A    between atoms: C_13  and  N_69
REMARK    6  A    between atoms: C_18  and  C_28
REMARK    7  A    between atoms: C_20  and  C_27
REMARK    8  A    between atoms: N_33  and  C_34
REMARK    9  A    between atoms: C_34  and  C_35
REMARK   10  A    between atoms: C_35  and  O_36
REMARK   11  A    between atoms: O_36  and  C_37
REMARK                            x       y       z     vdW  Elec       q    Type
REMARK                         _______ _______ _______ _____ _____    ______ ____
ROOT
ATOM      1  C   UNL     1       4.969  -2.783  -0.060  0.00  0.00    +0.039 C 
ENDROOT
BRANCH   1   2
ATOM      2  C   UNL     1       3.737  -1.918  -0.138  0.00  0.00    +0.011 A 
ATOM      3  C   UNL     1       3.863  -0.569  -0.206  0.00  0.00    +0.018 A 
ATOM      4  C   UNL     1       2.647   0.243  -0.279  0.00  0.00    +0.002 A 
ATOM      5  C   UNL     1       2.713   1.639  -0.352  0.00  0.00    -0.041 A 
ATOM      6  C   UNL     1       1.560   2.368  -0.419  0.00  0.00    +0.007 A 
ATOM      7  C   UNL     1       0.323   1.737  -0.417  0.00  0.00    -0.048 A 
ATOM      8  C   UNL     1       0.235   0.364  -0.346  0.00  0.00    +0.029 A 
ATOM      9  C   UNL     1       1.395  -0.400  -0.276  0.00  0.00    +0.050 A 
ATOM     10  N   UNL     1       1.336  -1.776  -0.205  0.00  0.00    -0.322 N 
ATOM     11  H   UNL     1       0.473  -2.218  -0.203  0.00  0.00    +0.169 HD
ATOM     12  C   UNL     1       2.458  -2.514  -0.138  0.00  0.00    +0.251 A 
ATOM     13  O   UNL     1       2.368  -3.728  -0.076  0.00  0.00    -0.268 OA
ATOM     14  C   UNL     1      -0.935   2.562  -0.498  0.00  0.00    +0.044 C 
ATOM     15  C   UNL     1       4.050   2.334  -0.355  0.00  0.00    +0.044 C 
ENDBRANCH   1   2
BRANCH   1  21
ATOM     16  N   UNL     1       5.884  -5.147  -3.440  0.00  0.00    -0.333 N 
ATOM     17  C   UNL     1       4.730  -4.241  -3.525  0.00  0.00    +0.086 C 
ATOM     18  C   UNL     1       4.854  -3.159  -2.450  0.00  0.00    -0.058 C 
ATOM     19  C   UNL     1       6.079  -4.699  -1.041  0.00  0.00    -0.058 C 
ATOM     20  C   UNL     1       5.955  -5.781  -2.116  0.00  0.00    +0.086 C 
ATOM     21  N   UNL     1       4.902  -3.808  -1.124  0.00  0.00    +0.391 N 
ATOM     22  H   UNL     1       4.051  -4.368  -0.995  0.00  0.00    -0.080 HD
BRANCH  16  29
ATOM     23  C   UNL     1       8.047  -5.243  -5.285  0.00  0.00    +0.045 C 
ATOM     24  C   UNL     1       6.878  -6.190  -5.376  0.00  0.00    -0.029 A 
ATOM     25  C   UNL     1       6.835  -7.141  -6.377  0.00  0.00    +0.006 A 
ATOM     26  C   UNL     1       5.763  -8.010  -6.462  0.00  0.00    +0.020 A 
ATOM     27  C   UNL     1       4.729  -7.930  -5.544  0.00  0.00    +0.043 A 
ATOM     28  C   UNL     1       4.769  -6.984  -4.538  0.00  0.00    +0.043 A 
ATOM     29  C   UNL     1       5.843  -6.107  -4.454  0.00  0.00    +0.034 A 
ATOM     30 CL   UNL     1       3.386  -9.024  -5.654  0.00  0.00    -0.083 Cl
ENDBRANCH  16  29
ENDBRANCH   1  21
BRANCH   1  31
ATOM     31  C   UNL     1       5.017  -3.470   1.280  0.00  0.00    +0.143 A 
ATOM     32  N   UNL     1       4.280  -4.482   1.668  0.00  0.00    -0.115 NA
ATOM     33  N   UNL     1       4.619  -4.782   2.874  0.00  0.00    -0.023 NA
ATOM     34  N   UNL     1       5.548  -3.983   3.268  0.00  0.00    -0.044 NA
ATOM     35  N   UNL     1       5.821  -3.159   2.314  0.00  0.00    -0.228 N 
BRANCH  35  36
ATOM     36  C   UNL     1       6.818  -2.086   2.349  0.00  0.00    +0.175 C 
BRANCH  36  37
ATOM     37  C   UNL     1       6.167  -0.801   2.864  0.00  0.00    +0.183 C 
BRANCH  37  38
ATOM     38  O   UNL     1       7.139   0.245   2.897  0.00  0.00    -0.381 OA
ATOM     39  C   UNL     1       6.631   1.496   3.366  0.00  0.00    +0.194 C 
ENDBRANCH  37  38
ENDBRANCH  36  37
ENDBRANCH  35  36
ENDBRANCH   1  31
TORSDOF 7
