REMARK  Name = ZINC03268327
REMARK  3 active torsions:
REMARK  status: ('A' for Active; 'I' for Inactive)
REMARK    1  A    between atoms: C_1  and  C_2
REMARK    2  A    between atoms: C_5  and  C_8
REMARK    3  A    between atoms: C_9  and  C_19
REMARK                            x       y       z     vdW  Elec       q    Type
REMARK                         _______ _______ _______ _____ _____    ______ ____
ROOT
ATOM      1  C   UNL     1      -4.268   1.941   0.729  0.00  0.00    +0.052 C 
ATOM      2  C   UNL     1      -4.660   2.114   2.001  0.00  0.00    +0.012 C 
ATOM      3  S   UNL     1      -3.119   2.501   2.816  0.00  0.00    -0.055 S 
ATOM      4  C   UNL     1      -2.064   2.406   1.388  0.00  0.00    +0.186 C 
ATOM      5  N   UNL     1      -0.780   2.607   1.352  0.00  0.00    -0.110 NA
ATOM      6  S   UNL     1       0.009   2.474  -0.106  0.00  0.00    +0.073 S 
ATOM      7  O   UNL     1       0.418   1.116  -0.183  0.00  0.00    -0.151 OA
ATOM      8  O   UNL     1       0.965   3.525  -0.105  0.00  0.00    -0.151 OA
ATOM      9  C   UNL     1      -1.303   2.811  -1.321  0.00  0.00    +0.212 C 
ATOM     10  C   UNL     1      -2.487   1.886  -1.030  0.00  0.00    +0.138 C 
ATOM     11  N   UNL     1      -2.935   2.081   0.370  0.00  0.00    -0.276 N 
ATOM     12  C   UNL     1      -6.043   2.007   2.590  0.00  0.00    +0.053 C 
ENDROOT
BRANCH   1  17
ATOM     13  C   UNL     1      -8.167   0.605  -3.288  0.00  0.00    +0.044 C 
ATOM     14  C   UNL     1      -7.146   0.955  -2.236  0.00  0.00    -0.050 A 
ATOM     15  C   UNL     1      -6.005   0.184  -2.100  0.00  0.00    +0.004 A 
ATOM     16  C   UNL     1      -5.067   0.499  -1.139  0.00  0.00    +0.010 A 
ATOM     17  C   UNL     1      -5.270   1.598  -0.303  0.00  0.00    -0.003 A 
ATOM     18  C   UNL     1      -6.425   2.369  -0.443  0.00  0.00    +0.010 A 
ATOM     19  C   UNL     1      -7.353   2.046  -1.411  0.00  0.00    +0.004 A 
ENDBRANCH   1  17
TORSDOF 1
