REMARK  Name = ZINC36271637
REMARK  5 active torsions:
REMARK  status: ('A' for Active; 'I' for Inactive)
REMARK    1  A    between atoms: C_1  and  C_2
REMARK    2  A    between atoms: C_7  and  C_8
REMARK    3  A    between atoms: N_9  and  N_10
REMARK    4  A    between atoms: C_17  and  C_21
REMARK    5  A    between atoms: C_18  and  C_20
REMARK                            x       y       z     vdW  Elec       q    Type
REMARK                         _______ _______ _______ _____ _____    ______ ____
ROOT
ATOM      1  N   UNL     1       0.338   2.011   3.697  0.00  0.00    -0.185 N 
ATOM      2  C   UNL     1       0.567   1.318   4.845  0.00  0.00    +0.227 A 
ATOM      3  N   UNL     1       0.768   1.936   5.978  0.00  0.00    -0.228 NA
ATOM      4  C   UNL     1       0.756   3.263   6.046  0.00  0.00    +0.116 A 
ATOM      5  C   UNL     1       0.527   4.065   4.913  0.00  0.00    +0.077 A 
ATOM      6  C   UNL     1       0.316   3.357   3.686  0.00  0.00    +0.283 A 
ATOM      7  O   UNL     1       0.114   3.964   2.648  0.00  0.00    -0.265 OA
ATOM      8  C   UNL     1       0.547   5.495   5.159  0.00  0.00    -0.026 A 
ATOM      9  C   UNL     1       0.772   5.942   6.405  0.00  0.00    -0.008 A 
ATOM     10  S   UNL     1       0.978   4.445   7.351  0.00  0.00    -0.073 S 
ATOM     11  C   UNL     1       0.836   7.369   6.888  0.00  0.00    +0.052 C 
ATOM     12  C   UNL     1       0.317   6.466   4.030  0.00  0.00    +0.045 C 
ENDROOT
BRANCH   1  14
ATOM     13  C   UNL     1       0.268   0.021   2.473  0.00  0.00    +0.141 C 
ATOM     14  N   UNL     1       0.127   1.311   2.502  0.00  0.00    -0.170 NA
BRANCH  13  21
ATOM     15  C   UNL     1      -0.464   1.458   0.071  0.00  0.00    +0.044 C 
ATOM     16  C   UNL     1      -0.165  -0.018   0.022  0.00  0.00    -0.042 A 
ATOM     17  C   UNL     1      -0.233  -0.698  -1.177  0.00  0.00    +0.004 A 
ATOM     18  C   UNL     1       0.043  -2.053  -1.223  0.00  0.00    +0.000 A 
ATOM     19  C   UNL     1       0.387  -2.736  -0.070  0.00  0.00    +0.001 A 
ATOM     20  C   UNL     1       0.458  -2.070   1.135  0.00  0.00    +0.010 A 
ATOM     21  C   UNL     1       0.188  -0.700   1.189  0.00  0.00    -0.002 A 
ENDBRANCH  13  21
ENDBRANCH   1  14
TORSDOF 2
