REMARK  Name = ZINC36813053
REMARK  4 active torsions:
REMARK  status: ('A' for Active; 'I' for Inactive)
REMARK    1  A    between atoms: C_4  and  N_9
REMARK    2  A    between atoms: C_5  and  C_7
REMARK    3  A    between atoms: N_9  and  C_10
REMARK    4  A    between atoms: C_19  and  N_20
REMARK                            x       y       z     vdW  Elec       q    Type
REMARK                         _______ _______ _______ _____ _____    ______ ____
ROOT
ATOM      1  C   UNL     1       4.863   0.116   0.082  0.00  0.00    +0.063 A 
ATOM      2  C   UNL     1       6.078  -0.454  -0.362  0.00  0.00    +0.022 A 
ATOM      3  C   UNL     1       6.226  -1.842  -0.495  0.00  0.00    +0.027 A 
ATOM      4  C   UNL     1       7.413  -2.355  -0.926  0.00  0.00    +0.019 A 
ATOM      5  C   UNL     1       8.482  -1.516  -1.238  0.00  0.00    +0.017 A 
ATOM      6  C   UNL     1       8.371  -0.165  -1.119  0.00  0.00    +0.027 A 
ATOM      7  C   UNL     1       7.162   0.401  -0.677  0.00  0.00    +0.048 A 
ATOM      8  N   UNL     1       7.028   1.726  -0.554  0.00  0.00    -0.359 N 
ATOM      9  C   UNL     1       5.907   2.272  -0.143  0.00  0.00    +0.107 A 
ATOM     10  C   UNL     1       4.793   1.501   0.183  0.00  0.00    +0.063 A 
ATOM     11 BR   UNL     1       7.612  -4.227  -1.105  0.00  0.00    -0.050 Br
ATOM     12  H   UNL     1       7.780   2.299  -0.774  0.00  0.00    +0.165 HD
ENDROOT
BRANCH  10  13
ATOM     13  N   UNL     1       3.610   2.118   0.612  0.00  0.00    -0.355 N 
ATOM     14  H   UNL     1       2.811   1.587   0.758  0.00  0.00    +0.142 HD
ATOM     15  H   UNL     1       3.590   3.076   0.764  0.00  0.00    +0.142 HD
ENDBRANCH  10  13
BRANCH   1  16
ATOM     16  N   UNL     1       3.770  -0.684   0.404  0.00  0.00    -0.312 N 
ATOM     17  H   UNL     1       3.085  -0.859  -0.260  0.00  0.00    +0.152 HD
BRANCH  16  21
ATOM     18  C   UNL     1       3.443  -2.326   4.221  0.00  0.00    +0.001 A 
ATOM     19  C   UNL     1       4.500  -1.486   3.910  0.00  0.00    +0.002 A 
ATOM     20  C   UNL     1       4.611  -0.941   2.647  0.00  0.00    +0.024 A 
ATOM     21  C   UNL     1       3.661  -1.232   1.677  0.00  0.00    +0.049 A 
ATOM     22  C   UNL     1       2.588  -2.083   1.989  0.00  0.00    +0.073 A 
ATOM     23  C   UNL     1       2.490  -2.627   3.272  0.00  0.00    +0.021 A 
BRANCH  22  24
ATOM     24  C   UNL     1       1.601  -2.391   0.998  0.00  0.00    +0.101 C 
ATOM     25  N   UNL     1       0.818  -2.635   0.212  0.00  0.00    -0.191 NA
ENDBRANCH  22  24
ENDBRANCH  16  21
ENDBRANCH   1  16
TORSDOF 4
