REMARK  Name = ZINC29894557
REMARK  7 active torsions:
REMARK  status: ('A' for Active; 'I' for Inactive)
REMARK    1  A    between atoms: C_4  and  C_7
REMARK    2  A    between atoms: C_7  and  C_8
REMARK    3  A    between atoms: C_8  and  C_9
REMARK    4  A    between atoms: C_14  and  C_15
REMARK    5  A    between atoms: N_17  and  C_18
REMARK    6  A    between atoms: C_22  and  S_24
REMARK    7  A    between atoms: S_24  and  N_27
REMARK                            x       y       z     vdW  Elec       q    Type
REMARK                         _______ _______ _______ _____ _____    ______ ____
ROOT
ATOM      1  C   UNL     1       5.175  -0.811  -4.138  0.00  0.00    +0.249 C 
ATOM      2  O   UNL     1       4.947  -0.111  -5.105  0.00  0.00    -0.270 OA
ATOM      3  N   UNL     1       4.684  -0.472  -2.929  0.00  0.00    -0.281 N 
ATOM      4  H   UNL     1       4.960  -1.057  -2.039  0.00  0.00    +0.155 HD
ENDROOT
BRANCH   1  10
ATOM      5  C   UNL     1       6.594  -2.330  -5.510  0.00  0.00    -0.035 A 
ATOM      6  C   UNL     1       7.359  -3.471  -5.641  0.00  0.00    +0.004 A 
ATOM      7  C   UNL     1       7.519  -4.328  -4.566  0.00  0.00    +0.000 A 
ATOM      8  C   UNL     1       6.919  -4.043  -3.352  0.00  0.00    +0.001 A 
ATOM      9  C   UNL     1       6.157  -2.903  -3.206  0.00  0.00    +0.013 A 
ATOM     10  C   UNL     1       5.991  -2.035  -4.287  0.00  0.00    +0.040 A 
BRANCH   5  11
ATOM     11  C   UNL     1       6.415  -1.402  -6.684  0.00  0.00    +0.040 C 
BRANCH  11  12
ATOM     12  C   UNL     1       7.339  -0.194  -6.524  0.00  0.00    +0.040 C 
BRANCH  12  16
ATOM     13  C   UNL     1       6.832   2.437  -9.851  0.00  0.00    +0.000 A 
ATOM     14  C   UNL     1       6.051   2.593  -8.722  0.00  0.00    +0.000 A 
ATOM     15  C   UNL     1       6.215   1.742  -7.645  0.00  0.00    +0.003 A 
ATOM     16  C   UNL     1       7.160   0.734  -7.698  0.00  0.00    -0.047 A 
ATOM     17  C   UNL     1       7.945   0.582  -8.825  0.00  0.00    +0.003 A 
ATOM     18  C   UNL     1       7.777   1.430  -9.904  0.00  0.00    +0.000 A 
ENDBRANCH  12  16
ENDBRANCH  11  12
ENDBRANCH   5  11
ENDBRANCH   1  10
BRANCH   3  19
ATOM     19  C   UNL     1       3.825   0.624  -2.807  0.00  0.00    +0.036 A 
ATOM     20  C   UNL     1       2.947   0.939  -3.836  0.00  0.00    +0.023 A 
ATOM     21  C   UNL     1       2.099   2.022  -3.712  0.00  0.00    +0.004 A 
ATOM     22  C   UNL     1       2.124   2.794  -2.564  0.00  0.00    +0.029 A 
ATOM     23  C   UNL     1       2.997   2.483  -1.538  0.00  0.00    +0.110 A 
ATOM     24  C   UNL     1       3.851   1.404  -1.658  0.00  0.00    +0.052 A 
BRANCH  23  25
ATOM     25  S   UNL     1       3.024   3.469  -0.077  0.00  0.00    +0.073 S 
ATOM     26  O   UNL     1       2.517   4.746  -0.440  0.00  0.00    -0.150 OA
ATOM     27  O   UNL     1       4.309   3.296   0.505  0.00  0.00    -0.150 OA
BRANCH  25  28
ATOM     28  N   UNL     1       1.933   2.809   0.979  0.00  0.00    -0.205 N 
ATOM     29  C   UNL     1       2.145   1.555   1.488  0.00  0.00    +0.088 C 
ATOM     30  N   UNL     1       3.160   0.815   1.206  0.00  0.00    -0.375 N 
ATOM     31  C   UNL     1       3.120  -0.476   1.902  0.00  0.00    +0.114 C 
ATOM     32  C   UNL     1       1.661  -0.626   2.392  0.00  0.00    +0.028 C 
ATOM     33  C   UNL     1       1.221   0.858   2.463  0.00  0.00    +0.072 C 
ATOM     34  H   UNL     1       1.038   3.378   1.273  0.00  0.00    +0.175 HD
ATOM     35  H   UNL     1       3.930   1.180   0.510  0.00  0.00    +0.161 HD
ENDBRANCH  25  28
ENDBRANCH  23  25
ENDBRANCH   3  19
TORSDOF 7
