REMARK  Name = ZINC37376004
REMARK  6 active torsions:
REMARK  status: ('A' for Active; 'I' for Inactive)
REMARK    1  A    between atoms: C_1  and  C_2
REMARK    2  A    between atoms: C_2  and  C_3
REMARK    3  A    between atoms: C_2  and  N_4
REMARK    4  A    between atoms: C_12  and  C_27
REMARK    5  A    between atoms: C_14  and  N_26
REMARK    6  A    between atoms: N_15  and  C_19
REMARK                            x       y       z     vdW  Elec       q    Type
REMARK                         _______ _______ _______ _____ _____    ______ ____
ROOT
ATOM      1  N   UNL     1      -0.611  -0.635  -1.238  0.00  0.00    +0.383 N 
ATOM      2  C   UNL     1      -1.618  -0.105  -2.166  0.00  0.00    -0.059 C 
ATOM      3  C   UNL     1      -3.015  -0.520  -1.691  0.00  0.00    +0.089 C 
ATOM      4  N   UNL     1      -3.041  -1.982  -1.538  0.00  0.00    -0.303 N 
ATOM      5  C   UNL     1      -1.968  -2.616  -0.756  0.00  0.00    +0.089 C 
ATOM      6  C   UNL     1      -0.621  -2.103  -1.274  0.00  0.00    -0.059 C 
ATOM      7  C   UNL     1      -4.045  -2.740  -2.113  0.00  0.00    +0.220 A 
ATOM      8  N   UNL     1      -4.018  -4.058  -1.935  0.00  0.00    -0.214 NA
ATOM      9  C   UNL     1      -4.943  -4.859  -2.451  0.00  0.00    +0.089 A 
ATOM     10  C   UNL     1      -5.983  -4.278  -3.211  0.00  0.00    +0.086 A 
ATOM     11  C   UNL     1      -7.098  -4.747  -3.893  0.00  0.00    +0.131 A 
ATOM     12  N   UNL     1      -7.720  -3.682  -4.435  0.00  0.00    -0.216 N 
ATOM     13  N   UNL     1      -7.024  -2.511  -4.115  0.00  0.00    -0.144 NA
ATOM     14  C   UNL     1      -5.974  -2.814  -3.383  0.00  0.00    +0.189 A 
ATOM     15  N   UNL     1      -4.979  -2.117  -2.801  0.00  0.00    -0.193 NA
ATOM     16  H   UNL     1      -0.820  -0.321  -0.302  0.00  0.00    -0.081 HD
ENDROOT
BRANCH   9  17
ATOM     17  C   UNL     1      -4.885  -6.321  -2.236  0.00  0.00    +0.005 A 
ATOM     18  C   UNL     1      -5.071  -7.194  -3.309  0.00  0.00    +0.014 A 
ATOM     19  C   UNL     1      -5.017  -8.556  -3.107  0.00  0.00    +0.050 A 
ATOM     20  C   UNL     1      -4.778  -9.065  -1.839  0.00  0.00    +0.166 A 
ATOM     21  C   UNL     1      -4.592  -8.198  -0.762  0.00  0.00    +0.167 A 
ATOM     22  C   UNL     1      -4.639  -6.831  -0.960  0.00  0.00    +0.059 A 
ATOM     23  O   UNL     1      -4.377  -8.941   0.363  0.00  0.00    -0.453 OA
ATOM     24  C   UNL     1      -4.839 -10.266   0.043  0.00  0.00    +0.466 C 
ATOM     25  O   UNL     1      -4.679 -10.348  -1.386  0.00  0.00    -0.453 OA
ENDBRANCH   9  17
BRANCH  12  26
ATOM     26  C   UNL     1      -8.889  -3.738  -5.204  0.00  0.00    +0.068 A 
ATOM     27  C   UNL     1      -9.116  -4.817  -6.048  0.00  0.00    +0.029 A 
ATOM     28  C   UNL     1     -10.270  -4.870  -6.805  0.00  0.00    +0.022 A 
ATOM     29  C   UNL     1     -11.201  -3.849  -6.722  0.00  0.00    +0.041 A 
ATOM     30  C   UNL     1     -10.978  -2.773  -5.881  0.00  0.00    +0.022 A 
ATOM     31  C   UNL     1      -9.828  -2.717  -5.118  0.00  0.00    +0.029 A 
ATOM     32 CL   UNL     1     -12.650  -3.919  -7.674  0.00  0.00    -0.084 Cl
ENDBRANCH  12  26
BRANCH   1  34
ATOM     33  C   UNL     1       0.731   1.383  -1.594  0.00  0.00    -0.014 C 
ATOM     34  C   UNL     1       0.718  -0.147  -1.631  0.00  0.00    -0.075 C 
ATOM     35  C   UNL     1       1.768  -0.689  -0.659  0.00  0.00    -0.014 C 
ENDBRANCH   1  34
BRANCH  11  36
ATOM     36  N   UNL     1      -7.497  -6.067  -3.998  0.00  0.00    -0.342 N 
ATOM     37  H   UNL     1      -7.074  -6.746  -3.450  0.00  0.00    +0.144 HD
ATOM     38  H   UNL     1      -8.199  -6.313  -4.620  0.00  0.00    +0.144 HD
ENDBRANCH  11  36
TORSDOF 4
