REMARK  Name = ZINC42078064
REMARK  8 active torsions:
REMARK  status: ('A' for Active; 'I' for Inactive)
REMARK    1  A    between atoms: C_1  and  C_2
REMARK    2  A    between atoms: C_2  and  C_4
REMARK    3  A    between atoms: C_2  and  N_9
REMARK    4  A    between atoms: C_4  and  C_5
REMARK    5  A    between atoms: C_5  and  C_6
REMARK    6  A    between atoms: C_6  and  C_7
REMARK    7  A    between atoms: C_6  and  C_8
REMARK    8  A    between atoms: N_9  and  C_10
REMARK                            x       y       z     vdW  Elec       q    Type
REMARK                         _______ _______ _______ _____ _____    ______ ____
ROOT
ATOM      1  C   UNL     1      -2.116  -0.233  -1.101  0.00  0.00    +0.049 C 
ATOM      2  C   UNL     1      -1.694  -1.179  -2.201  0.00  0.00    -0.028 A 
ATOM      3  C   UNL     1      -0.490  -1.404  -2.831  0.00  0.00    +0.042 A 
ATOM      4  C   UNL     1      -0.401  -2.360  -3.831  0.00  0.00    +0.125 A 
ATOM      5  C   UNL     1      -1.524  -3.084  -4.192  0.00  0.00    +0.055 A 
ATOM      6  C   UNL     1      -2.731  -2.859  -3.562  0.00  0.00    +0.042 A 
ATOM      7  C   UNL     1      -2.827  -1.899  -2.555  0.00  0.00    +0.050 A 
ATOM      8  N   UNL     1      -3.917  -1.494  -1.781  0.00  0.00    -0.285 N 
ATOM      9  C   UNL     1      -3.589  -0.523  -0.907  0.00  0.00    +0.208 C 
ATOM     10  O   UNL     1      -4.331   0.017  -0.114  0.00  0.00    -0.277 OA
ATOM     11 BR   UNL     1      -4.259  -3.854  -4.064  0.00  0.00    -0.048 Br
ATOM     12  F   UNL     1       0.778  -2.583  -4.451  0.00  0.00    -0.205 F 
ATOM     13  H   UNL     1      -4.808  -1.867  -1.864  0.00  0.00    +0.155 HD
ENDROOT
BRANCH   1  14
ATOM     14  N   UNL     1      -1.370  -0.513   0.133  0.00  0.00    +0.391 N 
ATOM     15  H   UNL     1      -1.390  -1.504   0.321  0.00  0.00    -0.084 HD
ATOM     16  H   UNL     1      -1.794  -0.017   0.902  0.00  0.00    -0.084 HD
BRANCH  14  18
ATOM     17  C   UNL     1       0.062   1.449  -0.180  0.00  0.00    -0.014 C 
ATOM     18  C   UNL     1       0.023  -0.073  -0.026  0.00  0.00    -0.074 C 
BRANCH  18  19
ATOM     19  C   UNL     1       0.831  -0.482   1.207  0.00  0.00    -0.016 C 
BRANCH  19  20
ATOM     20  C   UNL     1       0.896  -2.008   1.291  0.00  0.00    +0.001 C 
BRANCH  20  21
ATOM     21  C   UNL     1       1.705  -2.417   2.524  0.00  0.00    -0.017 C 
ATOM     22  C   UNL     1       0.966  -1.973   3.788  0.00  0.00    +0.007 C 
ATOM     23  C   UNL     1       1.876  -3.937   2.540  0.00  0.00    +0.007 C 
ENDBRANCH  20  21
ENDBRANCH  19  20
ENDBRANCH  18  19
ENDBRANCH  14  18
ENDBRANCH   1  14
TORSDOF 5
