REMARK  Name = ZINC40824772
REMARK  5 active torsions:
REMARK  status: ('A' for Active; 'I' for Inactive)
REMARK    1  A    between atoms: C_1  and  C_2
REMARK    2  A    between atoms: C_6  and  C_7
REMARK    3  A    between atoms: N_9  and  C_10
REMARK    4  A    between atoms: C_12  and  C_17
REMARK    5  A    between atoms: N_25  and  N_26
REMARK                            x       y       z     vdW  Elec       q    Type
REMARK                         _______ _______ _______ _____ _____    ______ ____
ROOT
ATOM      1  C   UNL     1      -0.005   1.502   0.010  0.00  0.00    +0.048 C 
ATOM      2  C   UNL     1       0.021  -0.004   0.002  0.00  0.00    +0.009 A 
ATOM      3  C   UNL     1       0.039  -0.839  -1.123  0.00  0.00    +0.042 A 
ATOM      4  C   UNL     1       0.060  -2.138  -0.673  0.00  0.00    +0.115 A 
ATOM      5  O   UNL     1       0.059  -2.112   0.658  0.00  0.00    -0.454 OA
ATOM      6  C   UNL     1       0.039  -0.831   1.091  0.00  0.00    +0.193 A 
ATOM      7  C   UNL     1       0.078  -3.327  -1.600  0.00  0.00    +0.075 C 
ATOM      8  C   UNL     1      -0.440  -2.905  -2.978  0.00  0.00    +0.014 C 
ATOM      9  C   UNL     1       0.330  -1.684  -3.493  0.00  0.00    +0.058 C 
ATOM     10  C   UNL     1       0.040  -0.512  -2.567  0.00  0.00    +0.072 C 
ATOM     11  N   UNL     1      -0.190   0.685  -3.010  0.00  0.00    -0.175 NA
ENDROOT
BRANCH  11  12
ATOM     12  N   UNL     1      -0.176   0.936  -4.388  0.00  0.00    -0.248 N 
ATOM     13  C   UNL     1      -0.418   2.200  -4.855  0.00  0.00    +0.187 C 
ATOM     14  N   UNL     1      -0.406   2.439  -6.166  0.00  0.00    -0.370 N 
ATOM     15  N   UNL     1      -0.667   3.191  -3.999  0.00  0.00    -0.370 N 
ATOM     16  H   UNL     1       0.004   0.215  -5.011  0.00  0.00    +0.192 HD
ATOM     17  H   UNL     1      -0.225   1.718  -6.789  0.00  0.00    +0.159 HD
ATOM     18  H   UNL     1      -0.676   3.017  -3.045  0.00  0.00    +0.159 HD
ATOM     19  H   UNL     1      -0.839   4.086  -4.331  0.00  0.00    +0.159 HD
ATOM     20  H   UNL     1      -0.578   3.335  -6.498  0.00  0.00    +0.159 HD
ENDBRANCH  11  12
BRANCH   6  21
ATOM     21  C   UNL     1       0.034  -0.400   2.493  0.00  0.00    +0.284 C 
ATOM     22  O   UNL     1       0.013   0.786   2.765  0.00  0.00    -0.266 OA
ATOM     23  N   UNL     1       0.053  -1.318   3.480  0.00  0.00    -0.278 N 
ATOM     24  H   UNL     1      -0.011  -2.262   3.266  0.00  0.00    +0.155 HD
BRANCH  23  25
ATOM     25  C   UNL     1       0.165  -0.909   4.813  0.00  0.00    +0.053 A 
ATOM     26  C   UNL     1       0.757   0.310   5.120  0.00  0.00    +0.037 A 
ATOM     27  C   UNL     1       0.866   0.710   6.437  0.00  0.00    +0.057 A 
ATOM     28  C   UNL     1       0.387  -0.100   7.451  0.00  0.00    +0.014 A 
ATOM     29  C   UNL     1      -0.202  -1.314   7.149  0.00  0.00    +0.022 A 
ATOM     30  C   UNL     1      -0.320  -1.719   5.833  0.00  0.00    +0.062 A 
ATOM     31 CL   UNL     1      -1.066  -3.240   5.455  0.00  0.00    -0.082 Cl
BRANCH  27  32
ATOM     32  C   UNL     1       1.508   2.032   6.771  0.00  0.00    +0.417 C 
ATOM     33  F   UNL     1       0.531   3.033   6.791  0.00  0.00    -0.166 F 
ATOM     34  F   UNL     1       2.118   1.951   8.027  0.00  0.00    -0.166 F 
ATOM     35  F   UNL     1       2.471   2.340   5.804  0.00  0.00    -0.166 F 
ENDBRANCH  27  32
ENDBRANCH  23  25
ENDBRANCH   6  21
TORSDOF 4
