REMARK  Name = ZINC52757431
REMARK  8 active torsions:
REMARK  status: ('A' for Active; 'I' for Inactive)
REMARK    1  A    between atoms: C_6  and  C_7
REMARK    2  A    between atoms: C_7  and  C_9
REMARK    3  A    between atoms: C_7  and  N_11
REMARK    4  A    between atoms: C_9  and  N_10
REMARK    5  A    between atoms: C_15  and  C_17
REMARK    6  A    between atoms: C_17  and  C_18
REMARK    7  A    between atoms: C_18  and  C_19
REMARK    8  A    between atoms: C_19  and  O_20
REMARK                            x       y       z     vdW  Elec       q    Type
REMARK                         _______ _______ _______ _____ _____    ______ ____
ROOT
ATOM      1  C   UNL     1      -1.218  -0.466   0.040  0.00  0.00    +0.070 C 
ENDROOT
BRANCH   1   7
ATOM      2  C   UNL     1      -1.133   0.737   2.234  0.00  0.00    +0.006 A 
ATOM      3  C   UNL     1      -1.044   0.741   3.613  0.00  0.00    +0.015 A 
ATOM      4  C   UNL     1      -0.944  -0.453   4.303  0.00  0.00    +0.018 A 
ATOM      5  C   UNL     1      -0.933  -1.652   3.613  0.00  0.00    +0.015 A 
ATOM      6  C   UNL     1      -1.021  -1.655   2.234  0.00  0.00    +0.006 A 
ATOM      7  C   UNL     1      -1.121  -0.462   1.544  0.00  0.00    -0.032 A 
ATOM      8 BR   UNL     1      -0.823  -0.448   6.191  0.00  0.00    -0.050 Br
ENDBRANCH   1   7
BRANCH   1   9
ATOM      9  N   UNL     1      -0.799  -1.777  -0.473  0.00  0.00    -0.294 NA
ATOM     10  C   UNL     1      -1.869  -2.782  -0.297  0.00  0.00    +0.085 C 
ATOM     11  C   UNL     1      -2.578  -2.851  -1.672  0.00  0.00    +0.017 C 
ATOM     12  C   UNL     1      -1.384  -2.687  -2.649  0.00  0.00    +0.020 C 
ATOM     13  C   UNL     1      -0.460  -1.699  -1.906  0.00  0.00    +0.057 C 
BRANCH  13  14
ATOM     14  C   UNL     1       1.002  -2.095  -2.117  0.00  0.00    +0.021 C 
BRANCH  14  15
ATOM     15  C   UNL     1       1.908  -1.132  -1.347  0.00  0.00    +0.029 C 
BRANCH  15  16
ATOM     16  C   UNL     1       3.372  -1.449  -1.658  0.00  0.00    +0.156 C 
BRANCH  16  17
ATOM     17  O   UNL     1       4.218  -0.549  -0.939  0.00  0.00    -0.395 OA
ATOM     18  H   UNL     1       5.162  -0.693  -1.088  0.00  0.00    +0.209 HD
ENDBRANCH  16  17
ENDBRANCH  15  16
ENDBRANCH  14  15
ENDBRANCH  13  14
ENDBRANCH   1   9
BRANCH   1  19
ATOM     19  C   UNL     1      -2.664  -0.192  -0.379  0.00  0.00    -0.063 C 
BRANCH  19  20
ATOM     20  N   UNL     1      -2.724  -0.001  -1.834  0.00  0.00    +0.379 N 
ATOM     21  H   UNL     1      -3.649   0.306  -2.095  0.00  0.00    -0.090 HD
ATOM     22  H   UNL     1      -2.048   0.696  -2.110  0.00  0.00    -0.090 HD
ATOM     23  H   UNL     1      -2.516  -0.873  -2.297  0.00  0.00    -0.090 HD
ENDBRANCH  19  20
ENDBRANCH   1  19
TORSDOF 8
