REMARK  Name = ZINC19997015
REMARK  6 active torsions:
REMARK  status: ('A' for Active; 'I' for Inactive)
REMARK    1  A    between atoms: C_3  and  C_6
REMARK    2  A    between atoms: C_6  and  N_7
REMARK    3  A    between atoms: C_11  and  N_12
REMARK    4  A    between atoms: N_12  and  C_13
REMARK    5  A    between atoms: C_13  and  C_14
REMARK    6  A    between atoms: C_14  and  N_15
REMARK                            x       y       z     vdW  Elec       q    Type
REMARK                         _______ _______ _______ _____ _____    ______ ____
ROOT
ATOM      1  N   UNL     1       4.473   0.589   1.248  0.00  0.00    -0.214 N 
ATOM      2  C   UNL     1       4.504   1.749   1.936  0.00  0.00    +0.261 C 
ATOM      3  O   UNL     1       4.081   2.778   1.444  0.00  0.00    -0.269 OA
ATOM      4  C   UNL     1       5.064   1.736   3.299  0.00  0.00    +0.113 C 
ATOM      5  C   UNL     1       5.128   2.886   4.064  0.00  0.00    +0.086 C 
ATOM      6  C   UNL     1       5.551   0.443   3.812  0.00  0.00    +0.258 C 
ATOM      7  O   UNL     1       6.027   0.353   4.928  0.00  0.00    -0.270 OA
ATOM      8  N   UNL     1       5.457  -0.637   3.010  0.00  0.00    -0.235 N 
ATOM      9  C   UNL     1       4.930  -0.553   1.780  0.00  0.00    +0.316 C 
ATOM     10  O   UNL     1       4.869  -1.565   1.110  0.00  0.00    -0.252 OA
ATOM     11  H   UNL     1       5.773  -1.496   3.333  0.00  0.00    +0.159 HD
ENDROOT
BRANCH   5  12
ATOM     12  N   UNL     1       5.491   2.815   5.360  0.00  0.00    -0.348 N 
ATOM     13  H   UNL     1       5.629   1.950   5.778  0.00  0.00    +0.146 HD
BRANCH  12  14
ATOM     14  C   UNL     1       5.677   4.042   6.137  0.00  0.00    +0.116 C 
BRANCH  14  15
ATOM     15  C   UNL     1       6.084   3.683   7.568  0.00  0.00    +0.103 C 
BRANCH  15  16
ATOM     16  N   UNL     1       6.270   4.914   8.347  0.00  0.00    -0.304 NA
ATOM     17  C   UNL     1       7.416   5.687   7.847  0.00  0.00    +0.065 C 
ATOM     18  C   UNL     1       7.539   6.986   8.645  0.00  0.00    -0.067 C 
ATOM     19  N   UNL     1       7.723   6.672  10.068  0.00  0.00    +0.381 N 
ATOM     20  C   UNL     1       6.560   5.922  10.559  0.00  0.00    -0.067 C 
ATOM     21  C   UNL     1       6.429   4.613   9.777  0.00  0.00    +0.065 C 
ATOM     22  H   UNL     1       8.556   6.114  10.184  0.00  0.00    -0.086 HD
ATOM     23  H   UNL     1       7.817   7.529  10.592  0.00  0.00    -0.086 HD
ENDBRANCH  15  16
ENDBRANCH  14  15
ENDBRANCH  12  14
ENDBRANCH   5  12
BRANCH   1  24
ATOM     24  C   UNL     1       3.921   0.575  -0.109  0.00  0.00    +0.192 C 
BRANCH  24  27
ATOM     25  C   UNL     1       0.240   0.531   0.082  0.00  0.00    +0.041 A 
ATOM     26  C   UNL     1       1.471   1.227   0.056  0.00  0.00    +0.046 A 
ATOM     27  C   UNL     1       2.441   0.299  -0.046  0.00  0.00    +0.123 A 
ATOM     28  O   UNL     1       1.865  -0.913  -0.083  0.00  0.00    -0.466 OA
ATOM     29  C   UNL     1       0.531  -0.779  -0.006  0.00  0.00    +0.195 A 
ENDBRANCH  24  27
ENDBRANCH   1  24
TORSDOF 6
