REMARK  Name = ZINC20815714
REMARK  10 active torsions:
REMARK  status: ('A' for Active; 'I' for Inactive)
REMARK    1  A    between atoms: C_1  and  C_2
REMARK    2  A    between atoms: C_2  and  O_3
REMARK    3  A    between atoms: O_3  and  C_4
REMARK    4  A    between atoms: C_7  and  N_10
REMARK    5  A    between atoms: C_20  and  N_21
REMARK    6  A    between atoms: N_21  and  C_22
REMARK    7  A    between atoms: C_24  and  C_30
REMARK    8  A    between atoms: C_24  and  C_31
REMARK    9  A    between atoms: C_26  and  C_28
REMARK   10  A    between atoms: C_26  and  C_29
REMARK                            x       y       z     vdW  Elec       q    Type
REMARK                         _______ _______ _______ _____ _____    ______ ____
ROOT
ATOM      1  N   UNL     1       1.452  -6.587   1.872  0.00  0.00    -0.202 N 
ATOM      2  C   UNL     1       0.874  -7.441   1.012  0.00  0.00    +0.258 C 
ATOM      3  O   UNL     1       0.170  -7.006   0.120  0.00  0.00    -0.269 OA
ATOM      4  C   UNL     1       1.079  -8.890   1.128  0.00  0.00    +0.046 A 
ATOM      5  C   UNL     1       0.483  -9.783   0.237  0.00  0.00    +0.014 A 
ATOM      6  C   UNL     1       0.700 -11.136   0.379  0.00  0.00    +0.001 A 
ATOM      7  C   UNL     1       1.505 -11.621   1.400  0.00  0.00    +0.001 A 
ATOM      8  C   UNL     1       2.104 -10.756   2.292  0.00  0.00    +0.009 A 
ATOM      9  C   UNL     1       1.897  -9.387   2.164  0.00  0.00    +0.000 A 
ATOM     10  C   UNL     1       2.515  -8.417   3.092  0.00  0.00    +0.059 C 
ATOM     11  C   UNL     1       3.324  -8.839   4.124  0.00  0.00    +0.081 C 
ATOM     12  C   UNL     1       2.246  -6.991   2.878  0.00  0.00    +0.259 C 
ATOM     13  O   UNL     1       2.744  -6.165   3.621  0.00  0.00    -0.269 OA
ENDROOT
BRANCH   1  17
ATOM     14  C   UNL     1       0.765  -2.501   1.393  0.00  0.00    +0.121 A 
ATOM     15  C   UNL     1       0.213  -3.175   2.473  0.00  0.00    +0.047 A 
ATOM     16  C   UNL     1       0.440  -4.527   2.632  0.00  0.00    +0.027 A 
ATOM     17  C   UNL     1       1.221  -5.213   1.711  0.00  0.00    +0.045 A 
ATOM     18  C   UNL     1       1.772  -4.538   0.630  0.00  0.00    +0.027 A 
ATOM     19  C   UNL     1       1.540  -3.187   0.469  0.00  0.00    +0.047 A 
BRANCH  14  20
ATOM     20  O   UNL     1       0.541  -1.169   1.236  0.00  0.00    -0.492 OA
BRANCH  20  22
ATOM     21  C   UNL     1      -0.405   0.958   1.883  0.00  0.00    +0.048 C 
ATOM     22  C   UNL     1      -0.266  -0.526   2.225  0.00  0.00    +0.225 C 
ENDBRANCH  20  22
ENDBRANCH  14  20
ENDBRANCH   1  17
BRANCH  11  23
ATOM     23  N   UNL     1       3.765  -7.947   5.049  0.00  0.00    -0.346 N 
ATOM     24  H   UNL     1       3.446  -7.031   5.031  0.00  0.00    +0.146 HD
BRANCH  23  25
ATOM     25  C   UNL     1       4.726  -8.370   6.076  0.00  0.00    +0.067 C 
ATOM     26  C   UNL     1       6.146  -8.227   5.525  0.00  0.00    +0.009 C 
ATOM     27  C   UNL     1       7.159  -8.652   6.587  0.00  0.00    -0.072 C 
ATOM     28  N   UNL     1       6.972  -7.935   7.840  0.00  0.00    +0.386 N 
ATOM     29  C   UNL     1       5.619  -7.828   8.362  0.00  0.00    -0.072 C 
ATOM     30  C   UNL     1       4.592  -7.460   7.296  0.00  0.00    +0.009 C 
ATOM     31  C   UNL     1       5.616  -6.693   9.413  0.00  0.00    -0.010 C 
ATOM     32  C   UNL     1       5.187  -9.107   9.084  0.00  0.00    -0.010 C 
ATOM     33  C   UNL     1       7.120 -10.167   6.779  0.00  0.00    -0.010 C 
ATOM     34  C   UNL     1       8.564  -8.294   6.050  0.00  0.00    -0.010 C 
ATOM     35  H   UNL     1       7.559  -8.377   8.553  0.00  0.00    -0.084 HD
ATOM     36  H   UNL     1       7.350  -6.991   7.729  0.00  0.00    -0.084 HD
ENDBRANCH  23  25
ENDBRANCH  11  23
TORSDOF 5
