REMARK  Name = ZINC63731437
REMARK  5 active torsions:
REMARK  status: ('A' for Active; 'I' for Inactive)
REMARK    1  A    between atoms: C_6  and  S_7
REMARK    2  A    between atoms: S_7  and  N_10
REMARK    3  A    between atoms: C_14  and  C_16
REMARK    4  A    between atoms: C_16  and  S_17
REMARK    5  A    between atoms: S_17  and  C_18
REMARK                            x       y       z     vdW  Elec       q    Type
REMARK                         _______ _______ _______ _____ _____    ______ ____
ROOT
ATOM      1  C   UNL     1      -0.017   1.378   0.010  0.00  0.00    +0.030 A 
ATOM      2  C   UNL     1       1.165   2.088   0.002  0.00  0.00    +0.026 A 
ATOM      3  C   UNL     1       2.389   1.418  -0.014  0.00  0.00    +0.040 A 
ATOM      4  C   UNL     1       2.397   0.032  -0.021  0.00  0.00    -0.023 A 
ATOM      5  C   UNL     1       1.211  -0.675  -0.013  0.00  0.00    +0.034 A 
ATOM      6  C   UNL     1       0.002  -0.004   0.002  0.00  0.00    +0.105 A 
ATOM      7  C   UNL     1       3.833  -0.441  -0.037  0.00  0.00    +0.056 C 
ATOM      8  C   UNL     1       4.667   0.851  -0.038  0.00  0.00    +0.118 C 
ATOM      9  N   UNL     1       3.686   1.940  -0.023  0.00  0.00    -0.270 N 
ATOM     10  C   UNL     1       3.990   3.253  -0.019  0.00  0.00    +0.230 C 
ATOM     11  O   UNL     1       3.104   4.081  -0.005  0.00  0.00    -0.274 OA
ENDROOT
BRANCH   6  12
ATOM     12  S   UNL     1      -1.510  -0.908   0.012  0.00  0.00    +0.056 S 
ATOM     13  O   UNL     1      -1.215  -2.188   0.553  0.00  0.00    -0.153 OA
ATOM     14  O   UNL     1      -2.492  -0.050   0.578  0.00  0.00    -0.153 OA
BRANCH  12  15
ATOM     15  N   UNL     1      -1.946  -1.151  -1.567  0.00  0.00    -0.204 NA
ATOM     16  H   UNL     1      -2.453  -1.940  -1.814  0.00  0.00    +0.144 HD
ATOM     17  H   UNL     1      -1.695  -0.504  -2.244  0.00  0.00    +0.144 HD
ENDBRANCH  12  15
ENDBRANCH   6  12
BRANCH  10  18
ATOM     18  C   UNL     1       5.432   3.693  -0.030  0.00  0.00    +0.169 C 
BRANCH  18  19
ATOM     19  S   UNL     1       5.511   5.505  -0.021  0.00  0.00    -0.106 S 
BRANCH  19  20
ATOM     20  C   UNL     1       7.288   5.867  -0.036  0.00  0.00    +0.236 C 
ATOM     21  N   UNL     1       7.940   5.241   1.121  0.00  0.00    -0.355 N 
ATOM     22  C   UNL     1       8.825   4.402   0.665  0.00  0.00    +0.061 A 
ATOM     23  C   UNL     1       9.775   3.495   1.325  0.00  0.00    +0.029 A 
ATOM     24  C   UNL     1      10.589   2.726   0.577  0.00  0.00    +0.022 A 
ATOM     25  C   UNL     1      10.572   2.749  -0.831  0.00  0.00    +0.043 A 
ATOM     26  C   UNL     1       9.739   3.544  -1.535  0.00  0.00    +0.047 A 
ATOM     27  C   UNL     1       8.807   4.427  -0.823  0.00  0.00    +0.062 A 
ATOM     28  N   UNL     1       7.912   5.282  -1.230  0.00  0.00    -0.355 N 
ATOM     29 CL   UNL     1      11.666   1.714  -1.695  0.00  0.00    -0.083 Cl
ATOM     30  H   UNL     1       7.747   5.420   2.055  0.00  0.00    +0.162 HD
ATOM     31  H   UNL     1       7.695   5.493  -2.152  0.00  0.00    +0.162 HD
ENDBRANCH  19  20
ENDBRANCH  18  19
ENDBRANCH  10  18
TORSDOF 5
