REMARK  Name = ZINC56170428
REMARK  12 active torsions:
REMARK  status: ('A' for Active; 'I' for Inactive)
REMARK    1  A    between atoms: C_1  and  C_2
REMARK    2  A    between atoms: C_2  and  C_3
REMARK    3  A    between atoms: C_3  and  C_4
REMARK    4  A    between atoms: C_4  and  N_5
REMARK    5  A    between atoms: C_9  and  C_11
REMARK    6  A    between atoms: C_11  and  C_13
REMARK    7  A    between atoms: C_11  and  N_14
REMARK    8  A    between atoms: N_14  and  C_15
REMARK    9  A    between atoms: C_18  and  N_22
REMARK   10  A    between atoms: C_20  and  C_21
REMARK   11  A    between atoms: N_25  and  C_28
REMARK   12  A    between atoms: C_28  and  C_29
REMARK                            x       y       z     vdW  Elec       q    Type
REMARK                         _______ _______ _______ _____ _____    ______ ____
ROOT
ATOM      1  N   UNL     1      -5.902  -7.680   0.017  0.00  0.00    -0.333 N 
ATOM      2  H   UNL     1      -5.133  -8.153  -0.339  0.00  0.00    +0.147 HD
ENDROOT
BRANCH   1   3
ATOM      3  C   UNL     1      -6.986  -8.398   0.536  0.00  0.00    +0.031 A 
ATOM      4  C   UNL     1      -8.089  -7.721   1.040  0.00  0.00    +0.025 A 
ATOM      5  C   UNL     1      -9.159  -8.429   1.552  0.00  0.00    +0.025 A 
ATOM      6  C   UNL     1      -9.131  -9.817   1.563  0.00  0.00    +0.030 A 
ATOM      7  C   UNL     1      -8.028 -10.494   1.059  0.00  0.00    +0.028 A 
ATOM      8  C   UNL     1      -6.961  -9.786   0.541  0.00  0.00    -0.028 A 
ATOM      9  C   UNL     1      -5.767 -10.520  -0.012  0.00  0.00    +0.046 C 
BRANCH   6  10
ATOM     10  N   UNL     1     -10.215 -10.535   2.083  0.00  0.00    -0.333 N 
ATOM     11  C   UNL     1     -10.261 -12.003   1.998  0.00  0.00    +0.086 C 
ATOM     12  C   UNL     1     -10.572 -12.560   3.391  0.00  0.00    -0.060 C 
ATOM     13  N   UNL     1     -11.803 -11.944   3.900  0.00  0.00    +0.382 N 
ATOM     14  C   UNL     1     -11.600 -10.502   4.088  0.00  0.00    -0.060 C 
ATOM     15  C   UNL     1     -11.338  -9.843   2.735  0.00  0.00    +0.086 C 
ATOM     16  H   UNL     1     -12.551 -12.094   3.239  0.00  0.00    -0.082 HD
BRANCH  13  17
ATOM     17  C   UNL     1     -12.161 -12.558   5.186  0.00  0.00    -0.082 C 
ATOM     18  C   UNL     1     -13.508 -12.007   5.657  0.00  0.00    -0.017 C 
ENDBRANCH  13  17
ENDBRANCH   6  10
ENDBRANCH   1   3
BRANCH   1  19
ATOM     19  C   UNL     1      -5.928  -6.215   0.012  0.00  0.00    +0.154 C 
ATOM     20  C   UNL     1      -6.663  -5.723  -1.237  0.00  0.00    +0.038 C 
BRANCH  19  25
ATOM     21  N   UNL     1      -2.809  -2.557  -0.013  0.00  0.00    -0.299 N 
ATOM     22  C   UNL     1      -3.032  -3.886  -0.007  0.00  0.00    +0.306 C 
ATOM     23  O   UNL     1      -2.094  -4.659  -0.008  0.00  0.00    -0.252 OA
ATOM     24  N   UNL     1      -4.294  -4.358  -0.001  0.00  0.00    -0.239 N 
ATOM     25  C   UNL     1      -4.517  -5.688   0.005  0.00  0.00    +0.240 C 
ATOM     26  O   UNL     1      -3.581  -6.459   0.004  0.00  0.00    -0.273 OA
ATOM     27  H   UNL     1      -3.558  -1.940  -0.013  0.00  0.00    +0.150 HD
ATOM     28  H   UNL     1      -5.043  -3.741  -0.001  0.00  0.00    +0.159 HD
BRANCH  21  29
ATOM     29  C   UNL     1      -1.437  -2.044  -0.020  0.00  0.00    +0.106 C 
BRANCH  29  30
ATOM     30  C   UNL     1      -1.465  -0.514  -0.026  0.00  0.00    +0.018 C 
BRANCH  30  32
ATOM     31  C   UNL     1      -0.059   1.551  -0.038  0.00  0.00    +0.004 C 
ATOM     32  C   UNL     1      -0.032   0.021  -0.033  0.00  0.00    -0.002 C 
ENDBRANCH  30  32
ENDBRANCH  29  30
ENDBRANCH  21  29
ENDBRANCH  19  25
ENDBRANCH   1  19
TORSDOF 8
