REMARK  Name = ZINC20595075
REMARK  10 active torsions:
REMARK  status: ('A' for Active; 'I' for Inactive)
REMARK    1  A    between atoms: C_1  and  C_2
REMARK    2  A    between atoms: C_2  and  C_3
REMARK    3  A    between atoms: C_3  and  N_4
REMARK    4  A    between atoms: C_7  and  C_10
REMARK    5  A    between atoms: C_10  and  N_11
REMARK    6  A    between atoms: C_12  and  C_26
REMARK    7  A    between atoms: N_16  and  C_19
REMARK    8  A    between atoms: C_22  and  C_25
REMARK    9  A    between atoms: C_26  and  C_27
REMARK   10  A    between atoms: N_29  and  C_30
REMARK                            x       y       z     vdW  Elec       q    Type
REMARK                         _______ _______ _______ _____ _____    ______ ____
ROOT
ATOM      1  N   UNL     1      -4.583   5.691   3.556  0.00  0.00    -0.300 N 
ATOM      2  C   UNL     1      -5.305   4.902   4.569  0.00  0.00    +0.171 C 
ATOM      3  C   UNL     1      -6.763   5.117   4.216  0.00  0.00    +0.246 C 
ATOM      4  O   UNL     1      -7.730   4.655   4.783  0.00  0.00    -0.273 OA
ATOM      5  N   UNL     1      -6.761   5.929   3.140  0.00  0.00    -0.220 N 
ATOM      6  C   UNL     1      -5.518   6.257   2.772  0.00  0.00    +0.147 C 
ATOM      7  S   UNL     1      -5.156   7.280   1.447  0.00  0.00    -0.018 S 
ENDROOT
BRANCH   5   8
ATOM      8  C   UNL     1      -7.919   6.379   2.491  0.00  0.00    +0.043 A 
ATOM      9  C   UNL     1      -8.861   7.125   3.187  0.00  0.00    +0.024 A 
ATOM     10  C   UNL     1      -9.998   7.572   2.543  0.00  0.00    +0.005 A 
ATOM     11  C   UNL     1     -10.206   7.267   1.211  0.00  0.00    -0.050 A 
ATOM     12  C   UNL     1      -9.272   6.519   0.517  0.00  0.00    +0.005 A 
ATOM     13  C   UNL     1      -8.130   6.074   1.153  0.00  0.00    +0.024 A 
ATOM     14  C   UNL     1     -11.451   7.750   0.513  0.00  0.00    +0.044 C 
ENDBRANCH   5   8
BRANCH   1  15
ATOM     15  C   UNL     1      -3.131   5.837   3.432  0.00  0.00    +0.111 C 
BRANCH  15  19
ATOM     16  N   UNL     1      -1.319   9.532   4.590  0.00  0.00    +0.380 N 
ATOM     17  C   UNL     1      -2.779   9.447   4.723  0.00  0.00    -0.079 C 
ATOM     18  C   UNL     1      -3.305   8.293   3.866  0.00  0.00    -0.014 C 
ATOM     19  C   UNL     1      -2.655   6.985   4.325  0.00  0.00    +0.003 C 
ATOM     20  C   UNL     1      -1.133   7.117   4.221  0.00  0.00    -0.014 C 
ATOM     21  C   UNL     1      -0.670   8.305   5.068  0.00  0.00    -0.079 C 
ATOM     22  H   UNL     1      -1.087   9.639   3.520  0.00  0.00    -0.082 HD
BRANCH  16  23
ATOM     23  C   UNL     1      -0.794  10.712   5.288  0.00  0.00    -0.079 C 
BRANCH  23  25
ATOM     24  C   UNL     1      -0.756  13.210   5.328  0.00  0.00    +0.002 C 
ATOM     25  C   UNL     1      -1.303  11.980   4.600  0.00  0.00    -0.022 C 
ENDBRANCH  23  25
ENDBRANCH  16  23
ENDBRANCH  15  19
ENDBRANCH   1  15
BRANCH   2  26
ATOM     26  C   UNL     1      -4.937   3.420   4.459  0.00  0.00    +0.128 C 
BRANCH  26  27
ATOM     27  C   UNL     1      -3.505   3.225   4.885  0.00  0.00    +0.219 C 
ATOM     28  O   UNL     1      -2.909   4.125   5.439  0.00  0.00    -0.275 OA
ATOM     29  N   UNL     1      -2.887   2.050   4.652  0.00  0.00    -0.285 N 
ATOM     30  H   UNL     1      -3.409   1.254   4.103  0.00  0.00    +0.155 HD
BRANCH  29  31
ATOM     31  C   UNL     1      -1.579   1.845   5.109  0.00  0.00    +0.034 A 
ATOM     32  C   UNL     1      -1.169   2.397   6.315  0.00  0.00    +0.026 A 
ATOM     33  C   UNL     1       0.120   2.189   6.766  0.00  0.00    +0.040 A 
ATOM     34  C   UNL     1       1.006   1.439   6.011  0.00  0.00    +0.124 A 
ATOM     35  C   UNL     1       0.601   0.892   4.805  0.00  0.00    +0.040 A 
ATOM     36  C   UNL     1      -0.689   1.093   4.353  0.00  0.00    +0.026 A 
ATOM     37  F   UNL     1       2.268   1.242   6.451  0.00  0.00    -0.205 F 
ENDBRANCH  29  31
ENDBRANCH  26  27
ENDBRANCH   2  26
TORSDOF 8
