REMARK  Name = ZINC38975302
REMARK  6 active torsions:
REMARK  status: ('A' for Active; 'I' for Inactive)
REMARK    1  A    between atoms: C_1  and  O_2
REMARK    2  A    between atoms: O_2  and  C_3
REMARK    3  A    between atoms: C_7  and  C_9
REMARK    4  A    between atoms: N_15  and  N_16
REMARK    5  A    between atoms: C_17  and  C_18
REMARK    6  A    between atoms: C_23  and  O_24
REMARK                            x       y       z     vdW  Elec       q    Type
REMARK                         _______ _______ _______ _____ _____    ______ ____
ROOT
ATOM      1  C   UNL     1       1.265  -4.245  -2.334  0.00  0.00    +0.264 C 
ATOM      2  N   UNL     1       1.443  -4.681  -0.940  0.00  0.00    -0.189 NA
ATOM      3  N   UNL     1       2.601  -5.087  -0.810  0.00  0.00    -0.219 N 
ATOM      4  C   UNL     1       3.332  -5.010  -1.955  0.00  0.00    +0.174 C 
ATOM      5  S   UNL     1       4.968  -5.491  -2.108  0.00  0.00    -0.015 S 
ATOM      6  N   UNL     1       2.577  -4.498  -2.957  0.00  0.00    -0.172 N 
ATOM      7  H   UNL     1       2.956  -5.427   0.026  0.00  0.00    +0.176 HD
ENDROOT
BRANCH   1  12
ATOM      8  C   UNL     1      -0.137  -0.854  -1.435  0.00  0.00    +0.120 A 
ATOM      9  C   UNL     1       0.307  -0.082  -2.499  0.00  0.00    +0.045 A 
ATOM     10  C   UNL     1       1.058  -0.661  -3.504  0.00  0.00    +0.004 A 
ATOM     11  C   UNL     1       1.367  -2.007  -3.449  0.00  0.00    +0.007 A 
ATOM     12  C   UNL     1       0.926  -2.778  -2.390  0.00  0.00    +0.001 A 
ATOM     13  C   UNL     1       0.179  -2.203  -1.379  0.00  0.00    +0.053 A 
BRANCH   8  15
ATOM     14  C   UNL     1      -1.163   1.108  -0.567  0.00  0.00    +0.277 C 
ATOM     15  O   UNL     1      -0.875  -0.287  -0.445  0.00  0.00    -0.495 OA
ENDBRANCH   8  15
ENDBRANCH   1  12
BRANCH   6  16
ATOM     16  N   UNL     1       2.956  -4.261  -4.285  0.00  0.00    -0.183 NA
ATOM     17  C   UNL     1       4.124  -4.643  -4.705  0.00  0.00    +0.142 C 
BRANCH  17  18
ATOM     18  C   UNL     1       4.588  -4.253  -6.048  0.00  0.00    +0.038 A 
ATOM     19  C   UNL     1       5.841  -4.667  -6.506  0.00  0.00    +0.028 A 
ATOM     20  C   UNL     1       6.270  -4.298  -7.765  0.00  0.00    +0.020 A 
ATOM     21  C   UNL     1       5.462  -3.518  -8.576  0.00  0.00    +0.034 A 
ATOM     22  C   UNL     1       4.220  -3.101  -8.134  0.00  0.00    +0.061 A 
ATOM     23  C   UNL     1       3.772  -3.468  -6.874  0.00  0.00    +0.139 A 
ATOM     24 BR   UNL     1       3.128  -2.036  -9.251  0.00  0.00    -0.046 Br
ATOM     25 BR   UNL     1       7.966  -4.859  -8.384  0.00  0.00    -0.050 Br
BRANCH  23  26
ATOM     26  O   UNL     1       2.550  -3.064  -6.441  0.00  0.00    -0.505 OA
ATOM     27  H   UNL     1       2.558  -2.215  -5.978  0.00  0.00    +0.292 HD
ENDBRANCH  23  26
ENDBRANCH  17  18
ENDBRANCH   6  16
TORSDOF 5
