REMARK  Name = ZINC57120692
REMARK  8 active torsions:
REMARK  status: ('A' for Active; 'I' for Inactive)
REMARK    1  A    between atoms: C_1  and  O_2
REMARK    2  A    between atoms: O_2  and  C_3
REMARK    3  A    between atoms: C_7  and  C_10
REMARK    4  A    between atoms: C_8  and  O_9
REMARK    5  A    between atoms: N_12  and  N_13
REMARK    6  A    between atoms: N_13  and  S_14
REMARK    7  A    between atoms: S_14  and  C_17
REMARK    8  A    between atoms: C_21  and  C_23
REMARK                            x       y       z     vdW  Elec       q    Type
REMARK                         _______ _______ _______ _____ _____    ______ ____
ROOT
ATOM      1  C   UNL     1      -2.568  -4.147   0.016  0.00  0.00    +0.262 C 
ATOM      2  O   UNL     1      -1.545  -4.805   0.007  0.00  0.00    -0.269 OA
ATOM      3  N   UNL     1      -3.766  -4.765   0.024  0.00  0.00    -0.228 N 
ATOM      4  H   UNL     1      -4.582  -4.240   0.030  0.00  0.00    +0.171 HD
ENDROOT
BRANCH   1   9
ATOM      5  C   UNL     1      -1.201  -0.638   0.010  0.00  0.00    +0.162 A 
ATOM      6  C   UNL     1      -2.373   0.100   0.019  0.00  0.00    +0.049 A 
ATOM      7  C   UNL     1      -3.602  -0.538   0.028  0.00  0.00    +0.005 A 
ATOM      8  C   UNL     1      -3.671  -1.914   0.026  0.00  0.00    +0.017 A 
ATOM      9  C   UNL     1      -2.498  -2.673   0.017  0.00  0.00    +0.083 A 
ATOM     10  C   UNL     1      -1.255  -2.028   0.003  0.00  0.00    +0.171 A 
BRANCH   5  12
ATOM     11  C   UNL     1      -0.017   1.425   0.010  0.00  0.00    +0.277 C 
ATOM     12  O   UNL     1       0.002  -0.004   0.002  0.00  0.00    -0.491 OA
ENDBRANCH   5  12
BRANCH  10  13
ATOM     13  O   UNL     1      -0.109  -2.756  -0.012  0.00  0.00    -0.503 OA
ATOM     14  H   UNL     1       0.231  -2.971   0.867  0.00  0.00    +0.292 HD
ENDBRANCH  10  13
ENDBRANCH   1   9
BRANCH   3  15
ATOM     15  N   UNL     1      -3.833  -6.164   0.023  0.00  0.00    -0.108 NA
ATOM     16  H   UNL     1      -3.380  -6.671  -0.669  0.00  0.00    +0.172 HD
BRANCH  15  17
ATOM     17  S   UNL     1      -4.685  -6.953   1.203  0.00  0.00    +0.074 S 
ATOM     18  O   UNL     1      -4.686  -8.330   0.851  0.00  0.00    -0.152 OA
ATOM     19  O   UNL     1      -4.185  -6.485   2.447  0.00  0.00    -0.152 OA
BRANCH  17  20
ATOM     20  C   UNL     1      -6.356  -6.405   1.094  0.00  0.00    +0.108 A 
ATOM     21  C   UNL     1      -6.768  -5.298   1.815  0.00  0.00    +0.028 A 
ATOM     22  C   UNL     1      -8.078  -4.860   1.735  0.00  0.00    +0.003 A 
ATOM     23  C   UNL     1      -8.983  -5.525   0.934  0.00  0.00    +0.019 A 
ATOM     24  C   UNL     1      -8.575  -6.642   0.203  0.00  0.00    +0.054 A 
ATOM     25  C   UNL     1      -7.250  -7.076   0.285  0.00  0.00    +0.047 A 
BRANCH  24  26
ATOM     26  C   UNL     1      -9.509  -7.338  -0.630  0.00  0.00    +0.099 C 
ATOM     27  N   UNL     1     -10.250  -7.889  -1.291  0.00  0.00    -0.191 NA
ENDBRANCH  24  26
ENDBRANCH  17  20
ENDBRANCH  15  17
ENDBRANCH   3  15
TORSDOF 7
