REMARK  Name = ZINC61075762
REMARK  10 active torsions:
REMARK  status: ('A' for Active; 'I' for Inactive)
REMARK    1  A    between atoms: C_1  and  C_2
REMARK    2  A    between atoms: C_4  and  C_11
REMARK    3  A    between atoms: C_5  and  C_10
REMARK    4  A    between atoms: N_6  and  C_7
REMARK    5  A    between atoms: C_7  and  C_8
REMARK    6  A    between atoms: C_7  and  C_9
REMARK    7  A    between atoms: N_13  and  C_14
REMARK    8  A    between atoms: C_19  and  S_20
REMARK    9  A    between atoms: S_20  and  C_21
REMARK   10  A    between atoms: C_21  and  C_22
REMARK                            x       y       z     vdW  Elec       q    Type
REMARK                         _______ _______ _______ _____ _____    ______ ____
ROOT
ATOM      1  C   UNL     1      -0.081  -3.473  -1.540  0.00  0.00    +0.250 C 
ATOM      2  O   UNL     1      -0.059  -4.608  -1.102  0.00  0.00    -0.270 OA
ATOM      3  N   UNL     1      -0.216  -3.265  -2.865  0.00  0.00    -0.280 N 
ATOM      4  H   UNL     1      -0.314  -2.362  -3.207  0.00  0.00    +0.155 HD
ENDROOT
BRANCH   1   8
ATOM      5  C   UNL     1       0.215   1.278   0.297  0.00  0.00    +0.063 C 
ATOM      6  C   UNL     1       0.169  -0.223   0.167  0.00  0.00    +0.017 A 
ATOM      7  C   UNL     1       0.033  -0.905  -0.984  0.00  0.00    +0.035 A 
ATOM      8  C   UNL     1       0.041  -2.327  -0.624  0.00  0.00    +0.058 A 
ATOM      9  C   UNL     1       0.184  -2.374   0.736  0.00  0.00    +0.028 A 
ATOM     10  N   UNL     1       0.265  -1.112   1.198  0.00  0.00    -0.345 N 
ATOM     11  C   UNL     1       0.246  -3.625   1.573  0.00  0.00    +0.064 C 
BRANCH  10  12
ATOM     12  C   UNL     1       0.429  -0.745   2.607  0.00  0.00    +0.081 C 
ATOM     13  C   UNL     1       1.626   0.196   2.753  0.00  0.00    +0.030 C 
ATOM     14  C   UNL     1      -0.836  -0.042   3.102  0.00  0.00    +0.030 C 
ENDBRANCH  10  12
ENDBRANCH   1   8
BRANCH   3  15
ATOM     15  C   UNL     1      -0.216  -4.352  -3.749  0.00  0.00    +0.047 A 
ATOM     16  C   UNL     1       0.404  -5.539  -3.391  0.00  0.00    +0.024 A 
ATOM     17  C   UNL     1       0.403  -6.610  -4.264  0.00  0.00    +0.002 A 
ATOM     18  C   UNL     1      -0.215  -6.503  -5.497  0.00  0.00    +0.001 A 
ATOM     19  C   UNL     1      -0.836  -5.323  -5.863  0.00  0.00    +0.016 A 
ATOM     20  C   UNL     1      -0.845  -4.245  -4.990  0.00  0.00    +0.030 A 
BRANCH  20  21
ATOM     21  S   UNL     1      -1.642  -2.742  -5.450  0.00  0.00    -0.114 S 
BRANCH  21  22
ATOM     22  C   UNL     1      -2.296  -3.082  -7.107  0.00  0.00    +0.169 C 
BRANCH  22  23
ATOM     23  C   UNL     1      -3.012  -1.861  -7.625  0.00  0.00    +0.221 C 
ATOM     24  O   UNL     1      -3.074  -0.860  -6.943  0.00  0.00    -0.275 OA
ATOM     25  N   UNL     1      -3.582  -1.881  -8.846  0.00  0.00    -0.329 N 
ATOM     26  H   UNL     1      -3.532  -2.682  -9.392  0.00  0.00    +0.145 HD
ATOM     27  H   UNL     1      -4.043  -1.095  -9.180  0.00  0.00    +0.145 HD
ENDBRANCH  22  23
ENDBRANCH  21  22
ENDBRANCH  20  21
ENDBRANCH   3  15
TORSDOF 6
