REMARK  Name = ZINC04275292
REMARK  10 active torsions:
REMARK  status: ('A' for Active; 'I' for Inactive)
REMARK    1  A    between atoms: C_1  and  C_2
REMARK    2  A    between atoms: C_2  and  O_3
REMARK    3  A    between atoms: O_3  and  C_4
REMARK    4  A    between atoms: C_4  and  C_6
REMARK    5  A    between atoms: C_10  and  N_11
REMARK    6  A    between atoms: C_12  and  C_14
REMARK    7  A    between atoms: C_19  and  C_24
REMARK    8  A    between atoms: C_19  and  C_25
REMARK    9  A    between atoms: C_20  and  C_22
REMARK   10  A    between atoms: C_20  and  C_23
REMARK                            x       y       z     vdW  Elec       q    Type
REMARK                         _______ _______ _______ _____ _____    ______ ____
ROOT
ATOM      1  C   UNL     1      -4.120   1.047  -0.429  0.00  0.00    +0.091 A 
ATOM      2  C   UNL     1      -2.977   1.645   0.232  0.00  0.00    -0.024 A 
ATOM      3  C   UNL     1      -2.669   2.901  -0.163  0.00  0.00    -0.016 A 
ATOM      4  S   UNL     1      -3.881   3.295  -1.391  0.00  0.00    -0.079 S 
ATOM      5  C   UNL     1      -4.779   1.813  -1.385  0.00  0.00    +0.087 A 
ATOM      6  C   UNL     1      -1.544   3.746   0.341  0.00  0.00    -0.041 C 
ATOM      7  C   UNL     1      -0.729   1.579   1.268  0.00  0.00    -0.069 C 
ATOM      8  C   UNL     1      -2.138   0.981   1.315  0.00  0.00    +0.024 C 
ATOM      9  C   UNL     1      -0.013   1.086   0.008  0.00  0.00    -0.010 C 
ATOM     10  C   UNL     1       0.048   1.047   2.488  0.00  0.00    -0.010 C 
ATOM     11  C   UNL     1      -2.148   5.002   1.001  0.00  0.00    -0.005 C 
ATOM     12  C   UNL     1      -0.674   4.205  -0.835  0.00  0.00    -0.005 C 
ATOM     13  N   UNL     1      -0.719   3.061   1.375  0.00  0.00    +0.389 N 
ATOM     14  H   UNL     1      -1.078   3.320   2.300  0.00  0.00    -0.084 HD
ATOM     15  H   UNL     1       0.251   3.384   1.281  0.00  0.00    -0.084 HD
ENDROOT
BRANCH   5  16
ATOM     16  N   UNL     1      -5.883   1.473  -2.147  0.00  0.00    -0.275 N 
ATOM     17  C   UNL     1      -6.389   2.354  -3.033  0.00  0.00    +0.255 C 
ATOM     18  O   UNL     1      -5.874   3.449  -3.163  0.00  0.00    -0.269 OA
ATOM     19  H   UNL     1      -6.293   0.600  -2.043  0.00  0.00    +0.156 HD
BRANCH  17  20
ATOM     20  C   UNL     1      -7.558   1.993  -3.839  0.00  0.00    +0.074 A 
ATOM     21  C   UNL     1      -8.225   2.744  -4.795  0.00  0.00    +0.021 A 
ATOM     22  C   UNL     1      -9.304   2.157  -5.409  0.00  0.00    +0.008 A 
ATOM     23  C   UNL     1      -9.661   0.894  -5.058  0.00  0.00    +0.046 A 
ATOM     24  S   UNL     1      -8.489   0.471  -3.853  0.00  0.00    -0.092 S 
ENDBRANCH  17  20
ENDBRANCH   5  16
BRANCH   1  25
ATOM     25  C   UNL     1      -4.574  -0.307  -0.108  0.00  0.00    +0.342 C 
ATOM     26  O   UNL     1      -5.397  -0.480   0.771  0.00  0.00    -0.245 OA
BRANCH  25  27
ATOM     27  O   UNL     1      -4.080  -1.363  -0.786  0.00  0.00    -0.461 OA
BRANCH  27  29
ATOM     28  C   UNL     1      -3.906  -3.740  -1.286  0.00  0.00    +0.048 C 
ATOM     29  C   UNL     1      -4.576  -2.676  -0.414  0.00  0.00    +0.229 C 
ENDBRANCH  27  29
ENDBRANCH  25  27
ENDBRANCH   1  25
TORSDOF 5
