REMARK  Name = ZINC28048919
REMARK  6 active torsions:
REMARK  status: ('A' for Active; 'I' for Inactive)
REMARK    1  A    between atoms: C_1  and  C_2
REMARK    2  A    between atoms: C_2  and  C_4
REMARK    3  A    between atoms: C_8  and  N_10
REMARK    4  A    between atoms: N_13  and  C_14
REMARK    5  A    between atoms: C_23  and  O_24
REMARK    6  A    between atoms: N_25  and  C_26
REMARK                            x       y       z     vdW  Elec       q    Type
REMARK                         _______ _______ _______ _____ _____    ______ ____
ROOT
ATOM      1  C   UNL     1       3.815   3.150   0.188  0.00  0.00    +0.140 A 
ATOM      2  C   UNL     1       2.700   3.776  -0.341  0.00  0.00    +0.075 A 
ATOM      3  C   UNL     1       1.418   3.054  -0.294  0.00  0.00    +0.042 A 
ATOM      4  C   UNL     1       0.252   3.625  -0.808  0.00  0.00    +0.013 A 
ATOM      5  C   UNL     1      -0.932   2.924  -0.749  0.00  0.00    +0.001 A 
ATOM      6  C   UNL     1      -0.968   1.656  -0.188  0.00  0.00    +0.004 A 
ATOM      7  C   UNL     1       0.176   1.083   0.329  0.00  0.00    +0.047 A 
ATOM      8  C   UNL     1       1.381   1.773   0.279  0.00  0.00    +0.141 A 
ATOM      9  O   UNL     1       2.509   1.222   0.777  0.00  0.00    -0.424 OA
ATOM     10  C   UNL     1       3.687   1.864   0.744  0.00  0.00    +0.309 A 
ATOM     11  N   UNL     1       2.787   5.039  -0.895  0.00  0.00    -0.380 N 
ATOM     12  H   UNL     1       2.730   5.928  -0.250  0.00  0.00    +0.160 HD
ENDROOT
BRANCH   1  16
ATOM     13  N   UNL     1       7.392   3.684   0.013  0.00  0.00    -0.269 N 
ATOM     14  C   UNL     1       6.189   3.077  -0.029  0.00  0.00    +0.308 C 
ATOM     15  O   UNL     1       6.119   1.883  -0.245  0.00  0.00    -0.252 OA
ATOM     16  N   UNL     1       5.065   3.794   0.169  0.00  0.00    -0.262 N 
ATOM     17  H   UNL     1       7.462   4.748   0.285  0.00  0.00    +0.156 HD
ATOM     18  H   UNL     1       5.126   4.882   0.316  0.00  0.00    +0.157 HD
BRANCH  13  23
ATOM     19  C   UNL     1       9.647   1.156  -1.445  0.00  0.00    +0.019 A 
ATOM     20  C   UNL     1      10.867   1.542  -0.877  0.00  0.00    +0.011 A 
ATOM     21  C   UNL     1      10.918   2.626  -0.026  0.00  0.00    +0.002 A 
ATOM     22  C   UNL     1       9.769   3.338   0.265  0.00  0.00    +0.023 A 
ATOM     23  C   UNL     1       8.552   2.962  -0.290  0.00  0.00    +0.035 A 
ATOM     24  C   UNL     1       8.486   1.874  -1.146  0.00  0.00    +0.034 A 
BRANCH  19  26
ATOM     25  C   UNL     1      10.842  -0.772  -2.674  0.00  0.00    +0.091 C 
ATOM     26  C   UNL     1       9.588   0.000  -2.354  0.00  0.00    +0.160 C 
ATOM     27  O   UNL     1       8.530  -0.331  -2.845  0.00  0.00    -0.292 OA
ENDBRANCH  19  26
ENDBRANCH  13  23
ENDBRANCH   1  16
BRANCH  11  28
ATOM     28  C   UNL     1       2.950   4.964  -2.353  0.00  0.00    +0.079 C 
ATOM     29  C   UNL     1       4.434   4.734  -2.707  0.00  0.00    +0.024 C 
ATOM     30  C   UNL     1       4.653   5.574  -3.990  0.00  0.00    +0.002 C 
ATOM     31  C   UNL     1       3.799   6.838  -3.722  0.00  0.00    +0.002 C 
ATOM     32  C   UNL     1       2.546   6.301  -2.999  0.00  0.00    +0.024 C 
ENDBRANCH  11  28
BRANCH  10  33
ATOM     33  O   UNL     1       4.673   1.319   1.208  0.00  0.00    -0.479 OA
ATOM     34  H   UNL     1       4.591   0.313   1.646  0.00  0.00    +0.295 HD
ENDBRANCH  10  33
TORSDOF 5
