REMARK  Name = ZINC43287993
REMARK  8 active torsions:
REMARK  status: ('A' for Active; 'I' for Inactive)
REMARK    1  A    between atoms: C_1  and  C_2
REMARK    2  A    between atoms: C_2  and  C_4
REMARK    3  A    between atoms: C_2  and  N_20
REMARK    4  A    between atoms: C_4  and  C_6
REMARK    5  A    between atoms: C_4  and  N_12
REMARK    6  A    between atoms: C_16  and  C_17
REMARK    7  A    between atoms: C_17  and  C_18
REMARK    8  A    between atoms: C_17  and  C_19
REMARK                            x       y       z     vdW  Elec       q    Type
REMARK                         _______ _______ _______ _____ _____    ______ ____
ROOT
ATOM      1  C   UNL     1       0.742  -0.511   1.242  0.00  0.00    +0.110 C 
ENDROOT
BRANCH   1   2
ATOM      2  C   UNL     1       0.037  -0.025   2.481  0.00  0.00    +0.012 A 
ATOM      3  C   UNL     1       0.509   0.761   3.479  0.00  0.00    +0.028 A 
ATOM      4  C   UNL     1      -0.327   1.084   4.532  0.00  0.00    +0.025 A 
ATOM      5  C   UNL     1      -1.595   0.604   4.535  0.00  0.00    +0.060 A 
ATOM      6  S   UNL     1      -1.640  -0.329   3.013  0.00  0.00    -0.098 S 
ATOM      7 BR   UNL     1       0.288   2.177   5.947  0.00  0.00    -0.050 Br
ENDBRANCH   1   2
BRANCH   1   8
ATOM      8  N   UNL     1       0.762  -1.976   1.234  0.00  0.00    -0.328 N 
ATOM      9  C   UNL     1      -0.329  -2.803   1.234  0.00  0.00    +0.107 A 
ATOM     10  C   UNL     1       0.140  -4.065   1.224  0.00  0.00    +0.130 A 
ATOM     11  N   UNL     1       1.480  -4.011   1.218  0.00  0.00    -0.240 NA
ATOM     12  C   UNL     1       1.860  -2.762   1.219  0.00  0.00    +0.113 A 
BRANCH  12  13
ATOM     13  C   UNL     1       3.287  -2.278   1.208  0.00  0.00    +0.049 C 
ATOM     14  C   UNL     1       4.013  -2.805   2.448  0.00  0.00    +0.015 C 
ATOM     15  C   UNL     1       3.990  -2.790  -0.050  0.00  0.00    +0.015 C 
ENDBRANCH  12  13
ENDBRANCH   1   8
BRANCH   1  17
ATOM     16  C   UNL     1      -0.019   1.526   0.010  0.00  0.00    -0.012 C 
ATOM     17  C   UNL     1       0.002  -0.004   0.002  0.00  0.00    -0.050 C 
BRANCH  17  18
ATOM     18  N   UNL     1       0.690  -0.478  -1.207  0.00  0.00    +0.381 N 
ATOM     19  H   UNL     1       1.636  -0.129  -1.214  0.00  0.00    -0.090 HD
ATOM     20  H   UNL     1       0.703  -1.487  -1.212  0.00  0.00    -0.090 HD
ATOM     21  H   UNL     1       0.202  -0.144  -2.024  0.00  0.00    -0.090 HD
ENDBRANCH  17  18
ENDBRANCH   1  17
TORSDOF 5
