REMARK  Name = ZINC04917693
REMARK  8 active torsions:
REMARK  status: ('A' for Active; 'I' for Inactive)
REMARK    1  A    between atoms: C_5  and  N_7
REMARK    2  A    between atoms: C_8  and  C_10
REMARK    3  A    between atoms: C_12  and  N_28
REMARK    4  A    between atoms: C_15  and  N_16
REMARK    5  A    between atoms: C_17  and  C_19
REMARK    6  A    between atoms: C_19  and  N_20
REMARK    7  A    between atoms: N_20  and  C_21
REMARK    8  A    between atoms: C_21  and  C_22
REMARK                            x       y       z     vdW  Elec       q    Type
REMARK                         _______ _______ _______ _____ _____    ______ ____
ROOT
ATOM      1  C   UNL     1       0.117  -4.253   0.185  0.00  0.00    +0.060 A 
ATOM      2  C   UNL     1       1.337  -4.930   0.270  0.00  0.00    +0.047 A 
ATOM      3  C   UNL     1       1.355  -6.305   0.351  0.00  0.00    +0.127 A 
ATOM      4  C   UNL     1       0.169  -7.022   0.348  0.00  0.00    +0.034 A 
ATOM      5  C   UNL     1      -1.043  -6.367   0.265  0.00  0.00    +0.026 A 
ATOM      6  C   UNL     1      -1.081  -4.982   0.188  0.00  0.00    +0.046 A 
ENDROOT
BRANCH   1   8
ATOM      7  N   UNL     1       1.243  -2.091  -0.011  0.00  0.00    -0.279 N 
ATOM      8  C   UNL     1       0.090  -2.781   0.099  0.00  0.00    +0.250 C 
ATOM      9  O   UNL     1      -0.972  -2.189   0.127  0.00  0.00    -0.270 OA
ATOM     10  H   UNL     1       2.083  -2.564  -0.114  0.00  0.00    +0.155 HD
BRANCH   7  15
ATOM     11  C   UNL     1       0.177   1.357   0.695  0.00  0.00    +0.002 A 
ATOM     12  C   UNL     1       1.195   2.075   0.094  0.00  0.00    +0.003 A 
ATOM     13  C   UNL     1       2.230   1.415  -0.541  0.00  0.00    +0.040 A 
ATOM     14  C   UNL     1       2.250   0.032  -0.578  0.00  0.00    +0.144 A 
ATOM     15  C   UNL     1       1.227  -0.692   0.025  0.00  0.00    +0.069 A 
ATOM     16  C   UNL     1       0.190  -0.023   0.662  0.00  0.00    +0.026 A 
ATOM     17  F   UNL     1       3.261  -0.614  -1.199  0.00  0.00    -0.204 F 
ENDBRANCH   7  15
ENDBRANCH   1   8
BRANCH   6  18
ATOM     18  N   UNL     1      -2.304  -4.319   0.109  0.00  0.00    -0.286 N 
ATOM     19  C   UNL     1      -3.417  -4.898   0.600  0.00  0.00    +0.200 C 
ATOM     20  O   UNL     1      -3.341  -5.949   1.199  0.00  0.00    -0.278 OA
ATOM     21  H   UNL     1      -2.353  -3.440  -0.299  0.00  0.00    +0.155 HD
BRANCH  19  22
ATOM     22  C   UNL     1      -4.758  -4.239   0.404  0.00  0.00    +0.015 C 
BRANCH  22  23
ATOM     23  N   UNL     1      -5.804  -5.062   1.026  0.00  0.00    +0.386 N 
ATOM     24  H   UNL     1      -5.813  -5.975   0.598  0.00  0.00    -0.085 HD
ATOM     25  H   UNL     1      -5.616  -5.155   2.013  0.00  0.00    -0.085 HD
BRANCH  23  26
ATOM     26  C   UNL     1      -7.111  -4.419   0.835  0.00  0.00    -0.050 C 
BRANCH  26  27
ATOM     27  C   UNL     1      -8.200  -5.276   1.483  0.00  0.00    +0.101 C 
ATOM     28  C   UNL     1      -9.593  -4.633   1.263  0.00  0.00    +0.032 C 
ATOM     29  C   UNL     1     -10.514  -5.879   1.379  0.00  0.00    +0.030 C 
ATOM     30  C   UNL     1      -9.637  -6.993   0.768  0.00  0.00    +0.160 C 
ATOM     31  O   UNL     1      -8.272  -6.560   0.843  0.00  0.00    -0.378 OA
ENDBRANCH  26  27
ENDBRANCH  23  26
ENDBRANCH  22  23
ENDBRANCH  19  22
ENDBRANCH   6  18
BRANCH   3  32
ATOM     32  N   UNL     1       2.648  -7.020   0.440  0.00  0.00    +0.056 N 
ATOM     33  O   UNL     1       3.684  -6.398   0.442  0.00  0.00    -0.126 OA
ATOM     34  O   UNL     1       2.667  -8.227   0.511  0.00  0.00    -0.126 OA
ENDBRANCH   3  32
TORSDOF 8
