REMARK  Name = ZINC13555968
REMARK  12 active torsions:
REMARK  status: ('A' for Active; 'I' for Inactive)
REMARK    1  A    between atoms: C_1  and  C_2
REMARK    2  A    between atoms: C_7  and  C_26
REMARK    3  A    between atoms: C_11  and  C_12
REMARK    4  A    between atoms: N_13  and  C_14
REMARK    5  A    between atoms: C_14  and  C_15
REMARK    6  A    between atoms: C_15  and  N_16
REMARK    7  A    between atoms: N_18  and  C_19
REMARK    8  A    between atoms: C_19  and  C_20
REMARK    9  A    between atoms: C_20  and  C_21
REMARK   10  A    between atoms: C_21  and  N_22
REMARK   11  A    between atoms: N_22  and  C_23
REMARK   12  A    between atoms: N_22  and  C_24
REMARK                            x       y       z     vdW  Elec       q    Type
REMARK                         _______ _______ _______ _____ _____    ______ ____
ROOT
ATOM      1  C   UNL     1      -0.018   1.503   0.010  0.00  0.00    +0.044 C 
ATOM      2  C   UNL     1       0.002  -0.004   0.002  0.00  0.00    -0.045 A 
ATOM      3  C   UNL     1       0.006  -0.683  -1.215  0.00  0.00    +0.004 A 
ATOM      4  C   UNL     1       0.024  -2.044  -1.254  0.00  0.00    +0.010 A 
ATOM      5  C   UNL     1       0.040  -2.774  -0.054  0.00  0.00    +0.002 A 
ATOM      6  C   UNL     1       0.060  -4.180  -0.060  0.00  0.00    +0.032 A 
ATOM      7  C   UNL     1       0.075  -4.839   1.162  0.00  0.00    +0.092 A 
ATOM      8  C   UNL     1       0.071  -4.083   2.359  0.00  0.00    +0.137 A 
ATOM      9  N   UNL     1       0.052  -2.768   2.336  0.00  0.00    -0.231 NA
ATOM     10  C   UNL     1       0.037  -2.085   1.185  0.00  0.00    +0.076 A 
ATOM     11  C   UNL     1       0.022  -0.680   1.184  0.00  0.00    -0.022 A 
ATOM     12  C   UNL     1       0.024   0.076   2.487  0.00  0.00    +0.046 C 
ATOM     13  N   UNL     1       0.086  -4.739   3.576  0.00  0.00    -0.327 N 
ATOM     14  H   UNL     1       0.100  -5.709   3.604  0.00  0.00    +0.148 HD
ENDROOT
BRANCH   7  15
ATOM     15  C   UNL     1       0.095  -6.270   1.212  0.00  0.00    +0.103 C 
ATOM     16  N   UNL     1       0.111  -7.405   1.251  0.00  0.00    -0.191 NA
ENDBRANCH   7  15
BRANCH  13  17
ATOM     17  C   UNL     1       0.082  -3.971   4.823  0.00  0.00    +0.121 C 
BRANCH  17  18
ATOM     18  C   UNL     1       0.102  -4.931   6.014  0.00  0.00    +0.122 C 
BRANCH  18  19
ATOM     19  N   UNL     1       0.097  -4.162   7.261  0.00  0.00    -0.323 N 
ATOM     20  C   UNL     1       0.113  -4.811   8.464  0.00  0.00    +0.139 C 
ATOM     21  N   UNL     1       0.109  -4.095   9.627  0.00  0.00    -0.367 N 
ATOM     22  S   UNL     1       0.136  -6.471   8.511  0.00  0.00    -0.016 SA
ATOM     23  H   UNL     1       0.084  -3.193   7.233  0.00  0.00    +0.148 HD
ATOM     24  H   UNL     1       0.095  -3.125   9.599  0.00  0.00    +0.161 HD
BRANCH  21  25
ATOM     25  C   UNL     1       0.125  -4.790  10.916  0.00  0.00    +0.112 C 
BRANCH  25  26
ATOM     26  C   UNL     1       0.117  -3.763  12.050  0.00  0.00    +0.002 C 
BRANCH  26  27
ATOM     27  C   UNL     1       0.134  -4.490  13.396  0.00  0.00    -0.078 C 
BRANCH  27  28
ATOM     28  N   UNL     1       0.126  -3.504  14.485  0.00  0.00    +0.376 N 
ATOM     29  C   UNL     1       0.021  -4.199  15.775  0.00  0.00    -0.097 C 
ATOM     30  C   UNL     1       1.370  -2.724  14.448  0.00  0.00    -0.097 C 
ATOM     31  H   UNL     1      -0.663  -2.884  14.372  0.00  0.00    -0.083 HD
ENDBRANCH  27  28
ENDBRANCH  26  27
ENDBRANCH  25  26
ENDBRANCH  21  25
ENDBRANCH  18  19
ENDBRANCH  17  18
ENDBRANCH  13  17
TORSDOF 8
