REMARK  Name = ZINC33462229
REMARK  9 active torsions:
REMARK  status: ('A' for Active; 'I' for Inactive)
REMARK    1  A    between atoms: C_1  and  C_2
REMARK    2  A    between atoms: C_2  and  N_3
REMARK    3  A    between atoms: N_3  and  C_4
REMARK    4  A    between atoms: N_3  and  C_6
REMARK    5  A    between atoms: C_4  and  C_5
REMARK    6  A    between atoms: C_9  and  C_12
REMARK    7  A    between atoms: C_12  and  C_14
REMARK    8  A    between atoms: C_12  and  N_16
REMARK    9  A    between atoms: C_14  and  N_15
REMARK                            x       y       z     vdW  Elec       q    Type
REMARK                         _______ _______ _______ _____ _____    ______ ____
ROOT
ATOM      1  C   UNL     1      -0.801   3.055  -1.203  0.00  0.00    +0.070 C 
ENDROOT
BRANCH   1   2
ATOM      2  N   UNL     1       0.580   3.545  -1.299  0.00  0.00    -0.293 NA
ATOM      3  C   UNL     1       1.366   3.140  -0.122  0.00  0.00    +0.090 C 
ATOM      4  C   UNL     1       2.849   3.346  -0.435  0.00  0.00    +0.051 C 
ATOM      5  C   UNL     1       3.072   4.736  -0.972  0.00  0.00    -0.042 A 
ATOM      6  C   UNL     1       4.364   5.242  -0.982  0.00  0.00    +0.004 A 
ATOM      7  C   UNL     1       4.613   6.509  -1.469  0.00  0.00    +0.000 A 
ATOM      8  C   UNL     1       3.570   7.278  -1.950  0.00  0.00    +0.000 A 
ATOM      9  C   UNL     1       2.284   6.776  -1.941  0.00  0.00    +0.005 A 
ATOM     10  C   UNL     1       2.032   5.504  -1.449  0.00  0.00    -0.030 A 
ATOM     11  C   UNL     1       0.611   5.003  -1.452  0.00  0.00    +0.120 C 
ENDBRANCH   1   2
BRANCH   1  15
ATOM     12  C   UNL     1      -3.049   4.467  -4.553  0.00  0.00    +0.030 A 
ATOM     13  C   UNL     1      -3.627   4.435  -3.291  0.00  0.00    +0.023 A 
ATOM     14  C   UNL     1      -2.898   3.978  -2.210  0.00  0.00    +0.007 A 
ATOM     15  C   UNL     1      -1.594   3.553  -2.385  0.00  0.00    -0.032 A 
ATOM     16  C   UNL     1      -1.013   3.588  -3.639  0.00  0.00    +0.007 A 
ATOM     17  C   UNL     1      -1.738   4.038  -4.725  0.00  0.00    +0.023 A 
BRANCH  12  18
ATOM     18  N   UNL     1      -3.783   4.928  -5.648  0.00  0.00    -0.330 N 
BRANCH  18  20
ATOM     19  C   UNL     1      -3.430   3.632  -7.691  0.00  0.00    +0.024 C 
ATOM     20  C   UNL     1      -3.172   4.961  -6.979  0.00  0.00    +0.102 C 
ENDBRANCH  18  20
BRANCH  18  21
ATOM     21  C   UNL     1      -5.165   5.380  -5.465  0.00  0.00    +0.102 C 
ATOM     22  C   UNL     1      -5.174   6.878  -5.152  0.00  0.00    +0.024 C 
ENDBRANCH  18  21
ENDBRANCH  12  18
ENDBRANCH   1  15
BRANCH   1  23
ATOM     23  C   UNL     1      -0.800   1.525  -1.198  0.00  0.00    -0.063 C 
BRANCH  23  24
ATOM     24  N   UNL     1      -2.173   1.035  -1.020  0.00  0.00    +0.379 N 
ATOM     25  H   UNL     1      -2.173  -0.065  -1.016  0.00  0.00    -0.090 HD
ATOM     26  H   UNL     1      -2.803   1.398  -1.845  0.00  0.00    -0.090 HD
ATOM     27  H   UNL     1      -2.573   1.404  -0.064  0.00  0.00    -0.090 HD
ENDBRANCH  23  24
ENDBRANCH   1  23
TORSDOF 7
