REMARK  Name = ZINC66243863
REMARK  7 active torsions:
REMARK  status: ('A' for Active; 'I' for Inactive)
REMARK    1  A    between atoms: C_3  and  O_9
REMARK    2  A    between atoms: O_9  and  C_10
REMARK    3  A    between atoms: C_10  and  C_11
REMARK    4  A    between atoms: C_11  and  C_12
REMARK    5  A    between atoms: C_12  and  N_13
REMARK    6  A    between atoms: N_15  and  C_16
REMARK    7  A    between atoms: C_16  and  C_17
REMARK                            x       y       z     vdW  Elec       q    Type
REMARK                         _______ _______ _______ _____ _____    ______ ____
ROOT
ATOM      1  N   UNL     1       6.106   6.241  -0.025  0.00  0.00    -0.358 N 
ATOM      2  C   UNL     1       6.268   7.606  -0.020  0.00  0.00    +0.169 C 
ATOM      3  N   UNL     1       7.466   8.121  -0.029  0.00  0.00    -0.355 N 
ATOM      4  N   UNL     1       5.167   8.429  -0.005  0.00  0.00    -0.371 N 
ATOM      5  H   UNL     1       6.883   5.661  -0.035  0.00  0.00    +0.162 HD
ATOM      6  H   UNL     1       4.275   8.046   0.002  0.00  0.00    +0.159 HD
ATOM      7  H   UNL     1       5.281   9.393  -0.001  0.00  0.00    +0.159 HD
ATOM      8  H   UNL     1       7.580   9.084  -0.025  0.00  0.00    +0.162 HD
ENDROOT
BRANCH   1   9
ATOM      9  C   UNL     1       4.760   5.663  -0.015  0.00  0.00    +0.119 C 
BRANCH   9  10
ATOM     10  C   UNL     1       4.860   4.136  -0.024  0.00  0.00    +0.062 C 
BRANCH  10  11
ATOM     11  C   UNL     1       3.454   3.533  -0.013  0.00  0.00    +0.231 C 
BRANCH  11  12
ATOM     12  O   UNL     1       3.548   2.107  -0.021  0.00  0.00    -0.490 OA
BRANCH  12  15
ATOM     13  C   UNL     1      -0.017   1.379   0.010  0.00  0.00    +0.023 A 
ATOM     14  C   UNL     1       1.170   2.088   0.002  0.00  0.00    +0.048 A 
ATOM     15  C   UNL     1       2.380   1.411  -0.013  0.00  0.00    +0.139 A 
ATOM     16  C   UNL     1       2.398   0.023  -0.021  0.00  0.00    +0.084 A 
ATOM     17  C   UNL     1       1.209  -0.682  -0.013  0.00  0.00    +0.043 A 
ATOM     18  C   UNL     1       0.002  -0.004   0.002  0.00  0.00    +0.043 A 
ATOM     19 CL   UNL     1      -1.490  -0.891   0.012  0.00  0.00    -0.083 Cl
ATOM     20 CL   UNL     1       3.911  -0.827  -0.040  0.00  0.00    -0.080 Cl
ENDBRANCH  12  15
ENDBRANCH  11  12
ENDBRANCH  10  11
ENDBRANCH   9  10
ENDBRANCH   1   9
BRANCH   3  21
ATOM     21  C   UNL     1       8.639   7.244  -0.045  0.00  0.00    +0.147 C 
BRANCH  21  22
ATOM     22  C   UNL     1       9.911   8.094  -0.053  0.00  0.00    +0.137 C 
ATOM     23  C   UNL     1      11.149   7.183  -0.191  0.00  0.00    +0.035 C 
ATOM     24  C   UNL     1      12.168   7.863   0.764  0.00  0.00    +0.031 C 
ATOM     25  C   UNL     1      11.223   8.390   1.874  0.00  0.00    +0.160 C 
ATOM     26  O   UNL     1      10.029   8.803   1.186  0.00  0.00    -0.375 OA
ENDBRANCH  21  22
ENDBRANCH   3  21
TORSDOF 7
