REMARK  Name = ZINC63384665
REMARK  7 active torsions:
REMARK  status: ('A' for Active; 'I' for Inactive)
REMARK    1  A    between atoms: C_1  and  C_2
REMARK    2  A    between atoms: C_2  and  C_3
REMARK    3  A    between atoms: C_3  and  C_5
REMARK    4  A    between atoms: C_3  and  N_6
REMARK    5  A    between atoms: C_7  and  O_32
REMARK    6  A    between atoms: C_9  and  C_16
REMARK    7  A    between atoms: N_30  and  C_31
REMARK                            x       y       z     vdW  Elec       q    Type
REMARK                         _______ _______ _______ _____ _____    ______ ____
ROOT
ATOM      1  N   UNL     1       0.998  -1.863  -3.945  0.00  0.00    -0.256 N 
ATOM      2  C   UNL     1       1.073  -0.947  -5.085  0.00  0.00    +0.220 C 
ATOM      3  C   UNL     1       0.131   0.237  -4.854  0.00  0.00    +0.142 C 
ATOM      4  C   UNL     1       0.325   0.758  -3.452  0.00  0.00    +0.229 C 
ATOM      5  O   UNL     1       0.215   1.944  -3.225  0.00  0.00    -0.275 OA
ATOM      6  N   UNL     1       0.620  -0.094  -2.453  0.00  0.00    -0.240 N 
ATOM      7  C   UNL     1       0.828  -1.398  -2.697  0.00  0.00    +0.311 C 
ATOM      8  O   UNL     1       0.869  -2.176  -1.764  0.00  0.00    -0.252 OA
ATOM      9  H   UNL     1       0.680   0.238  -1.544  0.00  0.00    +0.159 HD
ENDROOT
BRANCH   3  10
ATOM     10  C   UNL     1       0.445   1.345  -5.860  0.00  0.00    +0.099 C 
ATOM     11  C   UNL     1       0.095   0.873  -7.274  0.00  0.00    +0.124 C 
ATOM     12  C   UNL     1       0.594   1.958  -8.221  0.00  0.00    -0.036 C 
ATOM     13  C   UNL     1      -0.443   2.306  -8.971  0.00  0.00    -0.001 A 
ATOM     14  C   UNL     1      -0.564   3.232 -10.109  0.00  0.00    +0.010 A 
ATOM     15  C   UNL     1      -1.806   3.363 -10.645  0.00  0.00    +0.001 A 
ATOM     16  C   UNL     1      -2.926   2.675 -10.169  0.00  0.00    +0.002 A 
ATOM     17  C   UNL     1      -2.906   1.800  -9.132  0.00  0.00    +0.026 A 
ATOM     18  C   UNL     1      -1.654   1.574  -8.490  0.00  0.00    +0.043 A 
ATOM     19  N   UNL     1      -1.347   0.769  -7.491  0.00  0.00    -0.376 N 
ATOM     20  C   UNL     1       1.999   2.502  -8.133  0.00  0.00    +0.049 C 
ATOM     21  C   UNL     1       2.246   2.814  -6.646  0.00  0.00    +0.089 C 
ATOM     22  N   UNL     1       1.882   1.659  -5.820  0.00  0.00    -0.299 NA
ATOM     23  C   UNL     1       2.344   1.834  -4.436  0.00  0.00    +0.105 C 
ATOM     24  H   UNL     1      -1.958   0.211  -6.985  0.00  0.00    +0.160 HD
ENDBRANCH   3  10
BRANCH   1  25
ATOM     25  C   UNL     1       1.102  -3.306  -4.171  0.00  0.00    +0.077 C 
ATOM     26  C   UNL     1      -0.176  -3.992  -3.685  0.00  0.00    +0.028 C 
BRANCH  25  28
ATOM     27  C   UNL     1       3.592  -3.265  -3.969  0.00  0.00    +0.006 C 
ATOM     28  C   UNL     1       2.302  -3.858  -3.399  0.00  0.00    +0.019 C 
ENDBRANCH  25  28
ENDBRANCH   1  25
BRANCH   2  29
ATOM     29  O   UNL     1       2.413  -0.469  -5.223  0.00  0.00    -0.373 OA
ATOM     30  H   UNL     1       3.066  -1.166  -5.374  0.00  0.00    +0.212 HD
ENDBRANCH   2  29
TORSDOF 4
