REMARK  Name = ZINC67120122
REMARK  7 active torsions:
REMARK  status: ('A' for Active; 'I' for Inactive)
REMARK    1  A    between atoms: C_1  and  C_2
REMARK    2  A    between atoms: C_2  and  C_4
REMARK    3  A    between atoms: C_2  and  N_15
REMARK    4  A    between atoms: N_15  and  C_16
REMARK    5  A    between atoms: C_16  and  C_17
REMARK    6  A    between atoms: C_20  and  O_24
REMARK    7  A    between atoms: O_24  and  C_25
REMARK                            x       y       z     vdW  Elec       q    Type
REMARK                         _______ _______ _______ _____ _____    ______ ____
ROOT
ATOM      1  N   UNL     1       0.690  -0.478  -1.207  0.00  0.00    +0.386 N 
ATOM      2  H   UNL     1       1.608  -0.063  -1.256  0.00  0.00    -0.085 HD
ATOM      3  H   UNL     1       0.776  -1.482  -1.172  0.00  0.00    -0.085 HD
ENDROOT
BRANCH   1   5
ATOM      4  C   UNL     1      -0.019   1.526   0.010  0.00  0.00    -0.009 C 
ATOM      5  C   UNL     1       0.002  -0.004   0.002  0.00  0.00    -0.044 C 
BRANCH   5   6
ATOM      6  C   UNL     1       0.731  -0.503   1.223  0.00  0.00    -0.060 A 
ATOM      7  C   UNL     1       2.114  -0.513   1.244  0.00  0.00    +0.006 A 
ATOM      8  C   UNL     1       2.790  -0.968   2.362  0.00  0.00    +0.048 A 
ATOM      9  C   UNL     1       2.081  -1.417   3.462  0.00  0.00    +0.142 A 
ATOM     10  C   UNL     1       0.687  -1.408   3.440  0.00  0.00    +0.076 A 
ATOM     11  C   UNL     1       0.015  -0.945   2.321  0.00  0.00    +0.029 A 
ATOM     12  N   UNL     1      -0.020  -1.868   4.560  0.00  0.00    -0.280 N 
ATOM     13  C   UNL     1       0.634  -2.008   5.734  0.00  0.00    +0.255 C 
ATOM     14  O   UNL     1       0.051  -2.433   6.709  0.00  0.00    -0.272 OA
ATOM     15  C   UNL     1       2.091  -1.634   5.827  0.00  0.00    +0.325 C 
ATOM     16  O   UNL     1       2.729  -1.867   4.569  0.00  0.00    -0.481 OA
ATOM     17  H   UNL     1      -0.964  -2.081   4.494  0.00  0.00    +0.155 HD
ENDBRANCH   5   6
ENDBRANCH   1   5
BRANCH   1  18
ATOM     18  C   UNL     1      -0.086  -0.093  -2.394  0.00  0.00    -0.046 C 
BRANCH  18  19
ATOM     19  C   UNL     1       0.620  -0.579  -3.634  0.00  0.00    -0.063 A 
ATOM     20  C   UNL     1       1.552   0.229  -4.259  0.00  0.00    +0.005 A 
ATOM     21  C   UNL     1       2.200  -0.214  -5.396  0.00  0.00    +0.047 A 
ATOM     22  C   UNL     1       1.915  -1.470  -5.910  0.00  0.00    +0.145 A 
ATOM     23  C   UNL     1       0.980  -2.280  -5.281  0.00  0.00    +0.083 A 
ATOM     24  C   UNL     1       0.338  -1.834  -4.141  0.00  0.00    +0.025 A 
ATOM     25 CL   UNL     1       0.620  -3.853  -5.922  0.00  0.00    -0.080 Cl
BRANCH  22  26
ATOM     26  O   UNL     1       2.551  -1.907  -7.029  0.00  0.00    -0.433 OA
BRANCH  26  27
ATOM     27  C   UNL     1       3.502  -1.021  -7.624  0.00  0.00    +0.541 C 
ATOM     28  F   UNL     1       2.862   0.167  -7.995  0.00  0.00    -0.166 F 
ATOM     29  F   UNL     1       4.515  -0.737  -6.702  0.00  0.00    -0.166 F 
ENDBRANCH  26  27
ENDBRANCH  22  26
ENDBRANCH  18  19
ENDBRANCH   1  18
TORSDOF 6
