REMARK  Name = ZINC39550192
REMARK  7 active torsions:
REMARK  status: ('A' for Active; 'I' for Inactive)
REMARK    1  A    between atoms: C_1  and  C_2
REMARK    2  A    between atoms: C_2  and  C_3
REMARK    3  A    between atoms: C_3  and  N_4
REMARK    4  A    between atoms: C_11  and  O_33
REMARK    5  A    between atoms: C_13  and  C_17
REMARK    6  A    between atoms: N_19  and  C_20
REMARK    7  A    between atoms: C_22  and  O_32
REMARK                            x       y       z     vdW  Elec       q    Type
REMARK                         _______ _______ _______ _____ _____    ______ ____
ROOT
ATOM      1  C   UNL     1       3.241  -4.594   0.465  0.00  0.00    +0.229 C 
ATOM      2  O   UNL     1       3.733  -5.307   1.314  0.00  0.00    -0.275 OA
ATOM      3  N   UNL     1       3.971  -4.217  -0.603  0.00  0.00    -0.297 N 
ATOM      4  H   UNL     1       3.578  -3.647  -1.282  0.00  0.00    +0.150 HD
ENDROOT
BRANCH   3   5
ATOM      5  C   UNL     1       5.358  -4.668  -0.739  0.00  0.00    +0.226 C 
ATOM      6  C   UNL     1       6.115  -3.615  -1.525  0.00  0.00    +0.132 C 
ATOM      7  C   UNL     1       6.733  -4.028  -2.707  0.00  0.00    +0.036 A 
ATOM      8  C   UNL     1       7.458  -3.113  -3.498  0.00  0.00    +0.013 A 
ATOM      9  C   UNL     1       8.051  -3.542  -4.646  0.00  0.00    +0.001 A 
ATOM     10  C   UNL     1       7.958  -4.868  -5.056  0.00  0.00    +0.002 A 
ATOM     11  C   UNL     1       7.272  -5.797  -4.333  0.00  0.00    +0.024 A 
ATOM     12  C   UNL     1       6.634  -5.425  -3.138  0.00  0.00    +0.044 A 
ATOM     13  N   UNL     1       5.961  -6.340  -2.429  0.00  0.00    -0.283 N 
ATOM     14  C   UNL     1       5.338  -6.071  -1.300  0.00  0.00    +0.245 C 
ATOM     15  O   UNL     1       4.744  -6.954  -0.709  0.00  0.00    -0.273 OA
ATOM     16  H   UNL     1       5.931  -7.250  -2.765  0.00  0.00    +0.155 HD
BRANCH   6  17
ATOM     17  O   UNL     1       6.187  -2.347  -1.106  0.00  0.00    -0.508 OA
ATOM     18  H   UNL     1       6.696  -1.768  -1.689  0.00  0.00    +0.292 HD
ENDBRANCH   6  17
ENDBRANCH   3   5
BRANCH   1  27
ATOM     19  N   UNL     1       0.762  -1.976   1.234  0.00  0.00    -0.270 N 
ATOM     20  C   UNL     1      -0.277  -2.688   1.841  0.00  0.00    +0.042 A 
ATOM     21  C   UNL     1      -1.489  -2.064   2.106  0.00  0.00    +0.024 A 
ATOM     22  C   UNL     1      -2.511  -2.774   2.706  0.00  0.00    +0.002 A 
ATOM     23  C   UNL     1      -2.328  -4.102   3.044  0.00  0.00    +0.000 A 
ATOM     24  C   UNL     1      -1.121  -4.725   2.782  0.00  0.00    +0.008 A 
ATOM     25  C   UNL     1      -0.096  -4.022   2.182  0.00  0.00    +0.003 A 
ATOM     26  C   UNL     1       1.220  -4.697   1.894  0.00  0.00    +0.167 C 
ATOM     27  C   UNL     1       1.814  -4.131   0.604  0.00  0.00    +0.194 C 
ATOM     28  C   UNL     1       1.777  -2.627   0.636  0.00  0.00    +0.235 C 
ATOM     29  O   UNL     1       2.675  -1.994   0.122  0.00  0.00    -0.274 OA
BRANCH  26  30
ATOM     30  O   UNL     1       2.122  -4.462   2.977  0.00  0.00    -0.386 OA
ATOM     31  H   UNL     1       1.809  -4.796   3.829  0.00  0.00    +0.210 HD
ENDBRANCH  26  30
BRANCH  19  32
ATOM     32  C   UNL     1       0.742  -0.511   1.242  0.00  0.00    +0.113 C 
BRANCH  32  34
ATOM     33  C   UNL     1      -0.019   1.526   0.010  0.00  0.00    +0.005 C 
ATOM     34  C   UNL     1       0.002  -0.004   0.002  0.00  0.00    +0.016 C 
ENDBRANCH  32  34
ENDBRANCH  19  32
ENDBRANCH   1  27
TORSDOF 6
