REMARK  Name = ZINC40464270
REMARK  9 active torsions:
REMARK  status: ('A' for Active; 'I' for Inactive)
REMARK    1  A    between atoms: C_1  and  C_2
REMARK    2  A    between atoms: C_2  and  C_3
REMARK    3  A    between atoms: C_2  and  C_4
REMARK    4  A    between atoms: C_2  and  C_5
REMARK    5  A    between atoms: C_5  and  C_7
REMARK    6  A    between atoms: C_5  and  N_22
REMARK    7  A    between atoms: N_9  and  C_10
REMARK    8  A    between atoms: C_13  and  O_17
REMARK    9  A    between atoms: O_17  and  C_18
REMARK                            x       y       z     vdW  Elec       q    Type
REMARK                         _______ _______ _______ _____ _____    ______ ____
ROOT
ATOM      1  C   UNL     1       2.132   0.025  -1.266  0.00  0.00    +0.203 C 
ATOM      2  O   UNL     1       3.045  -0.691  -0.913  0.00  0.00    -0.277 OA
ATOM      3  N   UNL     1       2.381   1.288  -1.662  0.00  0.00    -0.287 N 
ATOM      4  H   UNL     1       1.661   1.839  -2.009  0.00  0.00    +0.155 HD
ENDROOT
BRANCH   3   5
ATOM      5  C   UNL     1       3.679   1.808  -1.573  0.00  0.00    +0.036 A 
ATOM      6  C   UNL     1       4.773   0.984  -1.803  0.00  0.00    +0.047 A 
ATOM      7  C   UNL     1       6.054   1.497  -1.716  0.00  0.00    +0.086 A 
ATOM      8  C   UNL     1       6.246   2.833  -1.397  0.00  0.00    +0.163 A 
ATOM      9  C   UNL     1       5.153   3.657  -1.166  0.00  0.00    +0.086 A 
ATOM     10  C   UNL     1       3.872   3.147  -1.261  0.00  0.00    +0.047 A 
ATOM     11 CL   UNL     1       5.394   5.329  -0.767  0.00  0.00    -0.080 Cl
ATOM     12 CL   UNL     1       7.422   0.467  -2.003  0.00  0.00    -0.080 Cl
BRANCH   8  13
ATOM     13  O   UNL     1       7.507   3.337  -1.310  0.00  0.00    -0.431 OA
BRANCH  13  14
ATOM     14  C   UNL     1       8.073   3.877  -2.506  0.00  0.00    +0.541 C 
ATOM     15  F   UNL     1       8.134   2.880  -3.485  0.00  0.00    -0.166 F 
ATOM     16  F   UNL     1       7.277   4.933  -2.963  0.00  0.00    -0.166 F 
ENDBRANCH  13  14
ENDBRANCH   8  13
ENDBRANCH   3   5
BRANCH   1  17
ATOM     17  C   UNL     1       0.719  -0.499  -1.263  0.00  0.00    +0.019 C 
BRANCH  17  19
ATOM     18  C   UNL     1      -0.029   1.525  -0.004  0.00  0.00    +0.009 C 
ATOM     19  C   UNL     1      -0.005  -0.004  -0.009  0.00  0.00    -0.042 C 
ATOM     20  C   UNL     1       0.728  -0.507   1.236  0.00  0.00    +0.009 C 
ATOM     21  C   UNL     1      -1.440  -0.536  -0.005  0.00  0.00    +0.009 C 
ENDBRANCH  17  19
BRANCH  17  22
ATOM     22  N   UNL     1       0.741  -1.968  -1.267  0.00  0.00    +0.386 N 
ATOM     23  H   UNL     1      -0.205  -2.319  -1.265  0.00  0.00    -0.089 HD
ATOM     24  H   UNL     1       1.219  -2.295  -2.094  0.00  0.00    -0.089 HD
ATOM     25  H   UNL     1       1.225  -2.300  -0.447  0.00  0.00    -0.089 HD
ENDBRANCH  17  22
ENDBRANCH   1  17
TORSDOF 6
