REMARK  Name = ZINC40731397
REMARK  9 active torsions:
REMARK  status: ('A' for Active; 'I' for Inactive)
REMARK    1  A    between atoms: C_1  and  C_2
REMARK    2  A    between atoms: C_2  and  C_3
REMARK    3  A    between atoms: C_4  and  C_21
REMARK    4  A    between atoms: N_6  and  C_9
REMARK    5  A    between atoms: C_7  and  C_8
REMARK    6  A    between atoms: C_12  and  S_16
REMARK    7  A    between atoms: C_14  and  N_15
REMARK    8  A    between atoms: S_16  and  N_19
REMARK    9  A    between atoms: N_19  and  C_20
REMARK                            x       y       z     vdW  Elec       q    Type
REMARK                         _______ _______ _______ _____ _____    ______ ____
ROOT
ATOM      1  C   UNL     1      -4.438  -1.667  -1.453  0.00  0.00    +0.086 A 
ATOM      2  C   UNL     1      -4.359  -1.531  -2.831  0.00  0.00    +0.031 A 
ATOM      3  C   UNL     1      -5.432  -1.894  -3.623  0.00  0.00    +0.031 A 
ATOM      4  C   UNL     1      -6.585  -2.394  -3.046  0.00  0.00    +0.107 A 
ATOM      5  C   UNL     1      -6.672  -2.534  -1.675  0.00  0.00    +0.053 A 
ATOM      6  C   UNL     1      -5.598  -2.178  -0.872  0.00  0.00    +0.052 A 
ENDROOT
BRANCH   1  10
ATOM      7  C   UNL     1      -1.694  -0.171   0.225  0.00  0.00    -0.004 A 
ATOM      8  C   UNL     1      -1.792  -1.393   0.899  0.00  0.00    +0.064 A 
ATOM      9  N   UNL     1      -2.784  -2.070   0.377  0.00  0.00    -0.171 NA
ATOM     10  N   UNL     1      -3.350  -1.299  -0.646  0.00  0.00    -0.235 N 
ATOM     11  C   UNL     1      -2.666  -0.135  -0.716  0.00  0.00    +0.045 A 
ATOM     12  C   UNL     1      -2.936   0.998  -1.672  0.00  0.00    +0.066 C 
ATOM     13  C   UNL     1      -0.909  -1.852   2.030  0.00  0.00    +0.068 C 
BRANCH   7  15
ATOM     14  C   UNL     1      -1.251   1.876   1.553  0.00  0.00    +0.009 C 
ATOM     15  C   UNL     1      -0.688   0.916   0.503  0.00  0.00    +0.035 C 
ENDBRANCH   7  15
ENDBRANCH   1  10
BRANCH   6  16
ATOM     16  N   UNL     1      -5.681  -2.323   0.516  0.00  0.00    -0.356 N 
ATOM     17  H   UNL     1      -4.970  -1.985   1.083  0.00  0.00    +0.142 HD
ATOM     18  H   UNL     1      -6.450  -2.762   0.912  0.00  0.00    +0.142 HD
ENDBRANCH   6  16
BRANCH   4  19
ATOM     19  S   UNL     1      -7.948  -2.855  -4.064  0.00  0.00    +0.058 S 
ATOM     20  O   UNL     1      -9.108  -2.783  -3.247  0.00  0.00    -0.153 OA
ATOM     21  O   UNL     1      -7.820  -2.117  -5.272  0.00  0.00    -0.153 OA
BRANCH  19  22
ATOM     22  N   UNL     1      -7.746  -4.450  -4.460  0.00  0.00    -0.193 NA
ATOM     23  C   UNL     1      -7.797  -5.476  -3.416  0.00  0.00    +0.127 C 
ATOM     24  H   UNL     1      -7.594  -4.705  -5.384  0.00  0.00    +0.148 HD
ENDBRANCH  19  22
ENDBRANCH   4  19
TORSDOF 5
