REMARK  Name = ZINC35664173
REMARK  12 active torsions:
REMARK  status: ('A' for Active; 'I' for Inactive)
REMARK    1  A    between atoms: C_1  and  C_2
REMARK    2  A    between atoms: C_2  and  N_3
REMARK    3  A    between atoms: C_4  and  C_23
REMARK    4  A    between atoms: C_5  and  C_18
REMARK    5  A    between atoms: C_6  and  C_11
REMARK    6  A    between atoms: C_15  and  C_17
REMARK    7  A    between atoms: C_18  and  O_20
REMARK    8  A    between atoms: O_20  and  C_21
REMARK    9  A    between atoms: C_21  and  C_22
REMARK   10  A    between atoms: C_23  and  N_24
REMARK   11  A    between atoms: C_31  and  C_33
REMARK   12  A    between atoms: C_36  and  C_39
REMARK                            x       y       z     vdW  Elec       q    Type
REMARK                         _______ _______ _______ _____ _____    ______ ____
ROOT
ATOM      1  N   UNL     1       0.805  -0.334  -1.377  0.00  0.00    -0.261 N 
ATOM      2  C   UNL     1      -0.047  -0.832  -2.321  0.00  0.00    +0.010 C 
ATOM      3  C   UNL     1       0.418  -1.513  -3.390  0.00  0.00    +0.076 C 
ATOM      4  C   UNL     1       1.917  -1.704  -3.507  0.00  0.00    +0.143 C 
ATOM      5  N   UNL     1       2.748  -1.127  -2.436  0.00  0.00    -0.288 N 
ATOM      6  C   UNL     1       2.136  -0.469  -1.433  0.00  0.00    +0.307 C 
ATOM      7  O   UNL     1       2.813   0.014  -0.546  0.00  0.00    -0.252 OA
ATOM      8  H   UNL     1       3.714  -1.217  -2.455  0.00  0.00    +0.151 HD
ENDROOT
BRANCH   4   9
ATOM      9  C   UNL     1       2.362  -1.101  -4.814  0.00  0.00    -0.022 A 
ATOM     10  C   UNL     1       2.549   0.264  -4.919  0.00  0.00    +0.006 A 
ATOM     11  C   UNL     1       2.957   0.817  -6.118  0.00  0.00    +0.001 A 
ATOM     12  C   UNL     1       3.179   0.003  -7.214  0.00  0.00    +0.003 A 
ATOM     13  C   UNL     1       2.993  -1.362  -7.109  0.00  0.00    -0.050 A 
ATOM     14  C   UNL     1       2.589  -1.915  -5.908  0.00  0.00    +0.009 A 
ATOM     15  C   UNL     1       3.234  -2.249  -8.304  0.00  0.00    +0.044 C 
ENDBRANCH   4   9
BRANCH   1  17
ATOM     16  C   UNL     1       0.242   1.895  -0.542  0.00  0.00    +0.025 C 
ATOM     17  C   UNL     1       0.231   0.394  -0.243  0.00  0.00    +0.111 C 
ENDBRANCH   1  17
BRANCH   3  18
ATOM     18  C   UNL     1      -0.463  -2.030  -4.368  0.00  0.00    +0.339 C 
ATOM     19  O   UNL     1      -1.654  -1.790  -4.301  0.00  0.00    -0.245 OA
BRANCH  18  20
ATOM     20  O   UNL     1       0.017  -2.789  -5.375  0.00  0.00    -0.462 OA
BRANCH  20  21
ATOM     21  C   UNL     1      -0.929  -3.278  -6.327  0.00  0.00    +0.229 C 
ATOM     22  C   UNL     1      -0.204  -4.112  -7.385  0.00  0.00    +0.048 C 
ENDBRANCH  20  21
ENDBRANCH  18  20
ENDBRANCH   3  18
BRANCH   2  23
ATOM     23  C   UNL     1      -1.531  -0.620  -2.166  0.00  0.00    -0.026 C 
BRANCH  23  24
ATOM     24  N   UNL     1      -2.143  -1.830  -1.602  0.00  0.00    +0.384 N 
ATOM     25  C   UNL     1      -3.595  -1.688  -1.672  0.00  0.00    -0.077 C 
ATOM     26  C   UNL     1      -4.225  -3.057  -1.805  0.00  0.00    +0.000 C 
ATOM     27  C   UNL     1      -4.598  -3.587  -0.409  0.00  0.00    +0.106 C 
ATOM     28  N   UNL     1      -3.554  -3.256   0.581  0.00  0.00    -0.299 N 
ATOM     29  C   UNL     1      -2.141  -3.362   0.282  0.00  0.00    +0.089 C 
ATOM     30  C   UNL     1      -1.626  -2.026  -0.302  0.00  0.00    -0.059 C 
ATOM     31  C   UNL     1      -3.929  -2.841   1.807  0.00  0.00    +0.247 C 
ATOM     32  O   UNL     1      -3.092  -2.460   2.602  0.00  0.00    -0.270 OA
ATOM     33  H   UNL     1      -1.874  -2.617  -2.173  0.00  0.00    -0.081 HD
BRANCH  31  34
ATOM     34  C   UNL     1      -5.358  -2.848   2.185  0.00  0.00    +0.037 A 
ATOM     35  C   UNL     1      -6.199  -3.863   1.727  0.00  0.00    +0.013 A 
ATOM     36  C   UNL     1      -7.532  -3.864   2.084  0.00  0.00    +0.004 A 
ATOM     37  C   UNL     1      -8.036  -2.861   2.893  0.00  0.00    -0.050 A 
ATOM     38  C   UNL     1      -7.208  -1.851   3.349  0.00  0.00    +0.004 A 
ATOM     39  C   UNL     1      -5.872  -1.842   3.005  0.00  0.00    +0.013 A 
ATOM     40  C   UNL     1      -9.493  -2.868   3.278  0.00  0.00    +0.044 C 
ENDBRANCH  31  34
ENDBRANCH  23  24
ENDBRANCH   2  23
TORSDOF 8
