REMARK  Name = ZINC38079918
REMARK  7 active torsions:
REMARK  status: ('A' for Active; 'I' for Inactive)
REMARK    1  A    between atoms: C_3  and  N_20
REMARK    2  A    between atoms: C_5  and  O_7
REMARK    3  A    between atoms: O_7  and  C_8
REMARK    4  A    between atoms: C_8  and  C_9
REMARK    5  A    between atoms: C_9  and  N_10
REMARK    6  A    between atoms: N_10  and  S_11
REMARK    7  A    between atoms: S_11  and  C_14
REMARK                            x       y       z     vdW  Elec       q    Type
REMARK                         _______ _______ _______ _____ _____    ______ ____
ROOT
ATOM      1  C   UNL     1       0.183  -4.221  -0.023  0.00  0.00    +0.147 C 
ENDROOT
BRANCH   1   2
ATOM      2  N   UNL     1       0.843  -4.628   1.220  0.00  0.00    -0.186 NA
ATOM      3  H   UNL     1       1.262  -3.962   1.787  0.00  0.00    +0.148 HD
BRANCH   2   4
ATOM      4  S   UNL     1       0.875  -6.225   1.657  0.00  0.00    +0.065 S 
ATOM      5  O   UNL     1       1.599  -6.298   2.877  0.00  0.00    -0.153 OA
ATOM      6  O   UNL     1      -0.456  -6.707   1.531  0.00  0.00    -0.153 OA
BRANCH   4   7
ATOM      7  C   UNL     1       1.835  -7.076   0.449  0.00  0.00    +0.143 A 
ATOM      8  C   UNL     1       3.167  -7.321   0.436  0.00  0.00    +0.037 A 
ATOM      9  C   UNL     1       3.711  -8.017  -0.628  0.00  0.00    +0.025 A 
ATOM     10  C   UNL     1       2.894  -8.434  -1.626  0.00  0.00    +0.057 A 
ATOM     11  S   UNL     1       1.302  -7.847  -1.071  0.00  0.00    -0.062 S 
ATOM     12 BR   UNL     1       3.327  -9.396  -3.196  0.00  0.00    -0.043 Br
ENDBRANCH   4   7
ENDBRANCH   2   4
ENDBRANCH   1   2
BRANCH   1  13
ATOM     13  C   UNL     1      -0.036  -2.707  -0.012  0.00  0.00    +0.246 C 
BRANCH  13  14
ATOM     14  O   UNL     1       1.229  -2.042  -0.021  0.00  0.00    -0.491 OA
BRANCH  14  19
ATOM     15  C   UNL     1      -0.017   1.377   0.010  0.00  0.00    +0.005 A 
ATOM     16  C   UNL     1       1.169   2.087   0.002  0.00  0.00    +0.023 A 
ATOM     17  C   UNL     1       2.383   1.413  -0.013  0.00  0.00    +0.028 A 
ATOM     18  C   UNL     1       2.404   0.024  -0.021  0.00  0.00    +0.068 A 
ATOM     19  C   UNL     1       1.212  -0.684  -0.013  0.00  0.00    +0.122 A 
ATOM     20  C   UNL     1       0.002  -0.004   0.002  0.00  0.00    +0.046 A 
BRANCH  17  21
ATOM     21  N   UNL     1       3.582   2.130  -0.022  0.00  0.00    -0.358 N 
ATOM     22  H   UNL     1       3.566   3.099  -0.017  0.00  0.00    +0.142 HD
ATOM     23  H   UNL     1       4.429   1.658  -0.033  0.00  0.00    +0.142 HD
ENDBRANCH  17  21
ENDBRANCH  14  19
ENDBRANCH  13  14
ENDBRANCH   1  13
TORSDOF 7
