REMARK  Name = ZINC27426696
REMARK  6 active torsions:
REMARK  status: ('A' for Active; 'I' for Inactive)
REMARK    1  A    between atoms: C_3  and  N_8
REMARK    2  A    between atoms: N_8  and  C_9
REMARK    3  A    between atoms: C_9  and  N_11
REMARK    4  A    between atoms: N_11  and  C_12
REMARK    5  A    between atoms: C_12  and  C_13
REMARK    6  A    between atoms: C_13  and  C_14
REMARK                            x       y       z     vdW  Elec       q    Type
REMARK                         _______ _______ _______ _____ _____    ______ ____
ROOT
ATOM      1  N   UNL     1      -2.210   4.423   0.044  0.00  0.00    -0.326 N 
ATOM      2  H   UNL     1      -3.180   3.905   0.047  0.00  0.00    +0.148 HD
ENDROOT
BRANCH   1   3
ATOM      3  C   UNL     1      -2.165   5.770   0.046  0.00  0.00    +0.136 C 
ATOM      4  S   UNL     1      -0.654   6.576   0.042  0.00  0.00    -0.019 S 
BRANCH   3   5
ATOM      5  N   UNL     1      -3.309   6.483   0.053  0.00  0.00    -0.282 N 
ATOM      6  H   UNL     1      -4.277   5.968  -0.030  0.00  0.00    +0.155 HD
BRANCH   5   9
ATOM      7  C   UNL     1      -4.390   9.969   0.391  0.00  0.00    +0.020 A 
ATOM      8  C   UNL     1      -4.448   8.591   0.280  0.00  0.00    +0.045 A 
ATOM      9  C   UNL     1      -3.264   7.871   0.166  0.00  0.00    +0.124 A 
ATOM     10  N   UNL     1      -2.095   8.491   0.169  0.00  0.00    -0.239 NA
ATOM     11  C   UNL     1      -2.008   9.804   0.267  0.00  0.00    +0.128 A 
ATOM     12  C   UNL     1      -3.144  10.582   0.384  0.00  0.00    +0.036 A 
ATOM     13 BR   UNL     1      -3.003  12.462   0.532  0.00  0.00    -0.049 Br
ENDBRANCH   5   9
ENDBRANCH   3   5
ENDBRANCH   1   3
BRANCH   1  14
ATOM     14  C   UNL     1      -0.967   3.648   0.036  0.00  0.00    +0.110 C 
BRANCH  14  15
ATOM     15  C   UNL     1      -1.296   2.154   0.035  0.00  0.00    +0.087 C 
BRANCH  15  16
ATOM     16  C   UNL     1      -0.017   1.358   0.027  0.00  0.00    +0.070 C 
ATOM     17  N   UNL     1       1.141   1.907   0.017  0.00  0.00    -0.368 N 
ATOM     18  C   UNL     1       2.193   0.881   0.006  0.00  0.00    +0.127 C 
ATOM     19  C   UNL     1       3.077   1.151   1.202  0.00  0.00    -0.001 C 
ATOM     20  C   UNL     1       3.143   0.270   2.188  0.00  0.00    -0.002 C 
ATOM     21  C   UNL     1       2.393  -0.985   2.192  0.00  0.00    -0.003 C 
ATOM     22  C   UNL     1       1.585  -1.350   1.210  0.00  0.00    -0.003 C 
ATOM     23  C   UNL     1       1.403  -0.452   0.008  0.00  0.00    +0.121 C 
ATOM     24  N   UNL     1       0.001  -0.005   0.024  0.00  0.00    -0.326 N 
ATOM     25  H   UNL     1      -0.812  -0.745   0.031  0.00  0.00    +0.148 HD
ATOM     26  H   UNL     1       1.229   3.004   0.019  0.00  0.00    +0.161 HD
ENDBRANCH  15  16
ENDBRANCH  14  15
ENDBRANCH   1  14
TORSDOF 6
