REMARK  Name = ZINC64155829
REMARK  10 active torsions:
REMARK  status: ('A' for Active; 'I' for Inactive)
REMARK    1  A    between atoms: C_1  and  C_2
REMARK    2  A    between atoms: C_2  and  C_3
REMARK    3  A    between atoms: C_2  and  C_4
REMARK    4  A    between atoms: C_4  and  N_5
REMARK    5  A    between atoms: C_9  and  C_12
REMARK    6  A    between atoms: C_12  and  N_13
REMARK    7  A    between atoms: C_14  and  C_16
REMARK    8  A    between atoms: C_19  and  N_22
REMARK    9  A    between atoms: N_22  and  S_23
REMARK   10  A    between atoms: S_23  and  C_26
REMARK                            x       y       z     vdW  Elec       q    Type
REMARK                         _______ _______ _______ _____ _____    ______ ____
ROOT
ATOM      1  C   UNL     1      -0.153  -0.130   9.714  0.00  0.00    +0.037 A 
ATOM      2  C   UNL     1      -1.375   0.534   9.573  0.00  0.00    +0.015 A 
ATOM      3  C   UNL     1      -2.130   0.828  10.686  0.00  0.00    +0.025 A 
ATOM      4  C   UNL     1      -1.677   0.466  11.951  0.00  0.00    +0.048 A 
ATOM      5  C   UNL     1      -0.460  -0.195  12.095  0.00  0.00    +0.025 A 
ATOM      6  C   UNL     1       0.296  -0.497  10.986  0.00  0.00    +0.015 A 
ENDROOT
BRANCH   1   8
ATOM      7  N   UNL     1       0.223  -0.092   7.298  0.00  0.00    -0.309 N 
ATOM      8  C   UNL     1       0.658  -0.447   8.524  0.00  0.00    +0.244 C 
ATOM      9  O   UNL     1       1.718  -1.028   8.648  0.00  0.00    -0.270 OA
ATOM     10  H   UNL     1      -0.623   0.372   7.199  0.00  0.00    +0.149 HD
BRANCH   7  11
ATOM     11  C   UNL     1       1.028  -0.407   6.116  0.00  0.00    +0.137 C 
BRANCH  11  16
ATOM     12  N   UNL     1       0.444   0.224   2.421  0.00  0.00    -0.297 NA
ATOM     13  C   UNL     1       0.385   1.691   2.494  0.00  0.00    +0.112 C 
ATOM     14  C   UNL     1      -0.388   2.103   3.750  0.00  0.00    +0.175 C 
ATOM     15  O   UNL     1       0.240   1.528   4.899  0.00  0.00    -0.372 OA
ATOM     16  C   UNL     1       0.314   0.101   4.862  0.00  0.00    +0.149 C 
ATOM     17  C   UNL     1       1.093  -0.332   3.617  0.00  0.00    +0.117 C 
BRANCH  12  18
ATOM     18  C   UNL     1       1.129  -0.216   1.198  0.00  0.00    +0.087 C 
BRANCH  18  20
ATOM     19  C   UNL     1      -0.730  -1.768   0.584  0.00  0.00    +0.008 C 
ATOM     20  C   UNL     1       0.763  -1.672   0.903  0.00  0.00    -0.003 C 
ATOM     21  C   UNL     1       1.574  -2.169  -0.295  0.00  0.00    +0.008 C 
ENDBRANCH  18  20
ENDBRANCH  12  18
ENDBRANCH  11  16
ENDBRANCH   7  11
ENDBRANCH   1   8
BRANCH   4  22
ATOM     22  N   UNL     1      -2.441   0.765  13.074  0.00  0.00    -0.216 N 
ATOM     23  H   UNL     1      -2.826   1.649  13.177  0.00  0.00    +0.174 HD
BRANCH  22  24
ATOM     24  S   UNL     1      -2.694  -0.389  14.235  0.00  0.00    +0.072 S 
ATOM     25  O   UNL     1      -1.414  -0.890  14.595  0.00  0.00    -0.150 OA
ATOM     26  O   UNL     1      -3.585   0.179  15.185  0.00  0.00    -0.150 OA
BRANCH  24  27
ATOM     27  C   UNL     1      -3.557  -1.720  13.467  0.00  0.00    +0.110 A 
ATOM     28  C   UNL     1      -5.009  -1.649  13.356  0.00  0.00    +0.031 A 
ATOM     29  C   UNL     1      -5.731  -2.634  12.779  0.00  0.00    +0.027 A 
ATOM     30  C   UNL     1      -5.049  -3.812  12.247  0.00  0.00    +0.056 A 
ATOM     31  N   UNL     1      -5.434  -4.910  11.647  0.00  0.00    -0.268 N 
ATOM     32  C   UNL     1      -4.320  -5.668  11.373  0.00  0.00    +0.308 C 
ATOM     33  O   UNL     1      -4.330  -6.748  10.820  0.00  0.00    -0.252 OA
ATOM     34  N   UNL     1      -3.193  -5.019  11.819  0.00  0.00    -0.267 N 
ATOM     35  C   UNL     1      -3.558  -3.884  12.361  0.00  0.00    +0.058 A 
ATOM     36  C   UNL     1      -2.853  -2.772  12.996  0.00  0.00    +0.054 A 
ATOM     37  H   UNL     1      -2.283  -5.346  11.745  0.00  0.00    +0.156 HD
ATOM     38  H   UNL     1      -6.349  -5.148  11.432  0.00  0.00    +0.156 HD
ENDBRANCH  24  27
ENDBRANCH  22  24
ENDBRANCH   4  22
TORSDOF 8
