REMARK  Name = ZINC16435171
REMARK  11 active torsions:
REMARK  status: ('A' for Active; 'I' for Inactive)
REMARK    1  A    between atoms: C_1  and  C_2
REMARK    2  A    between atoms: C_2  and  C_3
REMARK    3  A    between atoms: C_3  and  N_4
REMARK    4  A    between atoms: N_4  and  C_5
REMARK    5  A    between atoms: C_5  and  C_6
REMARK    6  A    between atoms: N_8  and  C_9
REMARK    7  A    between atoms: C_11  and  C_22
REMARK    8  A    between atoms: N_13  and  C_14
REMARK    9  A    between atoms: C_17  and  C_21
REMARK   10  A    between atoms: C_19  and  C_20
REMARK   11  A    between atoms: N_30  and  C_31
REMARK                            x       y       z     vdW  Elec       q    Type
REMARK                         _______ _______ _______ _____ _____    ______ ____
ROOT
ATOM      1  C   UNL     1      -3.216  -1.241   0.450  0.00  0.00    +0.236 C 
ATOM      2  O   UNL     1      -2.919  -2.414   0.525  0.00  0.00    -0.274 OA
ATOM      3  N   UNL     1      -2.257  -0.315   0.249  0.00  0.00    -0.269 N 
ATOM      4  H   UNL     1      -2.494   0.624   0.189  0.00  0.00    +0.156 HD
ENDROOT
BRANCH   3   5
ATOM      5  C   UNL     1      -0.924  -0.707   0.129  0.00  0.00    +0.129 A 
ATOM      6  C   UNL     1      -0.465  -1.985   0.085  0.00  0.00    +0.074 A 
ATOM      7  C   UNL     1       0.937  -1.935  -0.036  0.00  0.00    +0.095 A 
ATOM      8  N   UNL     1       1.302  -0.670  -0.068  0.00  0.00    -0.165 NA
ATOM      9  N   UNL     1       0.152   0.123   0.030  0.00  0.00    -0.218 N 
BRANCH   9  10
ATOM     10  C   UNL     1       0.114   1.523   0.032  0.00  0.00    +0.070 A 
ATOM     11  C   UNL     1      -0.754   2.198  -0.817  0.00  0.00    +0.028 A 
ATOM     12  C   UNL     1      -0.791   3.578  -0.809  0.00  0.00    +0.005 A 
ATOM     13  C   UNL     1       0.041   4.289   0.036  0.00  0.00    -0.050 A 
ATOM     14  C   UNL     1       0.911   3.621   0.878  0.00  0.00    +0.008 A 
ATOM     15  C   UNL     1       0.950   2.240   0.878  0.00  0.00    -0.025 A 
ATOM     16  C   UNL     1       1.898   1.512   1.796  0.00  0.00    +0.046 C 
ATOM     17  C   UNL     1       0.002   5.796   0.038  0.00  0.00    +0.044 C 
ENDBRANCH   9  10
BRANCH   7  18
ATOM     18  C   UNL     1       1.846  -3.105  -0.113  0.00  0.00    +0.002 A 
ATOM     19  C   UNL     1       1.328  -4.397  -0.062  0.00  0.00    +0.010 A 
ATOM     20  C   UNL     1       2.178  -5.482  -0.139  0.00  0.00    +0.001 A 
ATOM     21  C   UNL     1       3.542  -5.288  -0.257  0.00  0.00    +0.000 A 
ATOM     22  C   UNL     1       4.062  -4.007  -0.302  0.00  0.00    +0.001 A 
ATOM     23  C   UNL     1       3.221  -2.915  -0.231  0.00  0.00    +0.010 A 
ENDBRANCH   7  18
ENDBRANCH   3   5
BRANCH   1  24
ATOM     24  C   UNL     1      -4.656  -0.818   0.580  0.00  0.00    +0.205 C 
BRANCH  24  25
ATOM     25  N   UNL     1      -5.495  -2.000   0.790  0.00  0.00    -0.277 N 
ATOM     26  C   UNL     1      -5.745  -2.435   2.041  0.00  0.00    +0.307 C 
ATOM     27  O   UNL     1      -5.274  -1.847   2.995  0.00  0.00    -0.252 OA
ATOM     28  N   UNL     1      -6.517  -3.523   2.235  0.00  0.00    -0.269 N 
ATOM     29  H   UNL     1      -6.840  -4.030   1.474  0.00  0.00    +0.156 HD
BRANCH  28  30
ATOM     30  C   UNL     1      -6.853  -3.921   3.534  0.00  0.00    +0.035 A 
ATOM     31  C   UNL     1      -5.938  -3.766   4.567  0.00  0.00    +0.025 A 
ATOM     32  C   UNL     1      -6.273  -4.155   5.849  0.00  0.00    +0.022 A 
ATOM     33  C   UNL     1      -7.516  -4.708   6.103  0.00  0.00    +0.041 A 
ATOM     34  C   UNL     1      -8.428  -4.868   5.074  0.00  0.00    +0.022 A 
ATOM     35  C   UNL     1      -8.099  -4.476   3.792  0.00  0.00    +0.025 A 
ATOM     36 CL   UNL     1      -7.932  -5.201   7.715  0.00  0.00    -0.084 Cl
ENDBRANCH  28  30
BRANCH  25  37
ATOM     37  C   UNL     1      -6.063  -2.709  -0.359  0.00  0.00    +0.109 C 
BRANCH  37  39
ATOM     38  C   UNL     1      -5.684  -4.537  -2.019  0.00  0.00    +0.005 C 
ATOM     39  C   UNL     1      -5.091  -3.797  -0.818  0.00  0.00    +0.016 C 
ENDBRANCH  37  39
ENDBRANCH  25  37
ENDBRANCH  24  25
ENDBRANCH   1  24
TORSDOF 8
