REMARK  Name = ZINC02979355
REMARK  8 active torsions:
REMARK  status: ('A' for Active; 'I' for Inactive)
REMARK    1  A    between atoms: C_1  and  C_2
REMARK    2  A    between atoms: C_5  and  C_8
REMARK    3  A    between atoms: C_8  and  N_9
REMARK    4  A    between atoms: C_10  and  C_12
REMARK    5  A    between atoms: C_12  and  N_13
REMARK    6  A    between atoms: N_13  and  C_14
REMARK    7  A    between atoms: N_13  and  S_22
REMARK    8  A    between atoms: S_22  and  C_25
REMARK                            x       y       z     vdW  Elec       q    Type
REMARK                         _______ _______ _______ _____ _____    ______ ____
ROOT
ATOM      1  N   UNL     1       4.278  -1.182  -1.624  0.00  0.00    -0.194 N 
ENDROOT
BRANCH   1   2
ATOM      2  C   UNL     1       5.098  -0.328  -2.366  0.00  0.00    +0.053 A 
ATOM      3  C   UNL     1       5.283   0.987  -1.959  0.00  0.00    +0.026 A 
ATOM      4  C   UNL     1       6.098   1.828  -2.691  0.00  0.00    +0.023 A 
ATOM      5  C   UNL     1       6.722   1.365  -3.836  0.00  0.00    +0.059 A 
ATOM      6  C   UNL     1       6.535   0.056  -4.248  0.00  0.00    +0.061 A 
ATOM      7  C   UNL     1       5.724  -0.791  -3.516  0.00  0.00    +0.046 A 
ATOM      8 CL   UNL     1       7.319  -0.521  -5.685  0.00  0.00    -0.082 Cl
ATOM      9 CL   UNL     1       7.741   2.426  -4.757  0.00  0.00    -0.082 Cl
ENDBRANCH   1   2
BRANCH   1  10
ATOM     10  S   UNL     1       4.652  -1.526  -0.048  0.00  0.00    +0.075 S 
ATOM     11  O   UNL     1       6.057  -1.357   0.082  0.00  0.00    -0.150 OA
ATOM     12  O   UNL     1       3.999  -2.748   0.267  0.00  0.00    -0.150 OA
BRANCH  10  13
ATOM     13  C   UNL     1       3.901  -0.282   0.949  0.00  0.00    +0.109 A 
ATOM     14  C   UNL     1       2.582  -0.413   1.341  0.00  0.00    +0.029 A 
ATOM     15  C   UNL     1       1.993   0.563   2.122  0.00  0.00    +0.002 A 
ATOM     16  C   UNL     1       2.723   1.670   2.513  0.00  0.00    +0.000 A 
ATOM     17  C   UNL     1       4.042   1.800   2.122  0.00  0.00    +0.002 A 
ATOM     18  C   UNL     1       4.631   0.825   1.340  0.00  0.00    +0.029 A 
ENDBRANCH  10  13
ENDBRANCH   1  10
BRANCH   1  19
ATOM     19  C   UNL     1       3.087  -1.773  -2.240  0.00  0.00    +0.227 C 
BRANCH  19  21
ATOM     20  N   UNL     1       0.728  -1.140  -2.634  0.00  0.00    -0.310 N 
ATOM     21  C   UNL     1       1.934  -0.808  -2.132  0.00  0.00    +0.232 C 
ATOM     22  O   UNL     1       2.092   0.267  -1.594  0.00  0.00    -0.274 OA
ATOM     23  H   UNL     1       0.602  -2.000  -3.064  0.00  0.00    +0.149 HD
BRANCH  20  24
ATOM     24  C   UNL     1      -0.392  -0.202  -2.529  0.00  0.00    +0.139 C 
BRANCH  24  29
ATOM     25  C   UNL     1      -5.089  -2.533  -4.959  0.00  0.00    +0.044 C 
ATOM     26  C   UNL     1      -3.864  -1.925  -4.325  0.00  0.00    -0.050 A 
ATOM     27  C   UNL     1      -3.607  -2.129  -2.982  0.00  0.00    +0.003 A 
ATOM     28  C   UNL     1      -2.484  -1.571  -2.401  0.00  0.00    +0.005 A 
ATOM     29  C   UNL     1      -1.617  -0.810  -3.163  0.00  0.00    -0.030 A 
ATOM     30  C   UNL     1      -1.876  -0.602  -4.505  0.00  0.00    +0.005 A 
ATOM     31  C   UNL     1      -2.998  -1.164  -5.087  0.00  0.00    +0.003 A 
ENDBRANCH  24  29
ENDBRANCH  20  24
ENDBRANCH  19  21
ENDBRANCH   1  19
TORSDOF 7
