REMARK  Name = ZINC67157801
REMARK  7 active torsions:
REMARK  status: ('A' for Active; 'I' for Inactive)
REMARK    1  A    between atoms: C_1  and  C_2
REMARK    2  A    between atoms: C_2  and  C_4
REMARK    3  A    between atoms: C_2  and  N_22
REMARK    4  A    between atoms: C_4  and  C_5
REMARK    5  A    between atoms: C_10  and  N_13
REMARK    6  A    between atoms: C_17  and  C_19
REMARK    7  A    between atoms: C_23  and  C_25
REMARK                            x       y       z     vdW  Elec       q    Type
REMARK                         _______ _______ _______ _____ _____    ______ ____
ROOT
ATOM      1  C   UNL     1       0.632  -2.000  -1.327  0.00  0.00    +0.217 C 
ATOM      2  O   UNL     1       0.054  -2.616  -0.457  0.00  0.00    -0.276 OA
ATOM      3  N   UNL     1       1.196  -2.660  -2.358  0.00  0.00    -0.302 N 
ATOM      4  C   UNL     1       1.904  -1.929  -3.417  0.00  0.00    +0.106 C 
ATOM      5  C   UNL     1       1.320  -2.336  -4.774  0.00  0.00    +0.004 C 
ATOM      6  C   UNL     1       1.380  -3.859  -4.914  0.00  0.00    -0.065 C 
ATOM      7  C   UNL     1       0.540  -4.508  -3.811  0.00  0.00    +0.004 C 
ATOM      8  C   UNL     1       1.120  -4.125  -2.441  0.00  0.00    +0.106 C 
ENDROOT
BRANCH   6   9
ATOM      9  N   UNL     1       0.851  -4.251  -6.227  0.00  0.00    +0.389 N 
ATOM     10  C   UNL     1       1.708  -3.702  -7.309  0.00  0.00    -0.077 C 
ATOM     11  C   UNL     1       1.390  -4.622  -8.514  0.00  0.00    -0.020 C 
ATOM     12  C   UNL     1       1.229  -6.011  -7.855  0.00  0.00    -0.008 C 
ATOM     13  C   UNL     1       0.902  -5.721  -6.379  0.00  0.00    +0.019 C 
ATOM     14  H   UNL     1      -0.097  -3.922  -6.332  0.00  0.00    -0.080 HD
BRANCH  13  15
ATOM     15  C   UNL     1      -0.434  -6.320  -6.022  0.00  0.00    +0.197 C 
ATOM     16  O   UNL     1      -1.347  -5.602  -5.673  0.00  0.00    -0.278 OA
ATOM     17  N   UNL     1      -0.614  -7.654  -6.090  0.00  0.00    -0.331 N 
ATOM     18  H   UNL     1       0.116  -8.229  -6.369  0.00  0.00    +0.145 HD
ATOM     19  H   UNL     1      -1.474  -8.040  -5.860  0.00  0.00    +0.145 HD
ENDBRANCH  13  15
ENDBRANCH   6   9
BRANCH   1  20
ATOM     20  C   UNL     1       0.718  -0.497  -1.257  0.00  0.00    +0.118 C 
BRANCH  20  22
ATOM     21  C   UNL     1      -0.019   1.526   0.010  0.00  0.00    +0.028 C 
ATOM     22  C   UNL     1       0.002  -0.004   0.002  0.00  0.00    +0.079 C 
BRANCH  22  23
ATOM     23  N   UNL     1       0.711  -0.489   1.189  0.00  0.00    -0.312 N 
ATOM     24  C   UNL     1       0.051  -0.633   2.355  0.00  0.00    +0.216 C 
ATOM     25  O   UNL     1      -1.129  -0.361   2.423  0.00  0.00    -0.276 OA
ATOM     26  H   UNL     1       1.654  -0.707   1.135  0.00  0.00    +0.149 HD
BRANCH  24  27
ATOM     27  C   UNL     1       0.780  -1.133   3.576  0.00  0.00    +0.075 C 
ATOM     28  C   UNL     1       1.347  -2.526   3.298  0.00  0.00    +0.013 C 
ATOM     29  C   UNL     1       2.087  -3.033   4.537  0.00  0.00    +0.001 C 
ATOM     30  C   UNL     1       1.116  -3.104   5.717  0.00  0.00    +0.000 C 
ATOM     31  C   UNL     1       0.549  -1.711   5.996  0.00  0.00    +0.001 C 
ATOM     32  C   UNL     1      -0.191  -1.204   4.756  0.00  0.00    +0.013 C 
ENDBRANCH  24  27
ENDBRANCH  22  23
ENDBRANCH  20  22
ENDBRANCH   1  20
TORSDOF 6
