REMARK  Name = ZINC20178606
REMARK  3 active torsions:
REMARK  status: ('A' for Active; 'I' for Inactive)
REMARK    1  A    between atoms: C_5  and  C_7
REMARK    2  A    between atoms: C_7  and  C_9
REMARK    3  A    between atoms: C_7  and  N_11
REMARK                            x       y       z     vdW  Elec       q    Type
REMARK                         _______ _______ _______ _____ _____    ______ ____
ROOT
ATOM      1  C   UNL     1       4.988  -1.372   2.777  0.00  0.00    +0.192 C 
ENDROOT
BRANCH   1   2
ATOM      2  N   UNL     1       4.187  -0.290   2.189  0.00  0.00    -0.283 NA
ATOM      3  C   UNL     1       2.884  -0.177   2.857  0.00  0.00    +0.091 C 
ATOM      4  C   UNL     1       2.144   1.055   2.327  0.00  0.00    +0.080 C 
ATOM      5  C   UNL     1       1.974   0.931   0.816  0.00  0.00    +0.172 C 
ATOM      6  C   UNL     1       3.329   0.744   0.141  0.00  0.00    +0.080 C 
ATOM      7  C   UNL     1       4.030  -0.478   0.741  0.00  0.00    +0.091 C 
ATOM      8  O   UNL     1       1.313   2.096   0.292  0.00  0.00    -0.346 OA
ATOM      9  C   UNL     1      -0.087   1.873   0.563  0.00  0.00    +0.191 C 
ATOM     10  C   UNL     1      -0.227   0.344   0.705  0.00  0.00    +0.191 C 
ATOM     11  O   UNL     1       1.106  -0.173   0.503  0.00  0.00    -0.346 OA
ENDBRANCH   1   2
BRANCH   1  16
ATOM     12  C   UNL     1       8.128  -0.285   0.986  0.00  0.00    +0.000 A 
ATOM     13  C   UNL     1       8.831  -1.473   0.913  0.00  0.00    +0.001 A 
ATOM     14  C   UNL     1       8.290  -2.629   1.443  0.00  0.00    +0.020 A 
ATOM     15  C   UNL     1       7.046  -2.597   2.047  0.00  0.00    +0.047 A 
ATOM     16  C   UNL     1       6.343  -1.408   2.120  0.00  0.00    +0.002 A 
ATOM     17  C   UNL     1       6.883  -0.253   1.585  0.00  0.00    +0.007 A 
ATOM     18 CL   UNL     1       6.366  -4.049   2.712  0.00  0.00    -0.083 Cl
ENDBRANCH   1  16
BRANCH   1  19
ATOM     19  C   UNL     1       5.148  -1.134   4.221  0.00  0.00    +0.086 C 
ATOM     20  N   UNL     1       5.272  -0.951   5.335  0.00  0.00    -0.195 NA
ENDBRANCH   1  19
TORSDOF 3
