REMARK  Name = ZINC08893244
REMARK  6 active torsions:
REMARK  status: ('A' for Active; 'I' for Inactive)
REMARK    1  A    between atoms: C_5  and  N_7
REMARK    2  A    between atoms: C_8  and  C_10
REMARK    3  A    between atoms: N_12  and  C_13
REMARK    4  A    between atoms: C_13  and  C_14
REMARK    5  A    between atoms: C_14  and  C_16
REMARK    6  A    between atoms: C_14  and  N_51
REMARK                            x       y       z     vdW  Elec       q    Type
REMARK                         _______ _______ _______ _____ _____    ______ ____
ROOT
ATOM      1  C   UNL     1      -3.866   2.938  -2.779  0.00  0.00    +0.299 C 
ATOM      2  O   UNL     1      -3.487   2.278  -3.725  0.00  0.00    -0.265 OA
ATOM      3  N   UNL     1      -3.161   2.934  -1.630  0.00  0.00    -0.309 N 
ATOM      4  H   UNL     1      -3.464   3.461  -0.874  0.00  0.00    +0.149 HD
ENDROOT
BRANCH   1   6
ATOM      5  N   UNL     1      -5.817   3.756  -4.037  0.00  0.00    -0.275 N 
ATOM      6  C   UNL     1      -5.112   3.753  -2.888  0.00  0.00    +0.303 C 
ATOM      7  O   UNL     1      -5.491   4.413  -1.942  0.00  0.00    -0.265 OA
ATOM      8  H   UNL     1      -5.480   3.283  -4.814  0.00  0.00    +0.155 HD
BRANCH   5  13
ATOM      9  C   UNL     1      -8.412   6.299  -3.474  0.00  0.00    +0.002 A 
ATOM     10  C   UNL     1      -9.441   5.801  -4.252  0.00  0.00    +0.003 A 
ATOM     11  C   UNL     1      -9.270   4.626  -4.961  0.00  0.00    +0.040 A 
ATOM     12  C   UNL     1      -8.069   3.944  -4.892  0.00  0.00    +0.144 A 
ATOM     13  C   UNL     1      -7.033   4.443  -4.110  0.00  0.00    +0.069 A 
ATOM     14  C   UNL     1      -7.211   5.620  -3.396  0.00  0.00    +0.026 A 
ATOM     15  F   UNL     1      -7.903   2.796  -5.584  0.00  0.00    -0.204 F 
ENDBRANCH   5  13
ENDBRANCH   1   6
BRANCH   3  16
ATOM     16  C   UNL     1      -1.939   2.134  -1.523  0.00  0.00    +0.094 C 
BRANCH  16  17
ATOM     17  C   UNL     1      -1.424   2.179  -0.083  0.00  0.00    -0.020 C 
BRANCH  17  24
ATOM     18  C   UNL     1      -3.714   2.066   0.724  0.00  0.00    -0.078 C 
ATOM     19  C   UNL     1      -4.636   1.553   1.796  0.00  0.00    -0.019 C 
ATOM     20  C   UNL     1      -4.575   2.518   2.998  0.00  0.00    -0.002 C 
ATOM     21  C   UNL     1      -3.383   2.309   3.813  0.00  0.00    -0.002 C 
ATOM     22  C   UNL     1      -2.084   2.550   3.015  0.00  0.00    -0.019 C 
ATOM     23  C   UNL     1      -1.815   1.339   2.164  0.00  0.00    -0.078 C 
ATOM     24  N   UNL     1      -2.357   1.420   0.765  0.00  0.00    +0.385 N 
ATOM     25  H   UNL     1      -2.441   0.467   0.394  0.00  0.00    -0.081 HD
ENDBRANCH  17  24
BRANCH  17  26
ATOM     26  C   UNL     1      -0.071   1.520  -0.012  0.00  0.00    -0.052 A 
ATOM     27  C   UNL     1       1.081   2.284   0.003  0.00  0.00    +0.009 A 
ATOM     28  C   UNL     1       2.283   1.660   0.062  0.00  0.00    +0.045 A 
ATOM     29  S   UNL     1       1.804  -0.060   0.098  0.00  0.00    -0.105 S 
ATOM     30  C   UNL     1       0.035   0.170   0.033  0.00  0.00    +0.047 A 
ENDBRANCH  17  26
ENDBRANCH  16  17
ENDBRANCH   3  16
TORSDOF 6
