REMARK  Name = ZINC10087016
REMARK  7 active torsions:
REMARK  status: ('A' for Active; 'I' for Inactive)
REMARK    1  A    between atoms: C_1  and  C_2
REMARK    2  A    between atoms: C_3  and  N_9
REMARK    3  A    between atoms: C_10  and  C_12
REMARK    4  A    between atoms: N_14  and  C_15
REMARK    5  A    between atoms: C_15  and  C_16
REMARK    6  A    between atoms: C_16  and  C_18
REMARK    7  A    between atoms: C_16  and  N_57
REMARK                            x       y       z     vdW  Elec       q    Type
REMARK                         _______ _______ _______ _____ _____    ______ ____
ROOT
ATOM      1  C   UNL     1      -1.325   7.378   0.204  0.00  0.00    +0.094 C 
ENDROOT
BRANCH   1   4
ATOM      2  C   UNL     1       0.597   7.401   1.701  0.00  0.00    +0.299 C 
ATOM      3  O   UNL     1       1.262   6.921   0.807  0.00  0.00    -0.265 OA
ATOM      4  N   UNL     1      -0.709   7.668   1.501  0.00  0.00    -0.309 N 
ATOM      5  H   UNL     1      -1.240   8.052   2.216  0.00  0.00    +0.149 HD
BRANCH   2   7
ATOM      6  N   UNL     1       2.532   7.431   3.223  0.00  0.00    -0.277 N 
ATOM      7  C   UNL     1       1.226   7.697   3.023  0.00  0.00    +0.303 C 
ATOM      8  O   UNL     1       0.561   8.177   3.918  0.00  0.00    -0.265 OA
ATOM      9  H   UNL     1       3.082   7.120   2.487  0.00  0.00    +0.155 HD
BRANCH   6  12
ATOM     10  C   UNL     1       5.334   7.891   3.399  0.00  0.00    +0.047 C 
ATOM     11  C   UNL     1       4.458   7.829   4.623  0.00  0.00    -0.011 A 
ATOM     12  C   UNL     1       3.094   7.602   4.491  0.00  0.00    +0.038 A 
ATOM     13  C   UNL     1       2.289   7.545   5.622  0.00  0.00    +0.023 A 
ATOM     14  C   UNL     1       2.847   7.715   6.874  0.00  0.00    +0.003 A 
ATOM     15  C   UNL     1       4.205   7.942   7.003  0.00  0.00    +0.020 A 
ATOM     16  C   UNL     1       5.010   7.999   5.878  0.00  0.00    +0.046 A 
ATOM     17 CL   UNL     1       6.714   8.283   6.045  0.00  0.00    -0.083 Cl
ENDBRANCH   6  12
ENDBRANCH   2   7
ENDBRANCH   1   4
BRANCH   1  18
ATOM     18  C   UNL     1      -2.768   7.886   0.201  0.00  0.00    -0.020 C 
BRANCH  18  19
ATOM     19  C   UNL     1      -2.772   9.388   0.328  0.00  0.00    -0.052 A 
ATOM     20  C   UNL     1      -2.920   9.971   1.549  0.00  0.00    +0.003 A 
ATOM     21  C   UNL     1      -2.921  11.357   1.687  0.00  0.00    +0.001 A 
ATOM     22  C   UNL     1      -2.784  12.169   0.603  0.00  0.00    +0.008 A 
ATOM     23  C   UNL     1      -2.635  11.604  -0.675  0.00  0.00    -0.018 A 
ATOM     24  C   UNL     1      -2.629  10.193  -0.814  0.00  0.00    -0.016 A 
ATOM     25  C   UNL     1      -2.479   9.628  -2.092  0.00  0.00    +0.009 A 
ATOM     26  C   UNL     1      -2.341  10.440  -3.176  0.00  0.00    +0.001 A 
ATOM     27  C   UNL     1      -2.348  11.827  -3.039  0.00  0.00    +0.001 A 
ATOM     28  C   UNL     1      -2.491  12.410  -1.817  0.00  0.00    +0.008 A 
ENDBRANCH  18  19
BRANCH  18  33
ATOM     29  C   UNL     1      -4.921   7.723   1.326  0.00  0.00    -0.078 C 
ATOM     30  C   UNL     1      -5.616   6.647   2.199  0.00  0.00    -0.020 C 
ATOM     31  C   UNL     1      -4.868   5.351   1.810  0.00  0.00    -0.020 C 
ATOM     32  C   UNL     1      -3.518   5.821   1.239  0.00  0.00    -0.078 C 
ATOM     33  N   UNL     1      -3.518   7.281   1.343  0.00  0.00    +0.385 N 
ATOM     34  H   UNL     1      -3.075   7.566   2.224  0.00  0.00    -0.081 HD
ENDBRANCH  18  33
ENDBRANCH   1  18
TORSDOF 6
