REMARK  Name = ZINC40795627
REMARK  8 active torsions:
REMARK  status: ('A' for Active; 'I' for Inactive)
REMARK    1  A    between atoms: C_1  and  C_2
REMARK    2  A    between atoms: C_2  and  C_3
REMARK    3  A    between atoms: C_2  and  C_4
REMARK    4  A    between atoms: C_4  and  C_5
REMARK    5  A    between atoms: N_11  and  C_12
REMARK    6  A    between atoms: C_12  and  C_13
REMARK    7  A    between atoms: C_16  and  S_19
REMARK    8  A    between atoms: S_19  and  N_22
REMARK                            x       y       z     vdW  Elec       q    Type
REMARK                         _______ _______ _______ _____ _____    ______ ____
ROOT
ATOM      1  C   UNL     1      -4.745   3.392  -2.874  0.00  0.00    +0.138 C 
ENDROOT
BRANCH   1   7
ATOM      2  C   UNL     1      -2.051  -0.348  -1.381  0.00  0.00    +0.091 C 
ATOM      3  C   UNL     1      -3.445  -1.030  -1.422  0.00  0.00    +0.101 C 
ATOM      4  S   UNL     1      -4.347   0.263  -2.380  0.00  0.00    -0.091 S 
ATOM      5  C   UNL     1      -3.239   1.625  -2.058  0.00  0.00    +0.128 C 
ATOM      6  N   UNL     1      -2.168   1.088  -1.551  0.00  0.00    -0.364 N 
ATOM      7  N   UNL     1      -3.470   2.960  -2.295  0.00  0.00    -0.321 N 
ATOM      8  H   UNL     1      -2.789   3.616  -2.078  0.00  0.00    +0.148 HD
ATOM      9  H   UNL     1      -1.432   1.661  -1.283  0.00  0.00    +0.162 HD
BRANCH   2  10
ATOM     10  C   UNL     1      -1.388  -0.642  -0.033  0.00  0.00    +0.028 C 
BRANCH  10  12
ATOM     11  C   UNL     1       0.671  -0.298   1.339  0.00  0.00    +0.007 C 
ATOM     12  C   UNL     1       0.053  -0.129  -0.051  0.00  0.00    -0.015 C 
ATOM     13  C   UNL     1       0.866  -0.928  -1.071  0.00  0.00    +0.007 C 
ENDBRANCH  10  12
ENDBRANCH   2  10
ENDBRANCH   1   7
BRANCH   1  14
ATOM     14  C   UNL     1      -4.744   4.890  -3.030  0.00  0.00    -0.030 A 
ATOM     15  C   UNL     1      -5.199   5.693  -2.001  0.00  0.00    +0.007 A 
ATOM     16  C   UNL     1      -5.198   7.068  -2.145  0.00  0.00    +0.029 A 
ATOM     17  C   UNL     1      -4.742   7.640  -3.318  0.00  0.00    +0.105 A 
ATOM     18  C   UNL     1      -4.287   6.837  -4.347  0.00  0.00    +0.029 A 
ATOM     19  C   UNL     1      -4.284   5.463  -4.202  0.00  0.00    +0.007 A 
BRANCH  17  20
ATOM     20  S   UNL     1      -4.742   9.393  -3.502  0.00  0.00    +0.056 S 
ATOM     21  O   UNL     1      -4.777   9.655  -4.898  0.00  0.00    -0.153 OA
ATOM     22  O   UNL     1      -5.726   9.895  -2.607  0.00  0.00    -0.153 OA
BRANCH  20  23
ATOM     23  N   UNL     1      -3.279   9.942  -2.953  0.00  0.00    -0.204 NA
ATOM     24  H   UNL     1      -2.621   9.315  -2.615  0.00  0.00    +0.144 HD
ATOM     25  H   UNL     1      -3.081  10.892  -2.971  0.00  0.00    +0.144 HD
ENDBRANCH  20  23
ENDBRANCH  17  20
ENDBRANCH   1  14
TORSDOF 6
