REMARK  Name = ZINC09329934
REMARK  6 active torsions:
REMARK  status: ('A' for Active; 'I' for Inactive)
REMARK    1  A    between atoms: C_1  and  C_2
REMARK    2  A    between atoms: C_5  and  C_8
REMARK    3  A    between atoms: C_8  and  C_10
REMARK    4  A    between atoms: C_12  and  C_30
REMARK    5  A    between atoms: C_22  and  C_29
REMARK    6  A    between atoms: C_33  and  N_36
REMARK                            x       y       z     vdW  Elec       q    Type
REMARK                         _______ _______ _______ _____ _____    ______ ____
ROOT
ATOM      1  C   UNL     1       4.241  -0.422  -1.613  0.00  0.00    +0.069 C 
ATOM      2  C   UNL     1       5.399   0.246  -0.822  0.00  0.00    +0.016 C 
ATOM      3  C   UNL     1       5.412  -0.539   0.507  0.00  0.00    -0.047 C 
ATOM      4  C   UNL     1       6.590  -1.541   0.486  0.00  0.00    +0.052 C 
ATOM      5  S   UNL     1       5.812  -2.970   1.363  0.00  0.00    -0.181 S 
ATOM      6  C   UNL     1       4.082  -2.636   0.811  0.00  0.00    -0.005 C 
ATOM      7  C   UNL     1       3.262  -0.784  -0.481  0.00  0.00    +0.052 C 
ATOM      8  C   UNL     1       2.360   0.369  -0.150  0.00  0.00    -0.027 A 
ATOM      9  C   UNL     1       2.585   1.656   0.285  0.00  0.00    +0.008 A 
ATOM     10  C   UNL     1       1.518   2.509   0.507  0.00  0.00    -0.050 A 
ATOM     11  C   UNL     1       0.226   2.066   0.292  0.00  0.00    +0.005 A 
ATOM     12  C   UNL     1      -0.005   0.777  -0.143  0.00  0.00    +0.024 A 
ATOM     13  C   UNL     1       1.063  -0.088  -0.369  0.00  0.00    +0.036 A 
ATOM     14  N   UNL     1       1.086  -1.415  -0.805  0.00  0.00    -0.286 N 
ATOM     15  C   UNL     1       2.340  -1.897  -0.898  0.00  0.00    +0.212 C 
ATOM     16  O   UNL     1       2.663  -3.012  -1.249  0.00  0.00    -0.277 OA
ATOM     17  C   UNL     1       1.764   3.918   0.982  0.00  0.00    +0.044 C 
ATOM     18  H   UNL     1       0.291  -1.929  -1.015  0.00  0.00    +0.155 HD
ATOM     19  N   UNL     1       4.060  -1.142   0.677  0.00  0.00    +0.401 N 
ATOM     20  H   UNL     1       3.631  -0.748   1.522  0.00  0.00    -0.078 HD
ENDROOT
BRANCH   2  21
ATOM     21  C   UNL     1       6.707   0.080  -1.552  0.00  0.00    -0.045 A 
ATOM     22  C   UNL     1       7.055  -1.151  -2.076  0.00  0.00    +0.006 A 
ATOM     23  C   UNL     1       8.252  -1.302  -2.750  0.00  0.00    +0.033 A 
ATOM     24  C   UNL     1       9.107  -0.225  -2.890  0.00  0.00    +0.126 A 
ATOM     25  C   UNL     1       8.762   1.005  -2.360  0.00  0.00    +0.033 A 
ATOM     26  C   UNL     1       7.562   1.157  -1.691  0.00  0.00    +0.006 A 
BRANCH  24  27
ATOM     27  N   UNL     1      10.392  -0.388  -3.607  0.00  0.00    +0.056 N 
ATOM     28  O   UNL     1      11.145   0.561  -3.730  0.00  0.00    -0.126 OA
ATOM     29  O   UNL     1      10.696  -1.471  -4.073  0.00  0.00    -0.126 OA
ENDBRANCH  24  27
ENDBRANCH   2  21
BRANCH   1  30
ATOM     30  C   UNL     1       4.718  -1.658  -2.331  0.00  0.00    +0.166 C 
ATOM     31  O   UNL     1       4.810  -2.709  -1.733  0.00  0.00    -0.292 OA
BRANCH  30  36
ATOM     32  C   UNL     1       6.103  -1.391  -7.904  0.00  0.00    +0.044 C 
ATOM     33  C   UNL     1       5.740  -1.460  -6.443  0.00  0.00    -0.050 A 
ATOM     34  C   UNL     1       5.846  -2.662  -5.764  0.00  0.00    +0.004 A 
ATOM     35  C   UNL     1       5.515  -2.734  -4.428  0.00  0.00    +0.011 A 
ATOM     36  C   UNL     1       5.072  -1.589  -3.758  0.00  0.00    +0.018 A 
ATOM     37  C   UNL     1       4.962  -0.380  -4.452  0.00  0.00    +0.011 A 
ATOM     38  C   UNL     1       5.302  -0.323  -5.787  0.00  0.00    +0.004 A 
ENDBRANCH  30  36
ENDBRANCH   1  30
TORSDOF 4
