REMARK  Name = ZINC59350324
REMARK  11 active torsions:
REMARK  status: ('A' for Active; 'I' for Inactive)
REMARK    1  A    between atoms: C_1  and  C_2
REMARK    2  A    between atoms: C_2  and  C_3
REMARK    3  A    between atoms: C_3  and  N_4
REMARK    4  A    between atoms: N_4  and  C_5
REMARK    5  A    between atoms: N_4  and  C_19
REMARK    6  A    between atoms: C_5  and  C_6
REMARK    7  A    between atoms: N_8  and  C_9
REMARK    8  A    between atoms: C_13  and  S_15
REMARK    9  A    between atoms: S_15  and  N_18
REMARK   10  A    between atoms: C_19  and  C_21
REMARK   11  A    between atoms: C_19  and  C_22
REMARK                            x       y       z     vdW  Elec       q    Type
REMARK                         _______ _______ _______ _____ _____    ______ ____
ROOT
ATOM      1  C   UNL     1       1.176  -2.512   2.383  0.00  0.00    +0.020 C 
ENDROOT
BRANCH   1   2
ATOM      2  C   UNL     1       0.224  -2.209   3.512  0.00  0.00    +0.201 C 
ATOM      3  O   UNL     1      -0.785  -1.571   3.299  0.00  0.00    -0.278 OA
ATOM      4  N   UNL     1       0.495  -2.646   4.758  0.00  0.00    -0.287 N 
ATOM      5  H   UNL     1       1.268  -3.210   4.916  0.00  0.00    +0.155 HD
BRANCH   4   6
ATOM      6  C   UNL     1      -0.338  -2.285   5.823  0.00  0.00    +0.035 A 
ATOM      7  C   UNL     1       0.203  -2.053   7.081  0.00  0.00    +0.023 A 
ATOM      8  C   UNL     1      -0.622  -1.697   8.130  0.00  0.00    +0.004 A 
ATOM      9  C   UNL     1      -1.985  -1.572   7.928  0.00  0.00    +0.028 A 
ATOM     10  C   UNL     1      -2.526  -1.803   6.677  0.00  0.00    +0.107 A 
ATOM     11  C   UNL     1      -1.705  -2.153   5.622  0.00  0.00    +0.051 A 
BRANCH  10  12
ATOM     12  S   UNL     1      -4.262  -1.643   6.426  0.00  0.00    +0.056 S 
ATOM     13  O   UNL     1      -4.585  -2.443   5.296  0.00  0.00    -0.153 OA
ATOM     14  O   UNL     1      -4.875  -1.833   7.694  0.00  0.00    -0.153 OA
BRANCH  12  15
ATOM     15  N   UNL     1      -4.552  -0.072   5.991  0.00  0.00    -0.204 NA
ATOM     16  H   UNL     1      -5.299   0.141   5.409  0.00  0.00    +0.144 HD
ATOM     17  H   UNL     1      -3.974   0.636   6.317  0.00  0.00    +0.144 HD
ENDBRANCH  12  15
ENDBRANCH  10  12
ENDBRANCH   4   6
ENDBRANCH   1   2
BRANCH   1  18
ATOM     18  N   UNL     1       0.658  -1.931   1.137  0.00  0.00    +0.390 N 
ATOM     19  H   UNL     1      -0.280  -2.266   0.974  0.00  0.00    -0.080 HD
BRANCH  18  20
ATOM     20  C   UNL     1       1.521  -2.327   0.017  0.00  0.00    -0.040 C 
ATOM     21  C   UNL     1       1.056  -1.623  -1.259  0.00  0.00    -0.008 C 
BRANCH  20  22
ATOM     22  C   UNL     1       1.442  -3.820  -0.175  0.00  0.00    -0.060 A 
ATOM     23  C   UNL     1       0.227  -4.468  -0.055  0.00  0.00    +0.003 A 
ATOM     24  C   UNL     1       0.153  -5.837  -0.230  0.00  0.00    +0.021 A 
ATOM     25  C   UNL     1       1.295  -6.559  -0.527  0.00  0.00    +0.059 A 
ATOM     26  C   UNL     1       2.511  -5.910  -0.648  0.00  0.00    +0.059 A 
ATOM     27  C   UNL     1       2.583  -4.539  -0.477  0.00  0.00    +0.023 A 
ATOM     28 CL   UNL     1       3.946  -6.815  -1.020  0.00  0.00    -0.082 Cl
ATOM     29 CL   UNL     1       1.202  -8.279  -0.747  0.00  0.00    -0.082 Cl
ENDBRANCH  20  22
ENDBRANCH  18  20
BRANCH  18  30
ATOM     30  C   UNL     1       0.642  -0.466   1.249  0.00  0.00    -0.078 C 
BRANCH  30  32
ATOM     31  C   UNL     1       2.069   1.581   1.372  0.00  0.00    +0.002 C 
ATOM     32  C   UNL     1       2.077   0.051   1.376  0.00  0.00    -0.022 C 
ENDBRANCH  30  32
ENDBRANCH  18  30
ENDBRANCH   1  18
TORSDOF 9
