REMARK  Name = ZINC13306519
REMARK  5 active torsions:
REMARK  status: ('A' for Active; 'I' for Inactive)
REMARK    1  A    between atoms: C_3  and  N_29
REMARK    2  A    between atoms: C_4  and  N_18
REMARK    3  A    between atoms: C_6  and  N_7
REMARK    4  A    between atoms: C_8  and  C_10
REMARK    5  A    between atoms: C_19  and  C_21
REMARK                            x       y       z     vdW  Elec       q    Type
REMARK                         _______ _______ _______ _____ _____    ______ ____
ROOT
ATOM      1  C   UNL     1       3.334   3.445   0.189  0.00  0.00    +0.025 A 
ATOM      2  C   UNL     1       3.484   2.072   0.242  0.00  0.00    +0.036 A 
ATOM      3  C   UNL     1       2.375   1.250   0.185  0.00  0.00    +0.147 A 
ATOM      4  C   UNL     1       1.104   1.802   0.074  0.00  0.00    +0.066 A 
ATOM      5  C   UNL     1       0.951   3.180   0.014  0.00  0.00    +0.049 A 
ATOM      6  C   UNL     1       2.066   4.003   0.078  0.00  0.00    +0.036 A 
ENDROOT
BRANCH   6   7
ATOM      7  N   UNL     1       1.915   5.392   0.024  0.00  0.00    -0.281 N 
ATOM      8  C   UNL     1       2.920   6.162  -0.438  0.00  0.00    +0.250 C 
ATOM      9  O   UNL     1       3.916   5.645  -0.907  0.00  0.00    -0.270 OA
ATOM     10  H   UNL     1       1.087   5.801   0.320  0.00  0.00    +0.155 HD
BRANCH   8  11
ATOM     11  C   UNL     1       2.813   7.633  -0.375  0.00  0.00    +0.055 A 
ATOM     12  C   UNL     1       1.670   8.230   0.164  0.00  0.00    +0.016 A 
ATOM     13  C   UNL     1       1.576   9.604   0.220  0.00  0.00    +0.021 A 
ATOM     14  C   UNL     1       2.610  10.394  -0.256  0.00  0.00    +0.042 A 
ATOM     15  C   UNL     1       3.745   9.809  -0.791  0.00  0.00    +0.040 A 
ATOM     16  C   UNL     1       3.856   8.434  -0.848  0.00  0.00    +0.054 A 
ATOM     17 CL   UNL     1       5.283   7.702  -1.512  0.00  0.00    -0.083 Cl
ATOM     18 CL   UNL     1       2.482  12.123  -0.182  0.00  0.00    -0.083 Cl
ENDBRANCH   8  11
ENDBRANCH   6   7
BRANCH   4  19
ATOM     19  N   UNL     1      -0.018   0.969   0.016  0.00  0.00    -0.280 N 
ATOM     20  C   UNL     1      -1.174   1.356   0.590  0.00  0.00    +0.250 C 
ATOM     21  O   UNL     1      -1.266   2.461   1.089  0.00  0.00    -0.270 OA
ATOM     22  H   UNL     1       0.035   0.115  -0.441  0.00  0.00    +0.155 HD
BRANCH  20  23
ATOM     23  C   UNL     1      -2.330   0.438   0.614  0.00  0.00    +0.055 A 
ATOM     24  C   UNL     1      -2.229  -0.833   0.042  0.00  0.00    +0.016 A 
ATOM     25  C   UNL     1      -3.311  -1.686   0.067  0.00  0.00    +0.021 A 
ATOM     26  C   UNL     1      -4.499  -1.286   0.658  0.00  0.00    +0.042 A 
ATOM     27  C   UNL     1      -4.608  -0.029   1.227  0.00  0.00    +0.040 A 
ATOM     28  C   UNL     1      -3.529   0.833   1.214  0.00  0.00    +0.054 A 
ATOM     29 CL   UNL     1      -3.663   2.407   1.934  0.00  0.00    -0.083 Cl
ATOM     30 CL   UNL     1      -5.857  -2.367   0.685  0.00  0.00    -0.083 Cl
ENDBRANCH  20  23
ENDBRANCH   4  19
BRANCH   3  31
ATOM     31  N   UNL     1       2.540  -0.220   0.242  0.00  0.00    +0.058 N 
ATOM     32  O   UNL     1       3.643  -0.702   0.429  0.00  0.00    -0.126 OA
ATOM     33  O   UNL     1       1.573  -0.947   0.101  0.00  0.00    -0.126 OA
ENDBRANCH   3  31
TORSDOF 5
