REMARK  Name = ZINC38065554
REMARK  9 active torsions:
REMARK  status: ('A' for Active; 'I' for Inactive)
REMARK    1  A    between atoms: C_1  and  C_2
REMARK    2  A    between atoms: C_2  and  C_3
REMARK    3  A    between atoms: C_3  and  C_5
REMARK    4  A    between atoms: C_3  and  N_6
REMARK    5  A    between atoms: N_6  and  C_7
REMARK    6  A    between atoms: C_7  and  C_8
REMARK    7  A    between atoms: C_7  and  C_10
REMARK    8  A    between atoms: C_7  and  C_17
REMARK    9  A    between atoms: C_8  and  C_9
REMARK                            x       y       z     vdW  Elec       q    Type
REMARK                         _______ _______ _______ _____ _____    ______ ____
ROOT
ATOM      1  C   UNL     1      -2.794  -0.965   2.100  0.00  0.00    +0.036 C 
ENDROOT
BRANCH   1   2
ATOM      2  C   UNL     1      -2.738  -0.578   3.555  0.00  0.00    -0.050 A 
ATOM      3  C   UNL     1      -1.754   0.283   4.004  0.00  0.00    +0.004 A 
ATOM      4  C   UNL     1      -1.703   0.638   5.339  0.00  0.00    +0.015 A 
ATOM      5  C   UNL     1      -2.635   0.131   6.226  0.00  0.00    +0.018 A 
ATOM      6  C   UNL     1      -3.619  -0.731   5.776  0.00  0.00    +0.015 A 
ATOM      7  C   UNL     1      -3.673  -1.081   4.440  0.00  0.00    +0.004 A 
ATOM      8 BR   UNL     1      -2.565   0.616   8.052  0.00  0.00    -0.050 Br
ENDBRANCH   1   2
BRANCH   1   9
ATOM      9  C   UNL     1      -2.650  -2.459   1.971  0.00  0.00    +0.204 C 
ATOM     10  O   UNL     1      -3.632  -3.150   1.797  0.00  0.00    -0.277 OA
ATOM     11  N   UNL     1      -1.431  -3.028   2.049  0.00  0.00    -0.330 N 
ATOM     12  H   UNL     1      -0.646  -2.476   2.188  0.00  0.00    +0.145 HD
ATOM     13  H   UNL     1      -1.339  -3.990   1.966  0.00  0.00    +0.145 HD
ENDBRANCH   1   9
BRANCH   1  14
ATOM     14  N   UNL     1      -1.700  -0.303   1.375  0.00  0.00    +0.393 N 
ATOM     15  H   UNL     1      -0.816  -0.670   1.694  0.00  0.00    -0.084 HD
ATOM     16  H   UNL     1      -1.734   0.690   1.548  0.00  0.00    -0.084 HD
BRANCH  14  17
ATOM     17  C   UNL     1      -1.845  -0.555  -0.065  0.00  0.00    -0.073 C 
ATOM     18  C   UNL     1      -1.550  -2.028  -0.357  0.00  0.00    -0.014 C 
BRANCH  17  20
ATOM     19  C   UNL     1      -1.232   1.797  -0.644  0.00  0.00    +0.002 C 
ATOM     20  C   UNL     1      -0.860   0.325  -0.838  0.00  0.00    -0.019 C 
ENDBRANCH  17  20
ENDBRANCH  14  17
ENDBRANCH   1  14
BRANCH   1  21
ATOM     21  C   UNL     1      -4.135  -0.528   1.508  0.00  0.00    -0.002 C 
ATOM     22  C   UNL     1      -4.228   0.999   1.525  0.00  0.00    +0.003 C 
ENDBRANCH   1  21
TORSDOF 6
