REMARK  Name = ZINC04366591
REMARK  6 active torsions:
REMARK  status: ('A' for Active; 'I' for Inactive)
REMARK    1  A    between atoms: C_6  and  N_7
REMARK    2  A    between atoms: N_7  and  C_8
REMARK    3  A    between atoms: C_8  and  N_10
REMARK    4  A    between atoms: N_10  and  N_11
REMARK    5  A    between atoms: C_12  and  C_14
REMARK    6  A    between atoms: C_14  and  O_21
REMARK                            x       y       z     vdW  Elec       q    Type
REMARK                         _______ _______ _______ _____ _____    ______ ____
ROOT
ATOM      1  N   UNL     1      -2.368   5.675   0.944  0.00  0.00    -0.233 N 
ATOM      2  C   UNL     1      -2.510   4.404   0.519  0.00  0.00    +0.259 C 
ATOM      3  O   UNL     1      -3.462   3.746   0.883  0.00  0.00    -0.271 OA
ATOM      4  H   UNL     1      -1.607   6.201   0.653  0.00  0.00    +0.173 HD
ENDROOT
BRANCH   2   5
ATOM      5  C   UNL     1      -1.486   3.800  -0.406  0.00  0.00    +0.131 C 
ATOM      6  C   UNL     1      -1.496   2.276  -0.257  0.00  0.00    -0.034 C 
ATOM      7  C   UNL     1      -0.821   1.991  -2.567  0.00  0.00    -0.078 C 
ATOM      8  C   UNL     1      -0.793   3.507  -2.781  0.00  0.00    -0.012 C 
ATOM      9  C   UNL     1      -1.830   4.158  -1.857  0.00  0.00    +0.024 C 
ATOM     10  C   UNL     1      -3.215   3.594  -2.203  0.00  0.00    -0.012 C 
ATOM     11  C   UNL     1      -3.173   2.061  -1.990  0.00  0.00    -0.078 C 
ATOM     12  N   UNL     1      -1.829   1.633  -1.546  0.00  0.00    +0.382 N 
ATOM     13  H   UNL     1      -1.829   0.614  -1.421  0.00  0.00    -0.082 HD
BRANCH   5  14
ATOM     14  O   UNL     1      -0.190   4.306  -0.083  0.00  0.00    -0.381 OA
ATOM     15  H   UNL     1       0.092   4.116   0.822  0.00  0.00    +0.211 HD
ENDBRANCH   5  14
ENDBRANCH   2   5
BRANCH   1  16
ATOM     16  N   UNL     1      -3.320   6.237   1.804  0.00  0.00    -0.246 N 
ATOM     17  H   UNL     1      -4.082   5.711   2.095  0.00  0.00    +0.172 HD
BRANCH  16  18
ATOM     18  C   UNL     1      -3.178   7.508   2.228  0.00  0.00    +0.151 C 
ATOM     19  S   UNL     1      -4.342   8.195   3.280  0.00  0.00    -0.017 S 
BRANCH  18  20
ATOM     20  N   UNL     1      -2.120   8.239   1.825  0.00  0.00    -0.296 N 
ATOM     21  H   UNL     1      -1.505   7.879   1.167  0.00  0.00    +0.154 HD
BRANCH  20  27
ATOM     22  C   UNL     1      -1.508  10.556   1.524  0.00  0.00    +0.025 A 
ATOM     23  C   UNL     1      -1.308  11.819   2.048  0.00  0.00    +0.022 A 
ATOM     24  C   UNL     1      -1.495  12.046   3.400  0.00  0.00    +0.041 A 
ATOM     25  C   UNL     1      -1.889  11.011   4.230  0.00  0.00    +0.022 A 
ATOM     26  C   UNL     1      -2.097   9.748   3.711  0.00  0.00    +0.025 A 
ATOM     27  C   UNL     1      -1.910   9.518   2.354  0.00  0.00    +0.033 A 
ATOM     28 CL   UNL     1      -1.235  13.632   4.057  0.00  0.00    -0.084 Cl
ENDBRANCH  20  27
ENDBRANCH  18  20
ENDBRANCH  16  18
ENDBRANCH   1  16
TORSDOF 6
