REMARK  Name = ZINC15446683
REMARK  15 active torsions:
REMARK  status: ('A' for Active; 'I' for Inactive)
REMARK    1  A    between atoms: C_1  and  N_59
REMARK    2  A    between atoms: C_2  and  C_3
REMARK    3  A    between atoms: C_2  and  N_59
REMARK    4  A    between atoms: N_5  and  C_6
REMARK    5  A    between atoms: C_6  and  C_7
REMARK    6  A    between atoms: C_9  and  O_17
REMARK    7  A    between atoms: C_10  and  O_15
REMARK    8  A    between atoms: C_11  and  O_13
REMARK    9  A    between atoms: O_13  and  C_14
REMARK   10  A    between atoms: O_15  and  C_16
REMARK   11  A    between atoms: O_17  and  C_18
REMARK   12  A    between atoms: C_19  and  C_20
REMARK   13  A    between atoms: C_19  and  N_59
REMARK   14  A    between atoms: N_22  and  C_23
REMARK   15  A    between atoms: C_28  and  C_29
REMARK                            x       y       z     vdW  Elec       q    Type
REMARK                         _______ _______ _______ _____ _____    ______ ____
ROOT
ATOM      1  C   UNL     1       3.679   1.738   0.246  0.00  0.00    +0.019 C 
ENDROOT
BRANCH   1   2
ATOM      2  C   UNL     1       4.774   0.728   0.472  0.00  0.00    +0.197 C 
ATOM      3  O   UNL     1       4.522  -0.458   0.435  0.00  0.00    -0.278 OA
ATOM      4  N   UNL     1       6.034   1.142   0.714  0.00  0.00    -0.313 N 
ATOM      5  H   UNL     1       6.235   2.091   0.743  0.00  0.00    +0.149 HD
BRANCH   4   6
ATOM      6  C   UNL     1       7.098   0.160   0.932  0.00  0.00    +0.139 C 
BRANCH   6   7
ATOM      7  C   UNL     1       8.400   0.877   1.179  0.00  0.00    -0.023 A 
ATOM      8  C   UNL     1       9.229   1.187   0.117  0.00  0.00    +0.054 A 
ATOM      9  C   UNL     1      10.425   1.852   0.339  0.00  0.00    +0.165 A 
ATOM     10  C   UNL     1      10.796   2.196   1.634  0.00  0.00    +0.204 A 
ATOM     11  C   UNL     1       9.963   1.878   2.700  0.00  0.00    +0.165 A 
ATOM     12  C   UNL     1       8.766   1.218   2.468  0.00  0.00    +0.054 A 
BRANCH  11  13
ATOM     13  O   UNL     1      10.323   2.212   3.968  0.00  0.00    -0.491 OA
ATOM     14  C   UNL     1       9.418   1.853   5.014  0.00  0.00    +0.277 C 
ENDBRANCH  11  13
BRANCH  10  15
ATOM     15  O   UNL     1      11.972   2.844   1.857  0.00  0.00    -0.488 OA
ATOM     16  C   UNL     1      13.125   2.033   2.091  0.00  0.00    +0.277 C 
ENDBRANCH  10  15
BRANCH   9  17
ATOM     17  O   UNL     1      11.236   2.162  -0.707  0.00  0.00    -0.491 OA
ATOM     18  C   UNL     1      10.791   1.778  -2.009  0.00  0.00    +0.277 C 
ENDBRANCH   9  17
ENDBRANCH   6   7
ENDBRANCH   4   6
ENDBRANCH   1   2
BRANCH   1  20
ATOM     19  C   UNL     1       2.454   0.285  -1.254  0.00  0.00    -0.095 C 
ATOM     20  N   UNL     1       2.406   1.020   0.027  0.00  0.00    +0.389 N 
ATOM     21  H   UNL     1       2.265   0.349   0.791  0.00  0.00    -0.081 HD
BRANCH  20  22
ATOM     22  C   UNL     1       1.280   1.979   0.017  0.00  0.00    +0.019 C 
BRANCH  22  23
ATOM     23  C   UNL     1      -0.015   1.208   0.014  0.00  0.00    +0.201 C 
ATOM     24  O   UNL     1       0.001  -0.004   0.004  0.00  0.00    -0.278 OA
ATOM     25  N   UNL     1      -1.191   1.867   0.018  0.00  0.00    -0.287 N 
ATOM     26  H   UNL     1      -1.205   2.834   0.092  0.00  0.00    +0.155 HD
BRANCH  25  27
ATOM     27  C   UNL     1      -2.391   1.155  -0.086  0.00  0.00    +0.045 A 
ATOM     28  C   UNL     1      -2.510  -0.099   0.499  0.00  0.00    +0.024 A 
ATOM     29  C   UNL     1      -3.697  -0.796   0.399  0.00  0.00    +0.002 A 
ATOM     30  C   UNL     1      -4.764  -0.252  -0.292  0.00  0.00    +0.001 A 
ATOM     31  C   UNL     1      -4.648   0.994  -0.880  0.00  0.00    +0.014 A 
ATOM     32  C   UNL     1      -3.464   1.699  -0.779  0.00  0.00    +0.076 A 
BRANCH  32  33
ATOM     33  C   UNL     1      -3.338   3.057  -1.421  0.00  0.00    +0.419 C 
ATOM     34  F   UNL     1      -4.540   3.386  -2.055  0.00  0.00    -0.166 F 
ATOM     35  F   UNL     1      -3.051   4.011  -0.439  0.00  0.00    -0.166 F 
ATOM     36  F   UNL     1      -2.305   3.032  -2.364  0.00  0.00    -0.166 F 
ENDBRANCH  32  33
ENDBRANCH  25  27
ENDBRANCH  22  23
ENDBRANCH  20  22
ENDBRANCH   1  20
TORSDOF 11
