REMARK  Name = ZINC65965784
REMARK  6 active torsions:
REMARK  status: ('A' for Active; 'I' for Inactive)
REMARK    1  A    between atoms: C_1  and  C_2
REMARK    2  A    between atoms: C_2  and  C_3
REMARK    3  A    between atoms: C_2  and  N_14
REMARK    4  A    between atoms: N_5  and  C_6
REMARK    5  A    between atoms: C_18  and  C_20
REMARK    6  A    between atoms: N_22  and  C_23
REMARK                            x       y       z     vdW  Elec       q    Type
REMARK                         _______ _______ _______ _____ _____    ______ ____
ROOT
ATOM      1  N   UNL     1       0.056  -0.701  -1.243  0.00  0.00    +0.388 N 
ATOM      2  C   UNL     1      -0.734  -0.108  -2.329  0.00  0.00    -0.078 C 
ATOM      3  C   UNL     1      -0.580  -0.951  -3.596  0.00  0.00    -0.018 C 
ATOM      4  C   UNL     1      -1.076  -2.373  -3.320  0.00  0.00    +0.009 C 
ATOM      5  C   UNL     1      -0.296  -2.955  -2.138  0.00  0.00    +0.058 C 
ATOM      6  C   UNL     1      -0.461  -2.038  -0.924  0.00  0.00    -0.065 C 
ATOM      7  H   UNL     1       1.020  -0.775  -1.532  0.00  0.00    -0.081 HD
ENDROOT
BRANCH   5   8
ATOM      8  C   UNL     1      -0.830  -4.325  -1.809  0.00  0.00    +0.215 C 
ATOM      9  O   UNL     1      -1.293  -4.548  -0.710  0.00  0.00    -0.276 OA
ATOM     10  N   UNL     1      -0.793  -5.303  -2.735  0.00  0.00    -0.312 N 
ATOM     11  H   UNL     1      -0.423  -5.125  -3.614  0.00  0.00    +0.149 HD
BRANCH  10  12
ATOM     12  C   UNL     1      -1.312  -6.636  -2.415  0.00  0.00    +0.073 C 
ATOM     13  C   UNL     1      -0.222  -7.454  -1.720  0.00  0.00    +0.022 C 
ATOM     14  C   UNL     1      -0.764  -8.845  -1.386  0.00  0.00    +0.002 C 
ATOM     15  C   UNL     1      -1.188  -9.551  -2.676  0.00  0.00    +0.000 C 
ATOM     16  C   UNL     1      -2.278  -8.733  -3.370  0.00  0.00    +0.002 C 
ATOM     17  C   UNL     1      -1.736  -7.341  -3.705  0.00  0.00    +0.022 C 
ENDBRANCH  10  12
ENDBRANCH   5   8
BRANCH   1  19
ATOM     18  C   UNL     1       0.438   1.567  -0.402  0.00  0.00    -0.004 C 
ATOM     19  C   UNL     1      -0.032   0.153  -0.052  0.00  0.00    +0.016 C 
BRANCH  19  20
ATOM     20  C   UNL     1       0.843  -0.411   1.038  0.00  0.00    +0.203 C 
ATOM     21  O   UNL     1       1.821  -1.069   0.750  0.00  0.00    -0.277 OA
ATOM     22  N   UNL     1       0.538  -0.186   2.331  0.00  0.00    -0.285 N 
ATOM     23  H   UNL     1      -0.282   0.277   2.563  0.00  0.00    +0.155 HD
BRANCH  22  24
ATOM     24  C   UNL     1       1.407  -0.621   3.341  0.00  0.00    +0.069 A 
ATOM     25  C   UNL     1       2.733  -0.901   3.044  0.00  0.00    +0.029 A 
ATOM     26  C   UNL     1       3.588  -1.330   4.041  0.00  0.00    +0.040 A 
ATOM     27  C   UNL     1       3.124  -1.479   5.337  0.00  0.00    +0.126 A 
ATOM     28  C   UNL     1       1.801  -1.200   5.637  0.00  0.00    +0.078 A 
ATOM     29  C   UNL     1       0.943  -0.765   4.644  0.00  0.00    +0.147 A 
ATOM     30  F   UNL     1      -0.346  -0.487   4.938  0.00  0.00    -0.203 F 
ATOM     31  F   UNL     1       3.962  -1.898   6.310  0.00  0.00    -0.205 F 
ENDBRANCH  22  24
ENDBRANCH  19  20
ENDBRANCH   1  19
TORSDOF 5
