REMARK  Name = ZINC63663911
REMARK  7 active torsions:
REMARK  status: ('A' for Active; 'I' for Inactive)
REMARK    1  A    between atoms: C_1  and  C_2
REMARK    2  A    between atoms: C_4  and  C_13
REMARK    3  A    between atoms: C_13  and  C_14
REMARK    4  A    between atoms: C_14  and  N_15
REMARK    5  A    between atoms: N_15  and  C_16
REMARK    6  A    between atoms: C_16  and  N_18
REMARK    7  A    between atoms: N_18  and  C_19
REMARK                            x       y       z     vdW  Elec       q    Type
REMARK                         _______ _______ _______ _____ _____    ______ ____
ROOT
ATOM      1  C   UNL     1       0.878  -1.655  -3.670  0.00  0.00    +0.107 C 
ENDROOT
BRANCH   1   2
ATOM      2  N   UNL     1       0.768  -1.076  -5.011  0.00  0.00    -0.326 N 
ATOM      3  H   UNL     1       0.159  -0.339  -5.173  0.00  0.00    +0.148 HD
BRANCH   2   4
ATOM      4  C   UNL     1       1.514  -1.568  -6.020  0.00  0.00    +0.135 C 
ATOM      5  S   UNL     1       2.590  -2.868  -5.734  0.00  0.00    -0.019 S 
BRANCH   4   6
ATOM      6  N   UNL     1       1.414  -1.035  -7.254  0.00  0.00    -0.297 N 
ATOM      7  H   UNL     1       0.760  -0.340  -7.430  0.00  0.00    +0.154 HD
BRANCH   6   8
ATOM      8  C   UNL     1       2.251  -1.485  -8.281  0.00  0.00    +0.033 A 
ATOM      9  C   UNL     1       2.452  -2.846  -8.469  0.00  0.00    +0.025 A 
ATOM     10  C   UNL     1       3.279  -3.288  -9.483  0.00  0.00    +0.022 A 
ATOM     11  C   UNL     1       3.907  -2.375 -10.312  0.00  0.00    +0.041 A 
ATOM     12  C   UNL     1       3.708  -1.018 -10.127  0.00  0.00    +0.022 A 
ATOM     13  C   UNL     1       2.879  -0.571  -9.117  0.00  0.00    +0.025 A 
ATOM     14 CL   UNL     1       4.946  -2.933 -11.586  0.00  0.00    -0.084 Cl
ENDBRANCH   6   8
ENDBRANCH   4   6
ENDBRANCH   2   4
ENDBRANCH   1   2
BRANCH   1  15
ATOM     15  C   UNL     1      -0.068  -0.920  -2.718  0.00  0.00    +0.052 C 
BRANCH  15  18
ATOM     16  C   UNL     1      -0.391   0.367   0.240  0.00  0.00    +0.035 C 
ATOM     17  C   UNL     1      -0.712  -1.090  -0.100  0.00  0.00    +0.103 C 
ATOM     18  C   UNL     1       0.045  -1.515  -1.338  0.00  0.00    -0.037 C 
ATOM     19  C   UNL     1       0.842  -2.539  -0.957  0.00  0.00    +0.002 A 
ATOM     20  C   UNL     1       1.807  -3.371  -1.685  0.00  0.00    +0.048 A 
ATOM     21  C   UNL     1       2.472  -4.343  -1.017  0.00  0.00    +0.124 A 
ATOM     22  C   UNL     1       2.261  -4.573   0.352  0.00  0.00    +0.040 A 
ATOM     23  C   UNL     1       1.391  -3.849   1.087  0.00  0.00    +0.029 A 
ATOM     24  C   UNL     1       0.639  -2.802   0.486  0.00  0.00    +0.043 A 
ATOM     25  N   UNL     1      -0.252  -1.973   0.978  0.00  0.00    -0.378 N 
ATOM     26  F   UNL     1       3.360  -5.112  -1.684  0.00  0.00    -0.205 F 
ATOM     27  H   UNL     1      -0.555  -1.948   1.899  0.00  0.00    +0.160 HD
ENDBRANCH  15  18
ENDBRANCH   1  15
TORSDOF 6
