REMARK  Name = ZINC02043398
REMARK  12 active torsions:
REMARK  status: ('A' for Active; 'I' for Inactive)
REMARK    1  A    between atoms: C_1  and  C_2
REMARK    2  A    between atoms: C_2  and  O_3
REMARK    3  A    between atoms: O_3  and  C_4
REMARK    4  A    between atoms: C_4  and  C_6
REMARK    5  A    between atoms: C_6  and  C_7
REMARK    6  A    between atoms: C_7  and  N_8
REMARK    7  A    between atoms: C_15  and  C_17
REMARK    8  A    between atoms: C_24  and  C_27
REMARK    9  A    between atoms: N_25  and  C_26
REMARK   10  A    between atoms: C_27  and  N_28
REMARK   11  A    between atoms: N_28  and  C_29
REMARK   12  A    between atoms: C_32  and  C_35
REMARK                            x       y       z     vdW  Elec       q    Type
REMARK                         _______ _______ _______ _____ _____    ______ ____
ROOT
ATOM      1  C   UNL     1       1.459  -0.989   6.887  0.00  0.00    +0.039 A 
ATOM      2  C   UNL     1       2.418  -1.216   5.890  0.00  0.00    +0.015 A 
ATOM      3  C   UNL     1       2.036  -1.424   4.597  0.00  0.00    +0.029 A 
ATOM      4  C   UNL     1       0.687  -1.412   4.257  0.00  0.00    +0.069 A 
ATOM      5  C   UNL     1      -0.289  -1.186   5.245  0.00  0.00    +0.090 A 
ATOM      6  C   UNL     1       0.105  -0.974   6.565  0.00  0.00    +0.043 A 
ATOM      7  N   UNL     1      -1.497  -1.231   4.625  0.00  0.00    -0.231 NA
ATOM      8  C   UNL     1      -1.327  -1.458   3.355  0.00  0.00    +0.128 A 
ATOM      9  N   UNL     1      -0.001  -1.584   3.075  0.00  0.00    -0.329 N 
ATOM     10  C   UNL     1       0.587  -1.847   1.760  0.00  0.00    +0.150 C 
ENDROOT
BRANCH   1  18
ATOM     11  N   UNL     1       2.953  -1.428   8.774  0.00  0.00    -0.252 N 
ATOM     12  C   UNL     1       3.241  -1.369  10.136  0.00  0.00    +0.128 A 
ATOM     13  C   UNL     1       2.277  -0.908  11.025  0.00  0.00    +0.044 A 
ATOM     14  C   UNL     1       2.575  -0.860  12.376  0.00  0.00    +0.005 A 
ATOM     15  C   UNL     1       3.836  -1.266  12.790  0.00  0.00    +0.020 A 
ATOM     16  C   UNL     1       4.747  -1.707  11.851  0.00  0.00    +0.113 A 
ATOM     17  N   UNL     1       4.433  -1.747  10.571  0.00  0.00    -0.240 NA
ATOM     18  C   UNL     1       1.886  -0.766   8.282  0.00  0.00    +0.252 C 
ATOM     19  O   UNL     1       1.276   0.014   8.987  0.00  0.00    -0.270 OA
BRANCH  11  20
ATOM     20  C   UNL     1       3.808  -2.209   7.877  0.00  0.00    +0.126 C 
BRANCH  20  21
ATOM     21  C   UNL     1       5.098  -1.435   7.601  0.00  0.00    +0.140 C 
BRANCH  21  22
ATOM     22  C   UNL     1       5.978  -2.239   6.678  0.00  0.00    +0.309 C 
ATOM     23  O   UNL     1       5.611  -3.320   6.283  0.00  0.00    -0.251 OA
BRANCH  22  24
ATOM     24  O   UNL     1       7.170  -1.754   6.296  0.00  0.00    -0.465 OA
BRANCH  24  26
ATOM     25  C   UNL     1       9.279  -1.869   5.084  0.00  0.00    +0.048 C 
ATOM     26  C   UNL     1       7.964  -2.582   5.407  0.00  0.00    +0.229 C 
ENDBRANCH  24  26
ENDBRANCH  22  24
ENDBRANCH  21  22
ENDBRANCH  20  21
ENDBRANCH  11  20
ENDBRANCH   1  18
BRANCH   8  27
ATOM     27  C   UNL     1      -2.437  -1.569   2.342  0.00  0.00    +0.176 C 
BRANCH  27  28
ATOM     28  N   UNL     1      -2.876  -2.964   2.250  0.00  0.00    -0.337 N 
ATOM     29  H   UNL     1      -2.454  -3.643   2.800  0.00  0.00    +0.147 HD
BRANCH  28  30
ATOM     30  C   UNL     1      -3.899  -3.316   1.373  0.00  0.00    +0.027 A 
ATOM     31  C   UNL     1      -4.508  -2.340   0.589  0.00  0.00    +0.023 A 
ATOM     32  C   UNL     1      -5.516  -2.686  -0.283  0.00  0.00    +0.013 A 
ATOM     33  C   UNL     1      -5.935  -4.015  -0.372  0.00  0.00    +0.012 A 
ATOM     34  C   UNL     1      -5.327  -4.991   0.420  0.00  0.00    +0.013 A 
ATOM     35  C   UNL     1      -4.315  -4.641   1.286  0.00  0.00    +0.023 A 
BRANCH  33  36
ATOM     36  C   UNL     1      -7.021  -4.388  -1.303  0.00  0.00    +0.094 C 
ATOM     37  H   UNL     1      -8.116  -5.973  -1.966  0.00  0.00    +0.157 HD
ATOM     38  N   UNL     1      -7.621  -3.424  -2.084  0.00  0.00    -0.345 N 
ATOM     39  H   UNL     1      -7.330  -2.500  -2.023  0.00  0.00    +0.144 HD
ATOM     40  H   UNL     1      -8.333  -3.668  -2.695  0.00  0.00    +0.144 HD
ATOM     41  N   UNL     1      -7.371  -5.666  -1.340  0.00  0.00    -0.387 N 
ATOM     42  H   UNL     1      -6.894  -6.346  -0.738  0.00  0.00    +0.157 HD
ENDBRANCH  33  36
ENDBRANCH  28  30
ENDBRANCH  27  28
ENDBRANCH   8  27
TORSDOF 10
