REMARK  Name = ZINC65306029
REMARK  11 active torsions:
REMARK  status: ('A' for Active; 'I' for Inactive)
REMARK    1  A    between atoms: C_1  and  C_2
REMARK    2  A    between atoms: C_2  and  C_3
REMARK    3  A    between atoms: C_3  and  C_4
REMARK    4  A    between atoms: C_4  and  C_6
REMARK    5  A    between atoms: C_4  and  N_18
REMARK    6  A    between atoms: N_8  and  C_9
REMARK    7  A    between atoms: C_19  and  C_21
REMARK    8  A    between atoms: C_21  and  C_22
REMARK    9  A    between atoms: C_22  and  C_23
REMARK   10  A    between atoms: C_28  and  O_29
REMARK   11  A    between atoms: O_29  and  C_30
REMARK                            x       y       z     vdW  Elec       q    Type
REMARK                         _______ _______ _______ _____ _____    ______ ____
ROOT
ATOM      1  C   UNL     1      -1.413  -2.063   0.004  0.00  0.00    +0.159 C 
ENDROOT
BRANCH   1   2
ATOM      2  C   UNL     1      -2.820  -2.586   0.139  0.00  0.00    +0.236 C 
ATOM      3  O   UNL     1      -3.293  -3.285  -0.732  0.00  0.00    -0.274 OA
ATOM      4  N   UNL     1      -3.552  -2.276   1.227  0.00  0.00    -0.277 N 
ATOM      5  H   UNL     1      -3.174  -1.717   1.923  0.00  0.00    +0.152 HD
BRANCH   4   6
ATOM      6  C   UNL     1      -4.920  -2.784   1.358  0.00  0.00    +0.269 C 
ATOM      7  N   UNL     1      -5.833  -1.992   0.523  0.00  0.00    -0.348 N 
ATOM      8  C   UNL     1      -6.713  -1.449   1.314  0.00  0.00    +0.061 A 
ATOM      9  C   UNL     1      -7.862  -0.564   1.073  0.00  0.00    +0.027 A 
ATOM     10  C   UNL     1      -8.612  -0.151   2.114  0.00  0.00    +0.002 A 
ATOM     11  C   UNL     1      -8.344  -0.531   3.441  0.00  0.00    +0.002 A 
ATOM     12  C   UNL     1      -7.316  -1.338   3.772  0.00  0.00    +0.027 A 
ATOM     13  C   UNL     1      -6.429  -1.852   2.719  0.00  0.00    +0.061 A 
ATOM     14  N   UNL     1      -5.385  -2.629   2.742  0.00  0.00    -0.348 N 
ATOM     15  H   UNL     1      -5.789  -1.893  -0.440  0.00  0.00    +0.163 HD
ATOM     16  H   UNL     1      -4.987  -3.032   3.529  0.00  0.00    +0.163 HD
ENDBRANCH   4   6
ENDBRANCH   1   2
BRANCH   1  17
ATOM     17  N   UNL     1      -0.834  -2.537  -1.256  0.00  0.00    -0.304 N 
ATOM     18  C   UNL     1       0.503  -2.647  -1.384  0.00  0.00    +0.214 C 
ATOM     19  O   UNL     1       1.227  -2.354  -0.457  0.00  0.00    -0.276 OA
ATOM     20  H   UNL     1      -1.414  -2.772  -1.997  0.00  0.00    +0.149 HD
BRANCH  18  21
ATOM     21  C   UNL     1       1.098  -3.134  -2.680  0.00  0.00    +0.100 C 
BRANCH  21  22
ATOM     22  C   UNL     1       2.623  -3.166  -2.561  0.00  0.00    +0.048 C 
BRANCH  22  23
ATOM     23  C   UNL     1       3.218  -3.653  -3.857  0.00  0.00    -0.005 A 
ATOM     24  C   UNL     1       3.527  -4.990  -4.017  0.00  0.00    +0.007 A 
ATOM     25  C   UNL     1       4.073  -5.437  -5.205  0.00  0.00    +0.000 A 
ATOM     26  C   UNL     1       4.311  -4.548  -6.237  0.00  0.00    +0.004 A 
ATOM     27  C   UNL     1       4.003  -3.211  -6.083  0.00  0.00    +0.046 A 
ATOM     28  C   UNL     1       3.450  -2.760  -4.893  0.00  0.00    +0.123 A 
BRANCH  28  29
ATOM     29  O   UNL     1       3.141  -1.446  -4.741  0.00  0.00    -0.495 OA
ATOM     30  C   UNL     1       3.407  -0.584  -5.850  0.00  0.00    +0.277 C 
ENDBRANCH  28  29
ENDBRANCH  22  23
ENDBRANCH  21  22
ENDBRANCH  18  21
ENDBRANCH   1  17
BRANCH   1  31
ATOM     31  C   UNL     1      -1.433  -0.534   0.013  0.00  0.00    +0.031 C 
BRANCH  31  33
ATOM     32  C   UNL     1      -0.019   1.526   0.010  0.00  0.00    +0.004 C 
ATOM     33  C   UNL     1       0.002  -0.004   0.002  0.00  0.00    -0.001 C 
ENDBRANCH  31  33
ENDBRANCH   1  31
TORSDOF 9
