REMARK  Name = ZINC43527189
REMARK  5 active torsions:
REMARK  status: ('A' for Active; 'I' for Inactive)
REMARK    1  A    between atoms: N_15  and  C_17
REMARK    2  A    between atoms: C_17  and  C_18
REMARK    3  A    between atoms: C_27  and  C_29
REMARK    4  A    between atoms: C_29  and  N_30
REMARK    5  A    between atoms: N_33  and  C_34
REMARK                            x       y       z     vdW  Elec       q    Type
REMARK                         _______ _______ _______ _____ _____    ______ ____
ROOT
ATOM      1  C   UNL     1       3.215   1.678   4.235  0.00  0.00    -0.041 C 
ATOM      2  C   UNL     1       1.947   0.830   4.110  0.00  0.00    -0.076 C 
ATOM      3  N   UNL     1       1.453   0.466   5.440  0.00  0.00    +0.383 N 
ATOM      4  C   UNL     1       2.448  -0.335   6.158  0.00  0.00    -0.078 C 
ATOM      5  C   UNL     1       3.732   0.475   6.351  0.00  0.00    -0.015 C 
ATOM      6  C   UNL     1       3.544   1.865   5.722  0.00  0.00    -0.015 C 
ATOM      7  C   UNL     1       2.347   2.544   6.401  0.00  0.00    -0.010 C 
ATOM      8  C   UNL     1       1.106   1.665   6.206  0.00  0.00    -0.051 C 
ATOM      9  H   UNL     1       0.622  -0.095   5.330  0.00  0.00    -0.081 HD
ENDROOT
BRANCH   1  10
ATOM     10  C   UNL     1       4.377   0.968   3.537  0.00  0.00    -0.077 C 
BRANCH  10  23
ATOM     11  C   UNL     1       0.031   1.304   0.006  0.00  0.00    +0.007 A 
ATOM     12  C   UNL     1       1.246   1.999   0.001  0.00  0.00    +0.022 A 
ATOM     13  C   UNL     1       2.426   1.326  -0.032  0.00  0.00    +0.023 A 
ATOM     14  N   UNL     1       2.446  -0.025  -0.116  0.00  0.00    -0.312 N 
ATOM     15  C   UNL     1       1.288  -0.724  -0.014  0.00  0.00    +0.251 A 
ATOM     16  O   UNL     1       1.321  -1.942   0.057  0.00  0.00    -0.268 OA
ATOM     17  C   UNL     1       0.053  -0.060   0.009  0.00  0.00    +0.070 A 
ATOM     18  C   UNL     1       3.664  -0.794  -0.371  0.00  0.00    +0.126 C 
ATOM     19  C   UNL     1       4.923  -0.003  -0.053  0.00  0.00    -0.007 C 
ATOM     20  C   UNL     1       4.819   1.389  -0.682  0.00  0.00    +0.011 C 
ATOM     21  C   UNL     1       3.698   2.140   0.046  0.00  0.00    +0.020 C 
ATOM     22  C   UNL     1       4.086   2.248   1.530  0.00  0.00    -0.069 C 
ATOM     23  N   UNL     1       4.110   0.891   2.095  0.00  0.00    +0.380 N 
ATOM     24  C   UNL     1       5.153   0.112   1.447  0.00  0.00    -0.074 C 
ATOM     25  H   UNL     1       3.215   0.449   1.944  0.00  0.00    -0.082 HD
ENDBRANCH  10  23
ENDBRANCH   1  10
BRANCH   8  26
ATOM     26  C   UNL     1       0.556   1.253   7.573  0.00  0.00    +0.090 C 
BRANCH  26  27
ATOM     27  N   UNL     1      -0.567   0.330   7.389  0.00  0.00    -0.301 N 
ATOM     28  C   UNL     1      -1.212  -0.169   8.462  0.00  0.00    +0.304 C 
ATOM     29  O   UNL     1      -0.862   0.147   9.583  0.00  0.00    -0.253 OA
ATOM     30  N   UNL     1      -2.245  -1.018   8.293  0.00  0.00    -0.269 N 
ATOM     31  H   UNL     1      -0.846   0.077   6.495  0.00  0.00    +0.150 HD
ATOM     32  H   UNL     1      -2.574  -1.210   7.401  0.00  0.00    +0.156 HD
BRANCH  30  33
ATOM     33  C   UNL     1      -2.845  -1.628   9.412  0.00  0.00    +0.042 A 
ATOM     34  C   UNL     1      -4.159  -2.065   9.355  0.00  0.00    +0.031 A 
ATOM     35  C   UNL     1      -4.705  -2.647  10.451  0.00  0.00    +0.047 A 
ATOM     36  S   UNL     1      -3.352  -2.594  11.614  0.00  0.00    -0.103 S 
ATOM     37  C   UNL     1      -2.145  -1.803  10.563  0.00  0.00    +0.068 A 
ENDBRANCH  30  33
ENDBRANCH  26  27
ENDBRANCH   8  26
TORSDOF 5
