REMARK  Name = ZINC12412632
REMARK  16 active torsions:
REMARK  status: ('A' for Active; 'I' for Inactive)
REMARK    1  A    between atoms: C_1  and  C_2
REMARK    2  A    between atoms: C_2  and  O_3
REMARK    3  A    between atoms: O_3  and  C_4
REMARK    4  A    between atoms: C_4  and  C_6
REMARK    5  A    between atoms: C_7  and  C_23
REMARK    6  A    between atoms: C_12  and  C_14
REMARK    7  A    between atoms: C_18  and  N_20
REMARK    8  A    between atoms: C_23  and  N_24
REMARK    9  A    between atoms: N_24  and  C_25
REMARK   10  A    between atoms: C_25  and  C_26
REMARK   11  A    between atoms: C_25  and  C_27
REMARK   12  A    between atoms: C_25  and  C_28
REMARK   13  A    between atoms: C_28  and  C_29
REMARK   14  A    between atoms: C_29  and  C_30
REMARK   15  A    between atoms: C_29  and  C_31
REMARK   16  A    between atoms: C_29  and  C_32
REMARK                            x       y       z     vdW  Elec       q    Type
REMARK                         _______ _______ _______ _____ _____    ______ ____
ROOT
ATOM      1  C   UNL     1      -3.401  -3.686   0.311  0.00  0.00    +0.076 C 
ATOM      2  C   UNL     1      -3.506  -5.027   0.193  0.00  0.00    +0.007 C 
ATOM      3  N   UNL     1      -4.672  -5.672   0.490  0.00  0.00    -0.274 N 
ATOM      4  C   UNL     1      -5.780  -5.047   0.910  0.00  0.00    +0.304 C 
ATOM      5  O   UNL     1      -6.772  -5.707   1.150  0.00  0.00    -0.252 OA
ATOM      6  N   UNL     1      -5.830  -3.711   1.077  0.00  0.00    -0.288 N 
ATOM      7  C   UNL     1      -4.620  -2.922   0.789  0.00  0.00    +0.143 C 
ATOM      8  H   UNL     1      -4.700  -6.636   0.390  0.00  0.00    +0.156 HD
ATOM      9  H   UNL     1      -6.643  -3.279   1.382  0.00  0.00    +0.151 HD
ENDROOT
BRANCH   7  10
ATOM     10  C   UNL     1      -4.974  -1.905  -0.265  0.00  0.00    -0.020 A 
ATOM     11  C   UNL     1      -5.681  -2.291  -1.388  0.00  0.00    +0.006 A 
ATOM     12  C   UNL     1      -6.006  -1.357  -2.355  0.00  0.00    +0.003 A 
ATOM     13  C   UNL     1      -5.623  -0.038  -2.198  0.00  0.00    +0.033 A 
ATOM     14  C   UNL     1      -4.917   0.348  -1.074  0.00  0.00    +0.127 A 
ATOM     15  C   UNL     1      -4.596  -0.585  -0.105  0.00  0.00    +0.038 A 
BRANCH  14  16
ATOM     16  N   UNL     1      -4.506   1.760  -0.907  0.00  0.00    +0.056 N 
ATOM     17  O   UNL     1      -4.789   2.576  -1.752  0.00  0.00    -0.126 OA
ATOM     18  O   UNL     1      -3.888   2.097   0.076  0.00  0.00    -0.126 OA
ENDBRANCH  14  16
ENDBRANCH   7  10
BRANCH   1  19
ATOM     19  C   UNL     1      -2.193  -3.016   0.005  0.00  0.00    +0.339 C 
ATOM     20  O   UNL     1      -1.472  -2.621   0.902  0.00  0.00    -0.245 OA
BRANCH  19  21
ATOM     21  O   UNL     1      -1.841  -2.816  -1.282  0.00  0.00    -0.462 OA
BRANCH  21  23
ATOM     22  C   UNL     1      -0.379  -2.000  -3.025  0.00  0.00    +0.048 C 
ATOM     23  C   UNL     1      -0.608  -2.133  -1.518  0.00  0.00    +0.229 C 
ENDBRANCH  21  23
ENDBRANCH  19  21
ENDBRANCH   1  19
BRANCH   2  24
ATOM     24  C   UNL     1      -2.316  -5.825  -0.274  0.00  0.00    -0.029 C 
BRANCH  24  25
ATOM     25  N   UNL     1      -1.765  -6.588   0.854  0.00  0.00    +0.386 N 
ATOM     26  H   UNL     1      -1.478  -5.952   1.583  0.00  0.00    -0.085 HD
ATOM     27  H   UNL     1      -2.470  -7.215   1.212  0.00  0.00    -0.085 HD
BRANCH  25  28
ATOM     28  C   UNL     1      -0.605  -7.366   0.399  0.00  0.00    -0.073 C 
ATOM     29  C   UNL     1      -0.990  -8.178  -0.839  0.00  0.00    -0.010 C 
ATOM     30  C   UNL     1       0.541  -6.415   0.049  0.00  0.00    -0.010 C 
BRANCH  28  31
ATOM     31  C   UNL     1      -0.158  -8.315   1.513  0.00  0.00    -0.007 C 
BRANCH  31  32
ATOM     32  C   UNL     1      -0.174  -7.573   2.851  0.00  0.00    -0.039 C 
ATOM     33  C   UNL     1      -1.618  -7.426   3.335  0.00  0.00    +0.010 C 
ATOM     34  C   UNL     1       0.631  -8.366   3.883  0.00  0.00    +0.010 C 
ATOM     35  C   UNL     1       0.448  -6.187   2.674  0.00  0.00    +0.010 C 
ENDBRANCH  31  32
ENDBRANCH  28  31
ENDBRANCH  25  28
ENDBRANCH  24  25
ENDBRANCH   2  24
TORSDOF 10
