REMARK  Name = ZINC44253672
REMARK  7 active torsions:
REMARK  status: ('A' for Active; 'I' for Inactive)
REMARK    1  A    between atoms: C_4  and  C_7
REMARK    2  A    between atoms: C_7  and  O_9
REMARK    3  A    between atoms: O_9  and  C_10
REMARK    4  A    between atoms: C_11  and  C_18
REMARK    5  A    between atoms: C_18  and  C_20
REMARK    6  A    between atoms: C_18  and  N_24
REMARK    7  A    between atoms: C_20  and  C_21
REMARK                            x       y       z     vdW  Elec       q    Type
REMARK                         _______ _______ _______ _____ _____    ______ ____
ROOT
ATOM      1  C   UNL     1       4.927  -2.649  -0.061  0.00  0.00    +0.152 A 
ATOM      2  C   UNL     1       5.536  -2.954  -1.270  0.00  0.00    -0.016 A 
ATOM      3  C   UNL     1       6.766  -3.582  -1.284  0.00  0.00    +0.025 A 
ATOM      4  C   UNL     1       7.391  -3.908  -0.094  0.00  0.00    +0.043 A 
ATOM      5  C   UNL     1       6.787  -3.606   1.113  0.00  0.00    +0.043 A 
ATOM      6  C   UNL     1       5.558  -2.972   1.132  0.00  0.00    +0.085 A 
ATOM      7 CL   UNL     1       4.803  -2.587   2.647  0.00  0.00    -0.080 Cl
ATOM      8 CL   UNL     1       8.937  -4.699  -0.115  0.00  0.00    -0.083 Cl
ENDROOT
BRANCH   1   9
ATOM      9  O   UNL     1       3.716  -2.031  -0.046  0.00  0.00    -0.421 OA
BRANCH   9  10
ATOM     10  C   UNL     1       3.695  -0.684  -0.038  0.00  0.00    +0.344 C 
ATOM     11  O   UNL     1       4.737  -0.059  -0.046  0.00  0.00    -0.245 OA
BRANCH  10  15
ATOM     12  C   UNL     1      -0.017   1.379   0.010  0.00  0.00    +0.000 A 
ATOM     13  C   UNL     1       1.168   2.094   0.002  0.00  0.00    +0.001 A 
ATOM     14  C   UNL     1       2.377   1.430  -0.013  0.00  0.00    +0.015 A 
ATOM     15  C   UNL     1       2.404   0.034  -0.021  0.00  0.00    +0.059 A 
ATOM     16  C   UNL     1       1.204  -0.681  -0.013  0.00  0.00    +0.015 A 
ATOM     17  C   UNL     1       0.002  -0.004   0.002  0.00  0.00    +0.001 A 
ENDBRANCH  10  15
ENDBRANCH   9  10
ENDBRANCH   1   9
BRANCH   2  18
ATOM     18  C   UNL     1       4.855  -2.600  -2.567  0.00  0.00    -0.032 C 
BRANCH  18  19
ATOM     19  N   UNL     1       5.848  -2.569  -3.649  0.00  0.00    +0.383 N 
ATOM     20  H   UNL     1       5.393  -2.333  -4.518  0.00  0.00    -0.089 HD
ATOM     21  H   UNL     1       6.553  -1.878  -3.439  0.00  0.00    -0.089 HD
ATOM     22  H   UNL     1       6.282  -3.477  -3.733  0.00  0.00    -0.089 HD
ENDBRANCH  18  19
BRANCH  18  23
ATOM     23  C   UNL     1       3.787  -3.648  -2.885  0.00  0.00    +0.084 C 
BRANCH  23  24
ATOM     24  C   UNL     1       3.023  -3.230  -4.115  0.00  0.00    +0.209 C 
ATOM     25  O   UNL     1       3.306  -2.196  -4.682  0.00  0.00    -0.276 OA
ATOM     26  N   UNL     1       2.027  -4.006  -4.586  0.00  0.00    -0.329 N 
ATOM     27  H   UNL     1       1.801  -4.833  -4.133  0.00  0.00    +0.145 HD
ATOM     28  H   UNL     1       1.535  -3.737  -5.378  0.00  0.00    +0.145 HD
ENDBRANCH  23  24
ENDBRANCH  18  23
ENDBRANCH   2  18
TORSDOF 7
