REMARK  Name = ZINC39856033
REMARK  8 active torsions:
REMARK  status: ('A' for Active; 'I' for Inactive)
REMARK    1  A    between atoms: C_1  and  C_2
REMARK    2  A    between atoms: C_6  and  C_7
REMARK    3  A    between atoms: N_9  and  N_10
REMARK    4  A    between atoms: C_11  and  C_13
REMARK    5  A    between atoms: C_16  and  N_19
REMARK    6  A    between atoms: C_23  and  C_31
REMARK    7  A    between atoms: C_23  and  C_32
REMARK    8  A    between atoms: N_26  and  N_27
REMARK                            x       y       z     vdW  Elec       q    Type
REMARK                         _______ _______ _______ _____ _____    ______ ____
ROOT
ATOM      1  C   UNL     1      -0.018   1.503   0.010  0.00  0.00    +0.048 C 
ATOM      2  C   UNL     1       0.002  -0.004   0.002  0.00  0.00    +0.009 A 
ATOM      3  C   UNL     1       0.008  -0.838  -1.123  0.00  0.00    +0.043 A 
ATOM      4  C   UNL     1       0.026  -2.137  -0.673  0.00  0.00    +0.116 A 
ATOM      5  O   UNL     1       0.034  -2.112   0.658  0.00  0.00    -0.454 OA
ATOM      6  C   UNL     1       0.024  -0.830   1.091  0.00  0.00    +0.194 A 
ATOM      7  C   UNL     1       0.032  -3.326  -1.600  0.00  0.00    +0.081 C 
ATOM      8  C   UNL     1      -0.492  -2.902  -2.974  0.00  0.00    -0.023 C 
ATOM      9  C   UNL     1       0.279  -1.685  -3.495  0.00  0.00    +0.064 C 
ATOM     10  C   UNL     1       0.001  -0.512  -2.566  0.00  0.00    +0.073 C 
ATOM     11  N   UNL     1      -0.227   0.686  -3.008  0.00  0.00    -0.175 NA
ATOM     12  C   UNL     1      -0.326  -4.063  -3.957  0.00  0.00    +0.011 C 
ATOM     13  C   UNL     1      -1.976  -2.548  -2.860  0.00  0.00    +0.011 C 
ENDROOT
BRANCH  11  14
ATOM     14  N   UNL     1      -0.222   0.938  -4.386  0.00  0.00    -0.248 N 
ATOM     15  C   UNL     1      -0.462   2.203  -4.852  0.00  0.00    +0.187 C 
ATOM     16  N   UNL     1      -0.457   2.442  -6.163  0.00  0.00    -0.370 N 
ATOM     17  N   UNL     1      -0.701   3.195  -3.994  0.00  0.00    -0.370 N 
ATOM     18  H   UNL     1      -0.048   0.216  -5.010  0.00  0.00    +0.192 HD
ATOM     19  H   UNL     1      -0.283   1.720  -6.787  0.00  0.00    +0.159 HD
ATOM     20  H   UNL     1      -0.704   3.020  -3.040  0.00  0.00    +0.159 HD
ATOM     21  H   UNL     1      -0.871   4.091  -4.324  0.00  0.00    +0.159 HD
ATOM     22  H   UNL     1      -0.627   3.338  -6.493  0.00  0.00    +0.159 HD
ENDBRANCH  11  14
BRANCH   6  23
ATOM     23  C   UNL     1       0.032  -0.400   2.494  0.00  0.00    +0.296 C 
ATOM     24  O   UNL     1       0.018   0.786   2.766  0.00  0.00    -0.265 OA
ATOM     25  N   UNL     1       0.054  -1.317   3.480  0.00  0.00    -0.228 N 
ATOM     26  H   UNL     1       0.065  -2.263   3.263  0.00  0.00    +0.173 HD
BRANCH  25  27
ATOM     27  N   UNL     1       0.061  -0.906   4.819  0.00  0.00    -0.230 N 
ATOM     28  C   UNL     1       0.084  -1.824   5.806  0.00  0.00    +0.260 C 
ATOM     29  O   UNL     1       0.097  -3.009   5.534  0.00  0.00    -0.269 OA
ATOM     30  H   UNL     1       0.050   0.039   5.037  0.00  0.00    +0.173 HD
BRANCH  28  31
ATOM     31  C   UNL     1       0.091  -1.390   7.220  0.00  0.00    +0.038 A 
ATOM     32  C   UNL     1       0.070  -0.030   7.535  0.00  0.00    +0.015 A 
ATOM     33  C   UNL     1       0.077   0.368   8.856  0.00  0.00    +0.033 A 
ATOM     34  C   UNL     1       0.106  -0.577   9.867  0.00  0.00    +0.126 A 
ATOM     35  C   UNL     1       0.127  -1.926   9.560  0.00  0.00    +0.033 A 
ATOM     36  C   UNL     1       0.114  -2.338   8.244  0.00  0.00    +0.015 A 
BRANCH  34  37
ATOM     37  N   UNL     1       0.114  -0.142  11.281  0.00  0.00    +0.056 N 
ATOM     38  O   UNL     1       0.096   1.036  11.552  0.00  0.00    -0.126 OA
ATOM     39  O   UNL     1       0.139  -0.966  12.167  0.00  0.00    -0.126 OA
ENDBRANCH  34  37
ENDBRANCH  28  31
ENDBRANCH  25  27
ENDBRANCH   6  23
TORSDOF 5
