REMARK  Name = ZINC12593869
REMARK  9 active torsions:
REMARK  status: ('A' for Active; 'I' for Inactive)
REMARK    1  A    between atoms: C_4  and  O_26
REMARK    2  A    between atoms: C_5  and  C_7
REMARK    3  A    between atoms: C_7  and  N_65
REMARK    4  A    between atoms: C_8  and  C_9
REMARK    5  A    between atoms: C_8  and  N_65
REMARK    6  A    between atoms: C_14  and  N_67
REMARK    7  A    between atoms: C_19  and  C_20
REMARK    8  A    between atoms: C_19  and  N_65
REMARK    9  A    between atoms: O_26  and  C_27
REMARK                            x       y       z     vdW  Elec       q    Type
REMARK                         _______ _______ _______ _____ _____    ______ ____
ROOT
ATOM      1  N   UNL     1      -1.549  -2.130   0.190  0.00  0.00    +0.384 N 
ATOM      2  H   UNL     1      -0.821  -2.651  -0.313  0.00  0.00    -0.081 HD
ENDROOT
BRANCH   1   3
ATOM      3  C   UNL     1      -2.847  -2.345  -0.484  0.00  0.00    -0.039 C 
BRANCH   3   8
ATOM      4  C   UNL     1      -2.882  -1.042  -4.027  0.00  0.00    +0.000 A 
ATOM      5  C   UNL     1      -2.258  -2.070  -4.710  0.00  0.00    +0.004 A 
ATOM      6  C   UNL     1      -1.823  -3.189  -4.027  0.00  0.00    +0.046 A 
ATOM      7  C   UNL     1      -2.008  -3.279  -2.655  0.00  0.00    +0.128 A 
ATOM      8  C   UNL     1      -2.639  -2.249  -1.973  0.00  0.00    -0.022 A 
ATOM      9  C   UNL     1      -3.072  -1.131  -2.661  0.00  0.00    +0.005 A 
BRANCH   7  10
ATOM     10  O   UNL     1      -1.577  -4.377  -1.980  0.00  0.00    -0.434 OA
BRANCH  10  11
ATOM     11  C   UNL     1      -0.929  -5.396  -2.745  0.00  0.00    +0.541 C 
ATOM     12  F   UNL     1      -1.827  -5.918  -3.681  0.00  0.00    -0.166 F 
ATOM     13  F   UNL     1       0.173  -4.849  -3.411  0.00  0.00    -0.166 F 
ENDBRANCH  10  11
ENDBRANCH   7  10
ENDBRANCH   3   8
ENDBRANCH   1   3
BRANCH   1  14
ATOM     14  C   UNL     1      -1.206  -0.692   0.178  0.00  0.00    -0.075 C 
BRANCH  14  15
ATOM     15  C   UNL     1       0.231  -0.523   0.676  0.00  0.00    -0.031 C 
ATOM     16  C   UNL     1       0.569   0.967   0.768  0.00  0.00    -0.017 C 
ATOM     17  C   UNL     1       2.026   1.129   1.208  0.00  0.00    -0.078 C 
ATOM     18  C   UNL     1       2.633  -0.974   0.167  0.00  0.00    -0.078 C 
ATOM     19  C   UNL     1       1.195  -1.198  -0.304  0.00  0.00    -0.017 C 
ATOM     20  N   UNL     1       2.903   0.480   0.210  0.00  0.00    +0.382 N 
ATOM     21  H   UNL     1       2.710   0.882  -0.714  0.00  0.00    -0.081 HD
BRANCH  20  22
ATOM     22  C   UNL     1       4.320   0.720   0.552  0.00  0.00    -0.069 C 
ATOM     23  C   UNL     1       4.661   0.150   1.944  0.00  0.00    -0.015 C 
ATOM     24  C   UNL     1       5.649   1.181   2.546  0.00  0.00    -0.002 C 
ATOM     25  C   UNL     1       5.074   2.532   2.053  0.00  0.00    -0.002 C 
ATOM     26  C   UNL     1       4.582   2.234   0.621  0.00  0.00    -0.015 C 
ENDBRANCH  20  22
ENDBRANCH  14  15
ENDBRANCH   1  14
BRANCH   1  27
ATOM     27  C   UNL     1      -1.615  -2.622   1.582  0.00  0.00    -0.046 C 
BRANCH  27  28
ATOM     28  C   UNL     1      -1.593  -4.152   1.564  0.00  0.00    +0.102 C 
ATOM     29  C   UNL     1      -1.662  -4.708   3.004  0.00  0.00    +0.032 C 
ATOM     30  C   UNL     1      -0.736  -5.944   2.974  0.00  0.00    +0.030 C 
ATOM     31  C   UNL     1      -0.216  -5.989   1.520  0.00  0.00    +0.160 C 
ATOM     32  O   UNL     1      -0.334  -4.630   1.042  0.00  0.00    -0.378 OA
ENDBRANCH  27  28
ENDBRANCH   1  27
TORSDOF 9
