REMARK  Name = ZINC01462509
REMARK  2 active torsions:
REMARK  status: ('A' for Active; 'I' for Inactive)
REMARK    1  A    between atoms: C_3  and  C_14
REMARK    2  A    between atoms: C_5  and  C_7
REMARK                            x       y       z     vdW  Elec       q    Type
REMARK                         _______ _______ _______ _____ _____    ______ ____
ROOT
ATOM      1  C   UNL     1      -1.089   1.294  -0.492  0.00  0.00    +0.009 C 
ATOM      2  C   UNL     1      -0.562   0.126  -0.219  0.00  0.00    -0.051 C 
ATOM      3  C   UNL     1      -0.730  -1.357  -0.011  0.00  0.00    +0.117 C 
ATOM      4  C   UNL     1       0.650  -0.706   0.110  0.00  0.00    +0.117 C 
ENDROOT
BRANCH   4   5
ATOM      5  C   UNL     1       1.241  -0.564   1.489  0.00  0.00    +0.224 C 
ATOM      6  O   UNL     1       0.710   0.161   2.304  0.00  0.00    -0.275 OA
ATOM      7  N   UNL     1       2.359  -1.241   1.816  0.00  0.00    -0.301 N 
ATOM      8  C   UNL     1       3.105  -2.143   0.927  0.00  0.00    +0.108 C 
ATOM      9  C   UNL     1       4.292  -2.707   1.738  0.00  0.00    +0.020 C 
ATOM     10  C   UNL     1       3.824  -2.530   3.206  0.00  0.00    +0.020 C 
ATOM     11  C   UNL     1       3.041  -1.194   3.122  0.00  0.00    +0.108 C 
ENDBRANCH   4   5
BRANCH   3  12
ATOM     12  C   UNL     1      -1.407  -1.811   1.256  0.00  0.00    +0.224 C 
ATOM     13  O   UNL     1      -0.742  -2.192   2.196  0.00  0.00    -0.275 OA
ATOM     14  N   UNL     1      -2.752  -1.794   1.345  0.00  0.00    -0.301 N 
ATOM     15  C   UNL     1      -3.675  -1.366   0.284  0.00  0.00    +0.108 C 
ATOM     16  C   UNL     1      -5.107  -1.493   0.844  0.00  0.00    +0.020 C 
ATOM     17  C   UNL     1      -4.886  -1.449   2.379  0.00  0.00    +0.020 C 
ATOM     18  C   UNL     1      -3.541  -2.209   2.519  0.00  0.00    +0.108 C 
ENDBRANCH   3  12
TORSDOF 2
