REMARK  Name = ZINC28351750
REMARK  9 active torsions:
REMARK  status: ('A' for Active; 'I' for Inactive)
REMARK    1  A    between atoms: C_1  and  C_2
REMARK    2  A    between atoms: C_2  and  C_3
REMARK    3  A    between atoms: C_3  and  C_27
REMARK    4  A    between atoms: N_4  and  N_5
REMARK    5  A    between atoms: C_6  and  C_8
REMARK    6  A    between atoms: C_8  and  S_9
REMARK    7  A    between atoms: S_9  and  C_10
REMARK    8  A    between atoms: N_20  and  C_21
REMARK    9  A    between atoms: C_30  and  O_33
REMARK                            x       y       z     vdW  Elec       q    Type
REMARK                         _______ _______ _______ _____ _____    ______ ____
ROOT
ATOM      1  S   UNL     1      -4.125   1.980  -1.096  0.00  0.00    -0.078 S 
ENDROOT
BRANCH   1   2
ATOM      2  C   UNL     1      -5.330   0.858  -0.467  0.00  0.00    +0.177 A 
ATOM      3  N   UNL     1      -5.071  -0.426  -0.512  0.00  0.00    -0.223 NA
ATOM      4  C   UNL     1      -5.950  -1.341  -0.041  0.00  0.00    +0.079 A 
ATOM      5  C   UNL     1      -5.675  -2.711  -0.083  0.00  0.00    +0.028 A 
ATOM      6  C   UNL     1      -6.593  -3.600   0.399  0.00  0.00    +0.002 A 
ATOM      7  C   UNL     1      -7.800  -3.164   0.931  0.00  0.00    +0.001 A 
ATOM      8  C   UNL     1      -8.098  -1.831   0.986  0.00  0.00    +0.015 A 
ATOM      9  C   UNL     1      -7.179  -0.900   0.501  0.00  0.00    +0.065 A 
ATOM     10  C   UNL     1      -7.446   0.543   0.534  0.00  0.00    +0.267 A 
ATOM     11  O   UNL     1      -8.486   0.983   0.988  0.00  0.00    -0.267 OA
ATOM     12  N   UNL     1      -6.493   1.368   0.040  0.00  0.00    -0.255 N 
BRANCH  12  13
ATOM     13  C   UNL     1      -6.699   2.753   0.049  0.00  0.00    +0.052 A 
ATOM     14  C   UNL     1      -6.300   3.509   1.143  0.00  0.00    +0.026 A 
ATOM     15  C   UNL     1      -6.500   4.876   1.147  0.00  0.00    +0.002 A 
ATOM     16  C   UNL     1      -7.107   5.490   0.067  0.00  0.00    +0.000 A 
ATOM     17  C   UNL     1      -7.511   4.739  -1.022  0.00  0.00    +0.002 A 
ATOM     18  C   UNL     1      -7.309   3.373  -1.033  0.00  0.00    +0.026 A 
ENDBRANCH  12  13
ENDBRANCH   1   2
BRANCH   1  19
ATOM     19  C   UNL     1      -2.846   0.809  -1.615  0.00  0.00    +0.174 C 
BRANCH  19  21
ATOM     20  N   UNL     1      -0.606   0.895  -2.660  0.00  0.00    -0.206 N 
ATOM     21  C   UNL     1      -1.682   1.565  -2.203  0.00  0.00    +0.242 C 
ATOM     22  O   UNL     1      -1.714   2.776  -2.264  0.00  0.00    -0.273 OA
ATOM     23  H   UNL     1      -0.575  -0.203  -2.600  0.00  0.00    +0.177 HD
BRANCH  20  25
ATOM     24  C   UNL     1       1.509   0.951  -3.656  0.00  0.00    +0.066 C 
ATOM     25  N   UNL     1       0.474   1.597  -3.211  0.00  0.00    -0.184 NA
BRANCH  24  26
ATOM     26  C   UNL     1       2.645   1.690  -4.236  0.00  0.00    -0.002 A 
ATOM     27  C   UNL     1       3.762   0.998  -4.711  0.00  0.00    +0.013 A 
ATOM     28  C   UNL     1       4.820   1.692  -5.257  0.00  0.00    +0.046 A 
ATOM     29  C   UNL     1       4.781   3.079  -5.326  0.00  0.00    +0.117 A 
ATOM     30  C   UNL     1       3.675   3.771  -4.851  0.00  0.00    +0.046 A 
ATOM     31  C   UNL     1       2.611   3.085  -4.308  0.00  0.00    +0.013 A 
BRANCH  29  32
ATOM     32  O   UNL     1       5.828   3.759  -5.861  0.00  0.00    -0.507 OA
ATOM     33  H   UNL     1       5.799   4.857  -5.917  0.00  0.00    +0.292 HD
ENDBRANCH  29  32
ENDBRANCH  24  26
BRANCH  24  35
ATOM     34  C   UNL     1       0.950  -1.145  -4.857  0.00  0.00    +0.010 C 
ATOM     35  C   UNL     1       1.548  -0.553  -3.580  0.00  0.00    +0.054 C 
ENDBRANCH  24  35
ENDBRANCH  20  25
ENDBRANCH  19  21
ENDBRANCH   1  19
TORSDOF 8
