REMARK  Name = ZINC03683983
REMARK  11 active torsions:
REMARK  status: ('A' for Active; 'I' for Inactive)
REMARK    1  A    between atoms: C_4  and  C_7
REMARK    2  A    between atoms: C_7  and  N_57
REMARK    3  A    between atoms: C_8  and  C_9
REMARK    4  A    between atoms: C_8  and  N_57
REMARK    5  A    between atoms: C_15  and  C_16
REMARK    6  A    between atoms: C_15  and  C_18
REMARK    7  A    between atoms: C_15  and  C_20
REMARK    8  A    between atoms: C_15  and  N_57
REMARK    9  A    between atoms: C_16  and  O_17
REMARK   10  A    between atoms: C_18  and  O_19
REMARK   11  A    between atoms: C_20  and  O_21
REMARK                            x       y       z     vdW  Elec       q    Type
REMARK                         _______ _______ _______ _____ _____    ______ ____
ROOT
ATOM      1  N   UNL     1      -0.797   1.340   0.547  0.00  0.00    +0.388 N 
ATOM      2  H   UNL     1      -1.621   1.060   0.001  0.00  0.00    -0.081 HD
ENDROOT
BRANCH   1   3
ATOM      3  C   UNL     1       0.378   1.387  -0.348  0.00  0.00    -0.074 C 
BRANCH   3   7
ATOM      4  C   UNL     1      -0.257   1.417  -4.628  0.00  0.00    +0.000 C 
ATOM      5  C   UNL     1       0.676   2.472  -4.030  0.00  0.00    +0.000 C 
ATOM      6  C   UNL     1       1.136   2.018  -2.643  0.00  0.00    +0.002 C 
ATOM      7  C   UNL     1      -0.082   1.840  -1.735  0.00  0.00    -0.028 C 
ATOM      8  C   UNL     1      -1.015   0.786  -2.333  0.00  0.00    +0.002 C 
ATOM      9  C   UNL     1      -1.475   1.240  -3.720  0.00  0.00    +0.000 C 
ENDBRANCH   3   7
ENDBRANCH   1   3
BRANCH   1  10
ATOM     10  C   UNL     1      -0.575   0.351   1.623  0.00  0.00    -0.074 C 
BRANCH  10  11
ATOM     11  C   UNL     1      -0.787  -1.052   1.051  0.00  0.00    -0.028 C 
ATOM     12  C   UNL     1      -2.251  -1.217   0.637  0.00  0.00    +0.002 C 
ATOM     13  C   UNL     1      -2.464  -2.620   0.065  0.00  0.00    +0.000 C 
ATOM     14  C   UNL     1      -2.113  -3.663   1.129  0.00  0.00    +0.000 C 
ATOM     15  C   UNL     1      -0.650  -3.497   1.543  0.00  0.00    +0.000 C 
ATOM     16  C   UNL     1      -0.437  -2.094   2.114  0.00  0.00    +0.002 C 
ENDBRANCH  10  11
ENDBRANCH   1  10
BRANCH   1  17
ATOM     17  C   UNL     1      -1.041   2.676   1.131  0.00  0.00    +0.005 C 
BRANCH  17  18
ATOM     18  C   UNL     1      -1.478   3.630   0.017  0.00  0.00    +0.148 C 
BRANCH  18  19
ATOM     19  O   UNL     1      -2.621   3.091  -0.650  0.00  0.00    -0.396 OA
ATOM     20  H   UNL     1      -2.908   3.606  -1.416  0.00  0.00    +0.209 HD
ENDBRANCH  18  19
ENDBRANCH  17  18
BRANCH  17  21
ATOM     21  C   UNL     1      -2.153   2.569   2.176  0.00  0.00    +0.148 C 
BRANCH  21  22
ATOM     22  O   UNL     1      -2.496   3.876   2.642  0.00  0.00    -0.396 OA
ATOM     23  H   UNL     1      -3.196   3.885   3.309  0.00  0.00    +0.209 HD
ENDBRANCH  21  22
ENDBRANCH  17  21
BRANCH  17  24
ATOM     24  C   UNL     1       0.230   3.212   1.792  0.00  0.00    +0.148 C 
BRANCH  24  25
ATOM     25  O   UNL     1       0.635   2.325   2.837  0.00  0.00    -0.396 OA
ATOM     26  H   UNL     1       1.391   2.640   3.350  0.00  0.00    +0.209 HD
ENDBRANCH  24  25
ENDBRANCH  17  24
ENDBRANCH   1  17
TORSDOF 11
