REMARK  Name = ZINC23505873
REMARK  10 active torsions:
REMARK  status: ('A' for Active; 'I' for Inactive)
REMARK    1  A    between atoms: C_2  and  C_3
REMARK    2  A    between atoms: C_3  and  N_4
REMARK    3  A    between atoms: N_4  and  C_5
REMARK    4  A    between atoms: N_4  and  C_13
REMARK    5  A    between atoms: C_5  and  C_6
REMARK    6  A    between atoms: C_13  and  C_14
REMARK    7  A    between atoms: C_18  and  C_20
REMARK    8  A    between atoms: C_25  and  C_27
REMARK    9  A    between atoms: C_27  and  C_28
REMARK   10  A    between atoms: C_28  and  N_29
REMARK                            x       y       z     vdW  Elec       q    Type
REMARK                         _______ _______ _______ _____ _____    ______ ____
ROOT
ATOM      1  C   UNL     1       4.607   0.762  -0.456  0.00  0.00    -0.063 A 
ATOM      2  C   UNL     1       4.587  -0.608  -0.645  0.00  0.00    +0.002 A 
ATOM      3  C   UNL     1       3.391  -1.263  -0.881  0.00  0.00    +0.001 A 
ATOM      4  C   UNL     1       2.210  -0.551  -0.929  0.00  0.00    +0.011 A 
ATOM      5  C   UNL     1       2.223   0.832  -0.739  0.00  0.00    +0.019 A 
ATOM      6  C   UNL     1       3.435   1.486  -0.507  0.00  0.00    +0.013 A 
ENDROOT
BRANCH   5   7
ATOM      7  C   UNL     1       0.962   1.600  -0.789  0.00  0.00    +0.164 A 
ATOM      8  N   UNL     1      -0.211   0.947  -1.022  0.00  0.00    -0.189 NA
ATOM      9  C   UNL     1      -1.366   1.644  -1.075  0.00  0.00    +0.274 A 
ATOM     10  O   UNL     1      -2.425   1.077  -1.288  0.00  0.00    -0.266 OA
ATOM     11  C   UNL     1      -1.325   3.038  -0.876  0.00  0.00    +0.095 A 
ATOM     12  C   UNL     1      -0.120   3.635  -0.646  0.00  0.00    +0.047 A 
ATOM     13  N   UNL     1       0.992   2.904  -0.608  0.00  0.00    -0.232 NA
BRANCH  12  14
ATOM     14  C   UNL     1      -0.048   5.125  -0.434  0.00  0.00    +0.036 C 
BRANCH  14  15
ATOM     15  C   UNL     1      -0.073   5.430   1.065  0.00  0.00    -0.080 C 
BRANCH  15  16
ATOM     16  N   UNL     1      -0.003   6.882   1.271  0.00  0.00    +0.378 N 
ATOM     17  H   UNL     1      -0.021   7.101   2.349  0.00  0.00    -0.090 HD
ATOM     18  H   UNL     1      -0.864   7.364   0.784  0.00  0.00    -0.090 HD
ATOM     19  H   UNL     1       0.929   7.270   0.833  0.00  0.00    -0.090 HD
ENDBRANCH  15  16
ENDBRANCH  14  15
ENDBRANCH  12  14
ENDBRANCH   5   7
BRANCH   1  20
ATOM     20  C   UNL     1       5.915   1.466  -0.199  0.00  0.00    -0.042 C 
BRANCH  20  21
ATOM     21  N   UNL     1       6.507   1.881  -1.478  0.00  0.00    +0.387 N 
ATOM     22  H   UNL     1       6.540   1.000  -2.136  0.00  0.00    -0.080 HD
BRANCH  21  23
ATOM     23  C   UNL     1       5.682   2.904  -2.133  0.00  0.00    -0.051 C 
BRANCH  23  25
ATOM     24  C   UNL     1       5.200   2.882  -4.527  0.00  0.00    +0.002 C 
ATOM     25  C   UNL     1       6.091   3.030  -3.578  0.00  0.00    -0.053 C 
ENDBRANCH  23  25
ENDBRANCH  21  23
BRANCH  21  26
ATOM     26  C   UNL     1       7.885   2.355  -1.291  0.00  0.00    -0.042 C 
BRANCH  26  27
ATOM     27  C   UNL     1       8.798   1.175  -1.079  0.00  0.00    -0.064 A 
ATOM     28  C   UNL     1       9.126   0.777   0.203  0.00  0.00    +0.004 A 
ATOM     29  C   UNL     1       9.960  -0.308   0.398  0.00  0.00    +0.038 A 
ATOM     30  C   UNL     1      10.476  -0.989  -0.692  0.00  0.00    +0.123 A 
ATOM     31  C   UNL     1      10.151  -0.586  -1.976  0.00  0.00    +0.038 A 
ATOM     32  C   UNL     1       9.312   0.496  -2.168  0.00  0.00    +0.004 A 
ATOM     33  F   UNL     1      11.295  -2.046  -0.502  0.00  0.00    -0.205 F 
ENDBRANCH  26  27
ENDBRANCH  21  26
ENDBRANCH  20  21
ENDBRANCH   1  20
TORSDOF 10
