REMARK  Name = ZINC50998137
REMARK  12 active torsions:
REMARK  status: ('A' for Active; 'I' for Inactive)
REMARK    1  A    between atoms: C_1  and  C_2
REMARK    2  A    between atoms: C_2  and  C_3
REMARK    3  A    between atoms: C_3  and  N_4
REMARK    4  A    between atoms: C_5  and  C_7
REMARK    5  A    between atoms: N_11  and  C_13
REMARK    6  A    between atoms: C_13  and  C_14
REMARK    7  A    between atoms: C_14  and  C_16
REMARK    8  A    between atoms: C_17  and  N_29
REMARK    9  A    between atoms: N_18  and  C_25
REMARK   10  A    between atoms: C_25  and  C_26
REMARK   11  A    between atoms: C_26  and  C_27
REMARK   12  A    between atoms: C_26  and  C_28
REMARK                            x       y       z     vdW  Elec       q    Type
REMARK                         _______ _______ _______ _____ _____    ______ ____
ROOT
ATOM      1  C   UNL     1       2.511  -8.142   4.764  0.00  0.00    +0.185 C 
ATOM      2  O   UNL     1       1.952  -8.712   3.849  0.00  0.00    -0.290 OA
ENDROOT
BRANCH   1   3
ATOM      3  C   UNL     1       3.000  -8.881   5.862  0.00  0.00    +0.121 A 
ATOM      4  C   UNL     1       2.746 -10.258   5.980  0.00  0.00    +0.116 A 
ATOM      5  N   UNL     1       3.241 -10.931   7.061  0.00  0.00    -0.281 N 
ATOM      6  C   UNL     1       3.961 -10.303   8.004  0.00  0.00    +0.331 A 
ATOM      7  O   UNL     1       4.380 -10.947   8.946  0.00  0.00    -0.246 OA
ATOM      8  N   UNL     1       4.236  -8.990   7.944  0.00  0.00    -0.274 N 
ATOM      9  H   UNL     1       4.760  -8.578   8.649  0.00  0.00    +0.173 HD
ATOM     10  C   UNL     1       3.797  -8.237   6.914  0.00  0.00    +0.266 A 
ATOM     11  O   UNL     1       4.053  -7.048   6.860  0.00  0.00    -0.267 OA
BRANCH   4  12
ATOM     12  N   UNL     1       2.017 -10.911   5.034  0.00  0.00    -0.344 N 
ATOM     13  H   UNL     1       1.740 -10.445   4.229  0.00  0.00    +0.144 HD
ATOM     14  H   UNL     1       1.775 -11.841   5.165  0.00  0.00    +0.144 HD
ENDBRANCH   4  12
BRANCH   5  15
ATOM     15  C   UNL     1       2.982 -12.367   7.193  0.00  0.00    +0.131 C 
BRANCH  15  16
ATOM     16  C   UNL     1       4.100 -13.153   6.506  0.00  0.00    +0.003 C 
ATOM     17  C   UNL     1       3.896 -14.649   6.751  0.00  0.00    +0.009 C 
ATOM     18  C   UNL     1       4.071 -12.873   5.003  0.00  0.00    +0.009 C 
ENDBRANCH  15  16
ENDBRANCH   5  15
ENDBRANCH   1   3
BRANCH   1  19
ATOM     19  C   UNL     1       2.681  -6.645   4.728  0.00  0.00    +0.164 C 
BRANCH  19  24
ATOM     20  C   UNL     1       1.270  -4.141   2.294  0.00  0.00    +0.089 C 
ATOM     21  C   UNL     1       2.005  -4.603   1.032  0.00  0.00    +0.015 C 
ATOM     22  C   UNL     1       2.109  -6.130   1.041  0.00  0.00    +0.016 C 
ATOM     23  C   UNL     1       2.834  -6.580   2.312  0.00  0.00    +0.085 C 
ATOM     24  N   UNL     1       2.091  -6.115   3.491  0.00  0.00    -0.294 NA
ATOM     25  C   UNL     1       2.019  -4.648   3.529  0.00  0.00    +0.097 C 
BRANCH  20  27
ATOM     26  N   UNL     1       0.600  -1.965   1.328  0.00  0.00    -0.315 N 
ATOM     27  C   UNL     1       1.215  -2.636   2.322  0.00  0.00    +0.217 C 
ATOM     28  O   UNL     1       1.725  -2.027   3.239  0.00  0.00    -0.275 OA
ATOM     29  H   UNL     1       0.192  -2.452   0.595  0.00  0.00    +0.149 HD
BRANCH  26  30
ATOM     30  C   UNL     1       0.546  -0.501   1.355  0.00  0.00    +0.104 C 
BRANCH  30  32
ATOM     31  C   UNL     1      -0.258   1.534   0.150  0.00  0.00    +0.005 C 
ATOM     32  C   UNL     1      -0.202   0.005   0.121  0.00  0.00    +0.015 C 
ENDBRANCH  30  32
ENDBRANCH  26  30
ENDBRANCH  20  27
ENDBRANCH  19  24
ENDBRANCH   1  19
TORSDOF 9
