REMARK  Name = ZINC36660414
REMARK  13 active torsions:
REMARK  status: ('A' for Active; 'I' for Inactive)
REMARK    1  A    between atoms: C_1  and  C_2
REMARK    2  A    between atoms: C_2  and  C_3
REMARK    3  A    between atoms: N_12  and  C_13
REMARK    4  A    between atoms: C_13  and  C_14
REMARK    5  A    between atoms: C_14  and  C_15
REMARK    6  A    between atoms: C_15  and  N_16
REMARK    7  A    between atoms: N_16  and  C_17
REMARK    8  A    between atoms: N_16  and  C_18
REMARK    9  A    between atoms: C_19  and  C_21
REMARK   10  A    between atoms: N_26  and  S_27
REMARK   11  A    between atoms: S_27  and  C_30
REMARK   12  A    between atoms: C_33  and  O_36
REMARK   13  A    between atoms: O_36  and  C_37
REMARK                            x       y       z     vdW  Elec       q    Type
REMARK                         _______ _______ _______ _____ _____    ______ ____
ROOT
ATOM      1  C   UNL     1      -0.950  -0.534   0.270  0.00  0.00    -0.021 A 
ATOM      2  C   UNL     1      -1.377  -0.896   1.521  0.00  0.00    +0.006 A 
ATOM      3  C   UNL     1      -2.657  -1.386   1.737  0.00  0.00    +0.001 A 
ATOM      4  C   UNL     1      -3.523  -1.512   0.666  0.00  0.00    +0.017 A 
ATOM      5  C   UNL     1      -3.105  -1.153  -0.590  0.00  0.00    +0.041 A 
ATOM      6  C   UNL     1      -1.810  -0.645  -0.847  0.00  0.00    +0.083 A 
ATOM      7  N   UNL     1      -1.550  -0.330  -2.134  0.00  0.00    -0.224 NA
ATOM      8  C   UNL     1      -2.437  -0.479  -3.090  0.00  0.00    +0.168 A 
ATOM      9  S   UNL     1      -3.842  -1.141  -2.207  0.00  0.00    -0.052 S 
ATOM     10  N   UNL     1      -2.313  -0.201  -4.442  0.00  0.00    -0.249 N 
ATOM     11  C   UNL     1      -1.123   0.181  -4.945  0.00  0.00    +0.240 C 
ATOM     12  O   UNL     1      -1.036   0.523  -6.105  0.00  0.00    -0.273 OA
ENDROOT
BRANCH  11  13
ATOM     13  C   UNL     1       0.101   0.183  -4.065  0.00  0.00    +0.166 C 
ATOM     14  C   UNL     1       0.232   1.544  -3.351  0.00  0.00    +0.031 C 
ATOM     15  C   UNL     1       1.763   1.800  -3.368  0.00  0.00    +0.019 C 
ATOM     16  C   UNL     1       2.164   1.193  -4.736  0.00  0.00    +0.110 C 
ATOM     17  N   UNL     1       1.307  -0.001  -4.886  0.00  0.00    -0.165 NA
BRANCH  17  18
ATOM     18  S   UNL     1       1.645  -1.325  -5.821  0.00  0.00    +0.062 S 
ATOM     19  O   UNL     1       3.061  -1.435  -5.872  0.00  0.00    -0.153 OA
ATOM     20  O   UNL     1       0.817  -2.378  -5.349  0.00  0.00    -0.153 OA
BRANCH  18  21
ATOM     21  C   UNL     1       1.109  -0.958  -7.459  0.00  0.00    +0.106 A 
ATOM     22  C   UNL     1      -0.151  -1.344  -7.875  0.00  0.00    +0.032 A 
ATOM     23  C   UNL     1      -0.574  -1.057  -9.159  0.00  0.00    +0.047 A 
ATOM     24  C   UNL     1       0.267  -0.381 -10.030  0.00  0.00    +0.120 A 
ATOM     25  C   UNL     1       1.532   0.005  -9.610  0.00  0.00    +0.047 A 
ATOM     26  C   UNL     1       1.948  -0.279  -8.323  0.00  0.00    +0.032 A 
BRANCH  24  27
ATOM     27  O   UNL     1      -0.146  -0.099 -11.293  0.00  0.00    -0.495 OA
ATOM     28  C   UNL     1       0.773   0.600 -12.136  0.00  0.00    +0.277 C 
ENDBRANCH  24  27
ENDBRANCH  18  21
ENDBRANCH  17  18
ENDBRANCH  11  13
BRANCH   1  30
ATOM     29  C   UNL     1       0.437   1.519   0.188  0.00  0.00    +0.009 C 
ATOM     30  C   UNL     1       0.449  -0.007   0.084  0.00  0.00    +0.034 C 
ENDBRANCH   1  30
BRANCH  10  31
ATOM     31  C   UNL     1      -3.476  -0.322  -5.324  0.00  0.00    +0.114 C 
BRANCH  31  32
ATOM     32  C   UNL     1      -4.280   0.979  -5.290  0.00  0.00    +0.001 C 
BRANCH  32  33
ATOM     33  C   UNL     1      -5.495   0.853  -6.211  0.00  0.00    -0.078 C 
BRANCH  33  34
ATOM     34  N   UNL     1      -6.267   2.102  -6.178  0.00  0.00    +0.376 N 
ATOM     35  C   UNL     1      -5.461   3.192  -6.745  0.00  0.00    -0.097 C 
ATOM     36  C   UNL     1      -7.495   1.940  -6.968  0.00  0.00    -0.097 C 
ATOM     37  H   UNL     1      -6.508   2.324  -5.223  0.00  0.00    -0.083 HD
ENDBRANCH  33  34
ENDBRANCH  32  33
ENDBRANCH  31  32
ENDBRANCH  10  31
TORSDOF 9
