REMARK  Name = ZINC66939891
REMARK  12 active torsions:
REMARK  status: ('A' for Active; 'I' for Inactive)
REMARK    1  A    between atoms: C_1  and  C_2
REMARK    2  A    between atoms: C_2  and  C_4
REMARK    3  A    between atoms: C_2  and  N_16
REMARK    4  A    between atoms: C_4  and  C_5
REMARK    5  A    between atoms: C_5  and  C_6
REMARK    6  A    between atoms: C_9  and  O_12
REMARK    7  A    between atoms: O_12  and  C_13
REMARK    8  A    between atoms: C_13  and  C_14
REMARK    9  A    between atoms: C_13  and  C_15
REMARK   10  A    between atoms: N_16  and  C_17
REMARK   11  A    between atoms: C_17  and  C_19
REMARK   12  A    between atoms: C_17  and  C_26
REMARK                            x       y       z     vdW  Elec       q    Type
REMARK                         _______ _______ _______ _____ _____    ______ ____
ROOT
ATOM      1  N   UNL     1       3.869  -0.299   0.281  0.00  0.00    +0.391 N 
ATOM      2  H   UNL     1       3.970   0.012   1.236  0.00  0.00    -0.084 HD
ATOM      3  H   UNL     1       3.481  -1.230   0.270  0.00  0.00    -0.084 HD
ENDROOT
BRANCH   1   5
ATOM      4  C   UNL     1       3.492   2.048  -0.308  0.00  0.00    -0.014 C 
ATOM      5  C   UNL     1       2.973   0.615  -0.439  0.00  0.00    -0.073 C 
BRANCH   5   6
ATOM      6  C   UNL     1       1.567   0.525   0.158  0.00  0.00    -0.011 C 
BRANCH   6   7
ATOM      7  C   UNL     1       0.998  -0.875  -0.084  0.00  0.00    +0.033 C 
BRANCH   7   8
ATOM      8  C   UNL     1      -0.387  -0.964   0.504  0.00  0.00    -0.047 A 
ATOM      9  C   UNL     1      -0.555  -1.367   1.815  0.00  0.00    +0.007 A 
ATOM     10  C   UNL     1      -1.823  -1.450   2.356  0.00  0.00    +0.046 A 
ATOM     11  C   UNL     1      -2.929  -1.126   1.583  0.00  0.00    +0.121 A 
ATOM     12  C   UNL     1      -2.757  -0.721   0.267  0.00  0.00    +0.046 A 
ATOM     13  C   UNL     1      -1.486  -0.635  -0.268  0.00  0.00    +0.007 A 
BRANCH  11  14
ATOM     14  O   UNL     1      -4.178  -1.207   2.112  0.00  0.00    -0.489 OA
BRANCH  14  15
ATOM     15  C   UNL     1      -4.273  -1.516   3.504  0.00  0.00    +0.167 C 
ATOM     16  C   UNL     1      -5.584  -0.958   4.062  0.00  0.00    +0.051 C 
ATOM     17  C   UNL     1      -4.244  -3.034   3.693  0.00  0.00    +0.051 C 
ENDBRANCH  14  15
ENDBRANCH  11  14
ENDBRANCH   7   8
ENDBRANCH   6   7
ENDBRANCH   5   6
ENDBRANCH   1   5
BRANCH   1  18
ATOM     18  C   UNL     1       5.185  -0.309  -0.372  0.00  0.00    +0.047 C 
BRANCH  18  19
ATOM     19  C   UNL     1       5.056  -0.895  -1.754  0.00  0.00    -0.053 A 
ATOM     20  C   UNL     1       4.228  -1.981  -1.969  0.00  0.00    +0.005 A 
ATOM     21  C   UNL     1       4.108  -2.519  -3.236  0.00  0.00    +0.038 A 
ATOM     22  C   UNL     1       4.817  -1.969  -4.291  0.00  0.00    +0.123 A 
ATOM     23  C   UNL     1       5.645  -0.881  -4.075  0.00  0.00    +0.038 A 
ATOM     24  C   UNL     1       5.760  -0.342  -2.807  0.00  0.00    +0.005 A 
ATOM     25  F   UNL     1       4.701  -2.494  -5.531  0.00  0.00    -0.205 F 
ENDBRANCH  18  19
BRANCH  18  26
ATOM     26  C   UNL     1       6.142  -1.144   0.440  0.00  0.00    +0.201 C 
ATOM     27  O   UNL     1       5.721  -2.037   1.144  0.00  0.00    -0.277 OA
ATOM     28  N   UNL     1       7.466  -0.898   0.383  0.00  0.00    -0.330 N 
ATOM     29  H   UNL     1       7.803  -0.184  -0.180  0.00  0.00    +0.145 HD
ATOM     30  H   UNL     1       8.082  -1.435   0.905  0.00  0.00    +0.145 HD
ENDBRANCH  18  26
ENDBRANCH   1  18
TORSDOF 9
