REMARK  Name = ZINC11053572
REMARK  12 active torsions:
REMARK  status: ('A' for Active; 'I' for Inactive)
REMARK    1  A    between atoms: C_1  and  C_2
REMARK    2  A    between atoms: C_2  and  O_3
REMARK    3  A    between atoms: O_3  and  C_4
REMARK    4  A    between atoms: C_7  and  C_10
REMARK    5  A    between atoms: C_10  and  C_11
REMARK    6  A    between atoms: C_11  and  C_12
REMARK    7  A    between atoms: N_15  and  C_18
REMARK    8  A    between atoms: C_18  and  C_20
REMARK    9  A    between atoms: C_18  and  C_21
REMARK   10  A    between atoms: N_23  and  C_24
REMARK   11  A    between atoms: C_27  and  S_30
REMARK   12  A    between atoms: S_30  and  N_33
REMARK                            x       y       z     vdW  Elec       q    Type
REMARK                         _______ _______ _______ _____ _____    ______ ____
ROOT
ATOM      1  C   UNL     1      -0.143  -9.492  -1.177  0.00  0.00    -0.014 C 
ATOM      2  C   UNL     1       0.813  -9.058  -2.292  0.00  0.00    -0.015 C 
ATOM      3  C   UNL     1       1.078 -10.246  -3.220  0.00  0.00    -0.078 C 
ATOM      4  N   UNL     1      -0.186 -10.704  -3.808  0.00  0.00    +0.387 N 
ATOM      5  C   UNL     1      -1.081 -11.188  -2.751  0.00  0.00    -0.078 C 
ATOM      6  C   UNL     1      -1.429 -10.037  -1.805  0.00  0.00    -0.015 C 
ATOM      7  H   UNL     1      -0.626  -9.937  -4.295  0.00  0.00    -0.081 HD
ENDROOT
BRANCH   4   8
ATOM      8  C   UNL     1       0.083 -11.792  -4.757  0.00  0.00    +0.016 C 
ATOM      9  C   UNL     1       0.972 -11.274  -5.889  0.00  0.00    -0.004 C 
BRANCH   8  10
ATOM     10  C   UNL     1      -1.218 -12.293  -5.329  0.00  0.00    +0.203 C 
ATOM     11  O   UNL     1      -2.166 -11.543  -5.426  0.00  0.00    -0.277 OA
ATOM     12  N   UNL     1      -1.328 -13.575  -5.732  0.00  0.00    -0.287 N 
ATOM     13  H   UNL     1      -0.594 -14.192  -5.590  0.00  0.00    +0.155 HD
BRANCH  12  14
ATOM     14  C   UNL     1      -2.502 -14.014  -6.355  0.00  0.00    +0.033 A 
ATOM     15  C   UNL     1      -2.943 -15.317  -6.168  0.00  0.00    +0.025 A 
ATOM     16  C   UNL     1      -4.102 -15.747  -6.784  0.00  0.00    +0.030 A 
ATOM     17  C   UNL     1      -4.822 -14.882  -7.588  0.00  0.00    +0.105 A 
ATOM     18  C   UNL     1      -4.384 -13.584  -7.777  0.00  0.00    +0.030 A 
ATOM     19  C   UNL     1      -3.229 -13.146  -7.159  0.00  0.00    +0.025 A 
BRANCH  17  20
ATOM     20  S   UNL     1      -6.299 -15.435  -8.373  0.00  0.00    +0.056 S 
ATOM     21  O   UNL     1      -6.493 -14.601  -9.507  0.00  0.00    -0.153 OA
ATOM     22  O   UNL     1      -6.200 -16.848  -8.475  0.00  0.00    -0.153 OA
BRANCH  20  23
ATOM     23  N   UNL     1      -7.551 -15.122  -7.335  0.00  0.00    -0.204 NA
ATOM     24  H   UNL     1      -8.436 -14.932  -7.686  0.00  0.00    +0.144 HD
ATOM     25  H   UNL     1      -7.400 -15.128  -6.377  0.00  0.00    +0.144 HD
ENDBRANCH  20  23
ENDBRANCH  17  20
ENDBRANCH  12  14
ENDBRANCH   8  10
ENDBRANCH   4   8
BRANCH   1  26
ATOM     26  C   UNL     1      -0.476  -8.289  -0.292  0.00  0.00    +0.008 C 
BRANCH  26  27
ATOM     27  C   UNL     1       0.790  -7.824   0.432  0.00  0.00    +0.035 C 
BRANCH  27  31
ATOM     28  C   UNL     1      -0.138  -4.465   2.905  0.00  0.00    +0.121 A 
ATOM     29  C   UNL     1      -0.236  -5.751   3.415  0.00  0.00    +0.046 A 
ATOM     30  C   UNL     1       0.064  -6.835   2.613  0.00  0.00    +0.007 A 
ATOM     31  C   UNL     1       0.462  -6.639   1.304  0.00  0.00    -0.047 A 
ATOM     32  C   UNL     1       0.561  -5.358   0.794  0.00  0.00    +0.007 A 
ATOM     33  C   UNL     1       0.256  -4.271   1.589  0.00  0.00    +0.046 A 
BRANCH  28  34
ATOM     34  O   UNL     1      -0.433  -3.396   3.692  0.00  0.00    -0.492 OA
BRANCH  34  36
ATOM     35  C   UNL     1      -1.121  -2.356   5.762  0.00  0.00    +0.048 C 
ATOM     36  C   UNL     1      -0.832  -3.671   5.036  0.00  0.00    +0.225 C 
ENDBRANCH  34  36
ENDBRANCH  28  34
ENDBRANCH  27  31
ENDBRANCH  26  27
ENDBRANCH   1  26
TORSDOF 10
