REMARK  Name = ZINC09847273
REMARK  12 active torsions:
REMARK  status: ('A' for Active; 'I' for Inactive)
REMARK    1  A    between atoms: C_1  and  C_2
REMARK    2  A    between atoms: C_2  and  C_4
REMARK    3  A    between atoms: C_2  and  N_65
REMARK    4  A    between atoms: C_7  and  S_17
REMARK    5  A    between atoms: N_8  and  C_9
REMARK    6  A    between atoms: C_12  and  O_15
REMARK    7  A    between atoms: O_15  and  C_16
REMARK    8  A    between atoms: S_17  and  C_18
REMARK    9  A    between atoms: C_18  and  C_20
REMARK   10  A    between atoms: C_18  and  C_21
REMARK   11  A    between atoms: N_23  and  C_24
REMARK   12  A    between atoms: C_27  and  C_30
REMARK                            x       y       z     vdW  Elec       q    Type
REMARK                         _______ _______ _______ _____ _____    ______ ____
ROOT
ATOM      1  C   UNL     1      -0.802   1.601   3.613  0.00  0.00    +0.125 A 
ATOM      2  N   UNL     1      -1.149   2.846   3.777  0.00  0.00    -0.135 NA
ATOM      3  N   UNL     1      -1.666   3.010   4.942  0.00  0.00    -0.122 NA
ATOM      4  C   UNL     1      -1.669   1.871   5.595  0.00  0.00    +0.197 A 
ATOM      5  N   UNL     1      -1.117   0.934   4.767  0.00  0.00    -0.275 N 
ENDROOT
BRANCH   5   6
ATOM      6  C   UNL     1      -0.914  -0.428   5.042  0.00  0.00    +0.050 A 
ATOM      7  C   UNL     1      -1.603  -1.392   4.319  0.00  0.00    +0.030 A 
ATOM      8  C   UNL     1      -1.401  -2.731   4.588  0.00  0.00    +0.047 A 
ATOM      9  C   UNL     1      -0.516  -3.113   5.586  0.00  0.00    +0.120 A 
ATOM     10  C   UNL     1       0.169  -2.149   6.312  0.00  0.00    +0.047 A 
ATOM     11  C   UNL     1      -0.029  -0.810   6.041  0.00  0.00    +0.030 A 
BRANCH   9  12
ATOM     12  O   UNL     1      -0.320  -4.431   5.853  0.00  0.00    -0.495 OA
ATOM     13  C   UNL     1      -1.058  -5.369   5.066  0.00  0.00    +0.277 C 
ENDBRANCH   9  12
ENDBRANCH   5   6
BRANCH   1  15
ATOM     14  C   UNL     1       1.330   1.333   2.374  0.00  0.00    -0.005 C 
ATOM     15  C   UNL     1      -0.165   1.006   2.383  0.00  0.00    -0.002 C 
BRANCH  15  21
ATOM     16  C   UNL     1      -2.185   1.109   1.052  0.00  0.00    -0.078 C 
ATOM     17  C   UNL     1      -2.854   1.827  -0.121  0.00  0.00    -0.019 C 
ATOM     18  C   UNL     1      -2.075   1.530  -1.406  0.00  0.00    -0.004 C 
ATOM     19  C   UNL     1      -0.621   1.976  -1.226  0.00  0.00    -0.019 C 
ATOM     20  C   UNL     1      -0.017   1.254  -0.020  0.00  0.00    -0.078 C 
ATOM     21  N   UNL     1      -0.796   1.600   1.187  0.00  0.00    +0.386 N 
ATOM     22  H   UNL     1      -0.813   2.621   1.291  0.00  0.00    -0.081 HD
ENDBRANCH  15  21
ENDBRANCH   1  15
BRANCH   4  23
ATOM     23  S   UNL     1      -2.271   1.602   7.229  0.00  0.00    -0.073 S 
BRANCH  23  24
ATOM     24  C   UNL     1      -2.823   3.275   7.641  0.00  0.00    +0.137 C 
ATOM     25  C   UNL     1      -3.985   3.668   6.726  0.00  0.00    +0.029 C 
BRANCH  24  26
ATOM     26  C   UNL     1      -3.279   3.315   9.077  0.00  0.00    +0.230 C 
ATOM     27  O   UNL     1      -3.581   2.287   9.646  0.00  0.00    -0.274 OA
ATOM     28  N   UNL     1      -3.350   4.492   9.729  0.00  0.00    -0.285 N 
ATOM     29  H   UNL     1      -3.164   5.320   9.258  0.00  0.00    +0.155 HD
BRANCH  28  30
ATOM     30  C   UNL     1      -3.691   4.521  11.082  0.00  0.00    +0.033 A 
ATOM     31  C   UNL     1      -4.617   3.612  11.584  0.00  0.00    +0.024 A 
ATOM     32  C   UNL     1      -4.952   3.634  12.919  0.00  0.00    +0.020 A 
ATOM     33  C   UNL     1      -4.369   4.579  13.768  0.00  0.00    +0.052 A 
ATOM     34  C   UNL     1      -3.443   5.494  13.260  0.00  0.00    +0.020 A 
ATOM     35  C   UNL     1      -3.109   5.462  11.924  0.00  0.00    +0.024 A 
BRANCH  33  36
ATOM     36  C   UNL     1      -4.719   4.608  15.157  0.00  0.00    +0.099 C 
ATOM     37  N   UNL     1      -4.997   4.631  16.258  0.00  0.00    -0.191 NA
ENDBRANCH  33  36
ENDBRANCH  28  30
ENDBRANCH  24  26
ENDBRANCH  23  24
ENDBRANCH   4  23
TORSDOF 9
