REMARK  Name = ZINC09671089
REMARK  9 active torsions:
REMARK  status: ('A' for Active; 'I' for Inactive)
REMARK    1  A    between atoms: C_1  and  C_2
REMARK    2  A    between atoms: C_2  and  C_4
REMARK    3  A    between atoms: C_2  and  O_19
REMARK    4  A    between atoms: N_6  and  C_7
REMARK    5  A    between atoms: C_12  and  C_13
REMARK    6  A    between atoms: O_19  and  C_20
REMARK    7  A    between atoms: C_20  and  C_22
REMARK    8  A    between atoms: N_25  and  C_28
REMARK    9  A    between atoms: C_31  and  C_33
REMARK                            x       y       z     vdW  Elec       q    Type
REMARK                         _______ _______ _______ _____ _____    ______ ____
ROOT
ATOM      1  O   UNL     1      -4.778   6.436   8.095  0.00  0.00    -0.452 OA
ENDROOT
BRANCH   1   3
ATOM      2  C   UNL     1      -4.740   6.041  10.498  0.00  0.00    +0.062 C 
ATOM      3  C   UNL     1      -5.496   6.682   9.333  0.00  0.00    +0.259 C 
BRANCH   3   4
ATOM      4  C   UNL     1      -5.607   8.167   9.563  0.00  0.00    +0.258 C 
ATOM      5  O   UNL     1      -5.128   8.942   8.763  0.00  0.00    -0.271 OA
ATOM      6  N   UNL     1      -6.239   8.634  10.658  0.00  0.00    -0.282 N 
ATOM      7  H   UNL     1      -6.692   8.019  11.256  0.00  0.00    +0.155 HD
BRANCH   6   8
ATOM      8  C   UNL     1      -6.243  10.005  10.931  0.00  0.00    +0.041 A 
ATOM      9  C   UNL     1      -5.232  10.816  10.437  0.00  0.00    +0.024 A 
ATOM     10  C   UNL     1      -5.241  12.171  10.704  0.00  0.00    +0.002 A 
ATOM     11  C   UNL     1      -6.248  12.726  11.473  0.00  0.00    +0.001 A 
ATOM     12  C   UNL     1      -7.257  11.930  11.977  0.00  0.00    +0.010 A 
ATOM     13  C   UNL     1      -7.263  10.563  11.710  0.00  0.00    +0.003 A 
BRANCH  13  14
ATOM     14  C   UNL     1      -8.345   9.703  12.248  0.00  0.00    -0.016 A 
ATOM     15  C   UNL     1      -9.034   8.834  11.403  0.00  0.00    +0.008 A 
ATOM     16  C   UNL     1     -10.036   8.032  11.911  0.00  0.00    +0.001 A 
ATOM     17  C   UNL     1     -10.365   8.098  13.253  0.00  0.00    +0.000 A 
ATOM     18  C   UNL     1      -9.689   8.963  14.095  0.00  0.00    +0.001 A 
ATOM     19  C   UNL     1      -8.681   9.765  13.600  0.00  0.00    +0.008 A 
ENDBRANCH  13  14
ENDBRANCH   6   8
ENDBRANCH   3   4
ENDBRANCH   1   3
BRANCH   1  20
ATOM     20  C   UNL     1      -5.093   5.320   7.419  0.00  0.00    +0.311 C 
ATOM     21  O   UNL     1      -5.941   4.574   7.847  0.00  0.00    -0.251 OA
BRANCH  20  22
ATOM     22  C   UNL     1      -4.389   4.999   6.126  0.00  0.00    +0.101 C 
ATOM     23  C   UNL     1      -4.930   3.682   5.562  0.00  0.00    +0.033 C 
ATOM     24  C   UNL     1      -4.169   3.330   4.282  0.00  0.00    +0.107 C 
ATOM     25  N   UNL     1      -2.737   3.203   4.581  0.00  0.00    -0.317 N 
ATOM     26  C   UNL     1      -2.185   4.469   5.080  0.00  0.00    +0.107 C 
ATOM     27  C   UNL     1      -2.886   4.855   6.384  0.00  0.00    +0.033 C 
BRANCH  25  28
ATOM     28  C   UNL     1      -2.034   2.756   3.469  0.00  0.00    +0.099 A 
ATOM     29  C   UNL     1      -0.657   2.572   3.552  0.00  0.00    +0.042 A 
ATOM     30  C   UNL     1       0.030   2.126   2.438  0.00  0.00    +0.017 A 
ATOM     31  C   UNL     1      -0.684   1.879   1.273  0.00  0.00    +0.071 A 
ATOM     32  C   UNL     1      -2.048   2.089   1.259  0.00  0.00    +0.096 A 
ATOM     33  N   UNL     1      -2.757   2.521   2.337  0.00  0.00    -0.349 N 
ATOM     34  H   UNL     1      -3.774   2.660   2.300  0.00  0.00    +0.167 HD
BRANCH  31  35
ATOM     35  C   UNL     1       0.023   1.393   0.035  0.00  0.00    +0.419 C 
ATOM     36  F   UNL     1       0.052  -0.006   0.033  0.00  0.00    -0.166 F 
ATOM     37  F   UNL     1       1.332   1.886   0.021  0.00  0.00    -0.166 F 
ATOM     38  F   UNL     1      -0.657   1.847  -1.100  0.00  0.00    -0.166 F 
ENDBRANCH  31  35
ENDBRANCH  25  28
ENDBRANCH  20  22
ENDBRANCH   1  20
TORSDOF 8
