REMARK  Name = ZINC12326872
REMARK  9 active torsions:
REMARK  status: ('A' for Active; 'I' for Inactive)
REMARK    1  A    between atoms: C_1  and  C_2
REMARK    2  A    between atoms: C_5  and  C_20
REMARK    3  A    between atoms: N_11  and  C_13
REMARK    4  A    between atoms: C_20  and  N_48
REMARK    5  A    between atoms: C_21  and  C_22
REMARK    6  A    between atoms: C_21  and  N_48
REMARK    7  A    between atoms: C_22  and  S_23
REMARK    8  A    between atoms: S_23  and  C_24
REMARK    9  A    between atoms: C_28  and  C_30
REMARK                            x       y       z     vdW  Elec       q    Type
REMARK                         _______ _______ _______ _____ _____    ______ ____
ROOT
ATOM      1  C   UNL     1       4.876   2.109  -0.034  0.00  0.00    +0.068 C 
ATOM      2  C   UNL     1       3.392   2.370  -0.018  0.00  0.00    +0.070 A 
ATOM      3  C   UNL     1       2.377   1.383  -0.013  0.00  0.00    +0.040 A 
ATOM      4  C   UNL     1       2.397  -0.030  -0.021  0.00  0.00    +0.020 A 
ATOM      5  C   UNL     1       1.220  -0.709  -0.013  0.00  0.00    +0.001 A 
ATOM      6  C   UNL     1       0.002  -0.004   0.002  0.00  0.00    +0.252 A 
ATOM      7  O   UNL     1      -1.050  -0.621   0.009  0.00  0.00    -0.268 OA
ATOM      8  N   UNL     1      -0.016   1.342   0.009  0.00  0.00    -0.307 N 
ATOM      9  H   UNL     1      -0.865   1.811   0.016  0.00  0.00    +0.170 HD
ATOM     10  C   UNL     1       1.152   2.054   0.002  0.00  0.00    +0.145 A 
ATOM     11  N   UNL     1       1.431   3.384   0.006  0.00  0.00    -0.216 N 
ATOM     12  N   UNL     1       2.822   3.542  -0.006  0.00  0.00    -0.169 NA
ENDROOT
BRANCH  11  13
ATOM     13  C   UNL     1       0.488   4.421   0.021  0.00  0.00    +0.068 A 
ATOM     14  C   UNL     1      -0.713   4.278  -0.661  0.00  0.00    +0.030 A 
ATOM     15  C   UNL     1      -1.643   5.299  -0.641  0.00  0.00    +0.040 A 
ATOM     16  C   UNL     1      -1.375   6.468   0.051  0.00  0.00    +0.124 A 
ATOM     17  C   UNL     1      -0.176   6.614   0.728  0.00  0.00    +0.040 A 
ATOM     18  C   UNL     1       0.755   5.594   0.715  0.00  0.00    +0.030 A 
ATOM     19  F   UNL     1      -2.284   7.467   0.065  0.00  0.00    -0.205 F 
ENDBRANCH  11  13
BRANCH   5  20
ATOM     20  C   UNL     1       1.218  -2.215  -0.022  0.00  0.00    -0.041 C 
BRANCH  20  21
ATOM     21  N   UNL     1       1.109  -2.707   1.365  0.00  0.00    +0.382 N 
ATOM     22  H   UNL     1       0.237  -2.360   1.779  0.00  0.00    -0.085 HD
ATOM     23  H   UNL     1       1.908  -2.362   1.910  0.00  0.00    -0.085 HD
BRANCH  21  24
ATOM     24  C   UNL     1       1.106  -4.181   1.387  0.00  0.00    -0.071 C 
BRANCH  24  25
ATOM     25  C   UNL     1       0.992  -4.661   2.835  0.00  0.00    +0.058 C 
BRANCH  25  26
ATOM     26  S   UNL     1       0.986  -6.471   2.873  0.00  0.00    -0.088 S 
BRANCH  26  27
ATOM     27  C   UNL     1       0.851  -6.740   4.609  0.00  0.00    +0.184 A 
ATOM     28  N   UNL     1       0.801  -7.940   5.226  0.00  0.00    -0.254 N 
ATOM     29  H   UNL     1       0.832  -8.813   4.804  0.00  0.00    +0.191 HD
ATOM     30  N   UNL     1       0.694  -7.673   6.601  0.00  0.00    -0.157 NA
ATOM     31  C   UNL     1       0.685  -6.375   6.738  0.00  0.00    +0.149 A 
ATOM     32  N   UNL     1       0.785  -5.807   5.536  0.00  0.00    -0.206 NA
ATOM     33  C   UNL     1       0.584  -5.635   8.047  0.00  0.00    +0.090 C 
ENDBRANCH  26  27
ENDBRANCH  25  26
ENDBRANCH  24  25
ENDBRANCH  21  24
ENDBRANCH  20  21
ENDBRANCH   5  20
TORSDOF 7
