REMARK  Name = ZINC39916344
REMARK  5 active torsions:
REMARK  status: ('A' for Active; 'I' for Inactive)
REMARK    1  A    between atoms: C_1  and  C_2
REMARK    2  A    between atoms: C_2  and  O_3
REMARK    3  A    between atoms: O_3  and  C_4
REMARK    4  A    between atoms: C_4  and  C_6
REMARK    5  A    between atoms: C_7  and  N_31
REMARK                            x       y       z     vdW  Elec       q    Type
REMARK                         _______ _______ _______ _____ _____    ______ ____
ROOT
ATOM      1  C   UNL     1       1.426  -2.323  -2.466  0.00  0.00    +0.114 C 
ATOM      2  C   UNL     1       1.598  -3.664  -2.557  0.00  0.00    +0.195 C 
ATOM      3  O   UNL     1       2.191  -4.235  -3.631  0.00  0.00    -0.445 OA
ATOM      4  C   UNL     1       2.778  -3.413  -4.505  0.00  0.00    +0.130 C 
ATOM      5  C   UNL     1       3.994  -3.687  -5.112  0.00  0.00    +0.035 A 
ATOM      6  C   UNL     1       4.681  -4.894  -4.865  0.00  0.00    +0.013 A 
ATOM      7  C   UNL     1       5.867  -5.132  -5.490  0.00  0.00    +0.001 A 
ATOM      8  C   UNL     1       6.420  -4.206  -6.369  0.00  0.00    +0.002 A 
ATOM      9  C   UNL     1       5.806  -3.022  -6.644  0.00  0.00    +0.024 A 
ATOM     10  C   UNL     1       4.580  -2.707  -6.035  0.00  0.00    +0.044 A 
ATOM     11  N   UNL     1       3.982  -1.539  -6.300  0.00  0.00    -0.284 N 
ATOM     12  C   UNL     1       2.820  -1.177  -5.793  0.00  0.00    +0.229 C 
ATOM     13  O   UNL     1       2.341  -0.095  -6.078  0.00  0.00    -0.275 OA
ATOM     14  C   UNL     1       2.082  -2.109  -4.858  0.00  0.00    +0.166 C 
ATOM     15  C   UNL     1       1.887  -1.375  -3.534  0.00  0.00    +0.128 C 
ATOM     16  C   UNL     1       3.148  -0.678  -3.127  0.00  0.00    -0.005 A 
ATOM     17  C   UNL     1       4.402  -1.163  -2.824  0.00  0.00    +0.007 A 
ATOM     18  C   UNL     1       5.373  -0.230  -2.476  0.00  0.00    +0.000 A 
ATOM     19  C   UNL     1       5.090   1.120  -2.437  0.00  0.00    +0.002 A 
ATOM     20  C   UNL     1       3.831   1.615  -2.739  0.00  0.00    +0.023 A 
ATOM     21  C   UNL     1       2.848   0.688  -3.090  0.00  0.00    +0.038 A 
ATOM     22  N   UNL     1       1.524   0.899  -3.433  0.00  0.00    -0.284 N 
ATOM     23  C   UNL     1       0.882  -0.255  -3.708  0.00  0.00    +0.234 C 
ATOM     24  O   UNL     1      -0.280  -0.374  -4.033  0.00  0.00    -0.274 OA
ATOM     25  H   UNL     1       1.106   1.774  -3.470  0.00  0.00    +0.155 HD
ATOM     26  H   UNL     1       4.430  -0.922  -6.899  0.00  0.00    +0.155 HD
ENDROOT
BRANCH   2  27
ATOM     27  N   UNL     1       1.162  -4.463  -1.534  0.00  0.00    -0.329 N 
ATOM     28  H   UNL     1       0.668  -4.077  -0.794  0.00  0.00    +0.145 HD
ATOM     29  H   UNL     1       1.346  -5.415  -1.550  0.00  0.00    +0.145 HD
ENDBRANCH   2  27
BRANCH   1  30
ATOM     30  C   UNL     1       0.784  -1.801  -1.331  0.00  0.00    +0.341 C 
ATOM     31  O   UNL     1       1.442  -1.300  -0.436  0.00  0.00    -0.245 OA
BRANCH  30  32
ATOM     32  O   UNL     1      -0.561  -1.853  -1.231  0.00  0.00    -0.462 OA
BRANCH  32  34
ATOM     33  C   UNL     1      -2.668  -1.453  -0.116  0.00  0.00    +0.048 C 
ATOM     34  C   UNL     1      -1.147  -1.303  -0.050  0.00  0.00    +0.229 C 
ENDBRANCH  32  34
ENDBRANCH  30  32
ENDBRANCH   1  30
TORSDOF 4
