REMARK  Name = ZINC20465471
REMARK  10 active torsions:
REMARK  status: ('A' for Active; 'I' for Inactive)
REMARK    1  A    between atoms: C_1  and  N_2
REMARK    2  A    between atoms: C_5  and  N_8
REMARK    3  A    between atoms: N_8  and  C_9
REMARK    4  A    between atoms: C_9  and  C_10
REMARK    5  A    between atoms: C_12  and  N_22
REMARK    6  A    between atoms: C_14  and  O_21
REMARK    7  A    between atoms: C_16  and  C_19
REMARK    8  A    between atoms: C_19  and  O_20
REMARK    9  A    between atoms: N_25  and  C_28
REMARK   10  A    between atoms: C_32  and  C_34
REMARK                            x       y       z     vdW  Elec       q    Type
REMARK                         _______ _______ _______ _____ _____    ______ ____
ROOT
ATOM      1  C   UNL     1       1.978  -6.169   1.076  0.00  0.00    +0.152 C 
ATOM      2  C   UNL     1       3.306  -6.820   1.509  0.00  0.00    +0.118 C 
ATOM      3  C   UNL     1       3.846  -7.479   0.216  0.00  0.00    +0.165 C 
ATOM      4  C   UNL     1       2.562  -7.608  -0.642  0.00  0.00    +0.174 C 
ATOM      5  O   UNL     1       1.824  -6.403  -0.334  0.00  0.00    -0.366 OA
ENDROOT
BRANCH   2   6
ATOM      6  N   UNL     1       4.243  -5.800   1.999  0.00  0.00    -0.292 NA
ATOM      7  C   UNL     1       5.631  -6.270   1.903  0.00  0.00    +0.104 C 
ATOM      8  C   UNL     1       6.582  -5.120   2.249  0.00  0.00    +0.120 C 
ATOM      9  N   UNL     1       6.199  -4.576   3.562  0.00  0.00    -0.327 N 
ATOM     10  C   UNL     1       4.792  -4.209   3.779  0.00  0.00    +0.120 C 
ATOM     11  C   UNL     1       3.911  -5.396   3.372  0.00  0.00    +0.104 C 
BRANCH   9  12
ATOM     12  C   UNL     1       7.147  -4.413   4.574  0.00  0.00    +0.030 A 
ATOM     13  C   UNL     1       8.492  -4.648   4.314  0.00  0.00    +0.023 A 
ATOM     14  C   UNL     1       9.426  -4.485   5.317  0.00  0.00    +0.002 A 
ATOM     15  C   UNL     1       9.025  -4.090   6.581  0.00  0.00    +0.012 A 
ATOM     16  C   UNL     1       7.688  -3.856   6.843  0.00  0.00    +0.057 A 
ATOM     17  C   UNL     1       6.749  -4.011   5.843  0.00  0.00    +0.035 A 
BRANCH  16  18
ATOM     18  C   UNL     1       7.256  -3.426   8.221  0.00  0.00    +0.417 C 
ATOM     19  F   UNL     1       8.376  -3.334   9.054  0.00  0.00    -0.166 F 
ATOM     20  F   UNL     1       6.627  -2.178   8.145  0.00  0.00    -0.166 F 
ATOM     21  F   UNL     1       6.362  -4.367   8.745  0.00  0.00    -0.166 F 
ENDBRANCH  16  18
ENDBRANCH   9  12
ENDBRANCH   2   6
BRANCH   3  22
ATOM     22  O   UNL     1       4.805  -6.635  -0.424  0.00  0.00    -0.388 OA
ATOM     23  H   UNL     1       5.172  -7.005  -1.239  0.00  0.00    +0.210 HD
ENDBRANCH   3  22
BRANCH   1  24
ATOM     24  C   UNL     1       2.022  -4.665   1.352  0.00  0.00    +0.114 C 
BRANCH  24  25
ATOM     25  N   UNL     1       0.843  -4.023   0.755  0.00  0.00    -0.311 NA
ATOM     26  H   UNL     1      -0.009  -4.443   1.096  0.00  0.00    +0.122 HD
BRANCH  25  31
ATOM     27  C   UNL     1      -0.772   1.288   1.780  0.00  0.00    -0.096 C 
ATOM     28  N   UNL     1      -0.652  -0.154   1.526  0.00  0.00    +0.378 N 
ATOM     29  C   UNL     1      -0.018  -0.368   0.219  0.00  0.00    -0.078 C 
ATOM     30  C   UNL     1       0.036  -1.867  -0.086  0.00  0.00    -0.000 C 
ATOM     31  C   UNL     1       0.851  -2.575   1.000  0.00  0.00    +0.050 C 
ATOM     32  C   UNL     1       0.224  -2.283   2.366  0.00  0.00    -0.000 C 
ATOM     33  C   UNL     1       0.163  -0.769   2.581  0.00  0.00    -0.078 C 
ATOM     34  H   UNL     1      -1.570  -0.572   1.525  0.00  0.00    -0.082 HD
ENDBRANCH  25  31
ENDBRANCH  24  25
ENDBRANCH   1  24
BRANCH   4  35
ATOM     35  C   UNL     1       2.912  -7.664  -2.130  0.00  0.00    +0.190 C 
BRANCH  35  36
ATOM     36  O   UNL     1       1.725  -7.900  -2.890  0.00  0.00    -0.392 OA
ATOM     37  H   UNL     1       1.872  -7.947  -3.845  0.00  0.00    +0.210 HD
ENDBRANCH  35  36
ENDBRANCH   4  35
TORSDOF 9
