REMARK  Name = ZINC15103858
REMARK  14 active torsions:
REMARK  status: ('A' for Active; 'I' for Inactive)
REMARK    1  A    between atoms: C_1  and  C_2
REMARK    2  A    between atoms: C_2  and  C_3
REMARK    3  A    between atoms: C_3  and  C_4
REMARK    4  A    between atoms: C_4  and  N_5
REMARK    5  A    between atoms: C_6  and  N_34
REMARK    6  A    between atoms: C_7  and  N_14
REMARK    7  A    between atoms: N_14  and  C_15
REMARK    8  A    between atoms: C_15  and  C_16
REMARK    9  A    between atoms: C_17  and  C_19
REMARK   10  A    between atoms: C_19  and  N_72
REMARK   11  A    between atoms: C_20  and  N_72
REMARK   12  A    between atoms: C_21  and  C_22
REMARK   13  A    between atoms: C_21  and  N_72
REMARK   14  A    between atoms: C_27  and  N_28
REMARK                            x       y       z     vdW  Elec       q    Type
REMARK                         _______ _______ _______ _____ _____    ______ ____
ROOT
ATOM      1  N   UNL     1       1.096   1.509  -0.395  0.00  0.00    -0.266 N 
ATOM      2  C   UNL     1      -0.120   0.939  -0.534  0.00  0.00    +0.203 C 
ATOM      3  O   UNL     1      -0.214  -0.262  -0.677  0.00  0.00    -0.277 OA
ENDROOT
BRANCH   1   6
ATOM      4  N   UNL     1       3.565  -0.944   0.783  0.00  0.00    -0.280 N 
ATOM      5  C   UNL     1       2.430  -0.168   0.738  0.00  0.00    +0.127 A 
ATOM      6  C   UNL     1       2.249   0.700  -0.319  0.00  0.00    +0.140 A 
ATOM      7  C   UNL     1       3.233   0.761  -1.324  0.00  0.00    +0.277 A 
ATOM      8  O   UNL     1       3.097   1.516  -2.272  0.00  0.00    -0.266 OA
ATOM      9  N   UNL     1       4.330  -0.017  -1.229  0.00  0.00    -0.273 N 
ATOM     10  H   UNL     1       5.033   0.032  -1.937  0.00  0.00    +0.173 HD
ATOM     11  C   UNL     1       4.488  -0.858  -0.191  0.00  0.00    +0.331 A 
ATOM     12  O   UNL     1       5.484  -1.552  -0.133  0.00  0.00    -0.246 OA
BRANCH   5  13
ATOM     13  N   UNL     1       1.487  -0.257   1.734  0.00  0.00    -0.343 N 
ATOM     14  H   UNL     1       0.740   0.362   1.751  0.00  0.00    +0.144 HD
ATOM     15  H   UNL     1       1.568  -0.938   2.419  0.00  0.00    +0.144 HD
ENDBRANCH   5  13
BRANCH   4  16
ATOM     16  C   UNL     1       3.769  -1.871   1.900  0.00  0.00    +0.128 C 
BRANCH  16  17
ATOM     17  C   UNL     1       3.160  -3.231   1.551  0.00  0.00    +0.021 C 
BRANCH  17  19
ATOM     18  C   UNL     1       2.765  -5.559   2.369  0.00  0.00    +0.004 C 
ATOM     19  C   UNL     1       3.373  -4.199   2.717  0.00  0.00    -0.002 C 
ENDBRANCH  17  19
ENDBRANCH  16  17
ENDBRANCH   4  16
ENDBRANCH   1   6
BRANCH   1  20
ATOM     20  C   UNL     1       1.218   2.967  -0.323  0.00  0.00    +0.110 C 
ATOM     21  C   UNL     1       1.222   3.406   1.143  0.00  0.00    +0.025 C 
ENDBRANCH   1  20
BRANCH   2  22
ATOM     22  C   UNL     1      -1.359   1.796  -0.516  0.00  0.00    +0.019 C 
BRANCH  22  24
ATOM     23  C   UNL     1      -2.723   0.049   0.459  0.00  0.00    -0.095 C 
ATOM     24  N   UNL     1      -2.540   0.929  -0.714  0.00  0.00    +0.386 N 
ATOM     25  H   UNL     1      -2.392   0.348  -1.547  0.00  0.00    -0.081 HD
BRANCH  24  26
ATOM     26  C   UNL     1      -3.747   1.758  -0.917  0.00  0.00    -0.041 C 
BRANCH  26  27
ATOM     27  C   UNL     1      -4.878   0.869  -1.366  0.00  0.00    -0.043 A 
ATOM     28  C   UNL     1      -5.922   0.590  -0.506  0.00  0.00    +0.003 A 
ATOM     29  C   UNL     1      -6.962  -0.222  -0.920  0.00  0.00    +0.000 A 
ATOM     30  C   UNL     1      -6.955  -0.767  -2.191  0.00  0.00    +0.002 A 
ATOM     31  C   UNL     1      -5.911  -0.496  -3.054  0.00  0.00    +0.023 A 
ATOM     32  C   UNL     1      -4.867   0.323  -2.644  0.00  0.00    +0.031 A 
BRANCH  32  33
ATOM     33  N   UNL     1      -3.810   0.599  -3.514  0.00  0.00    -0.330 N 
ATOM     34  C   UNL     1      -4.263   1.403  -4.655  0.00  0.00    +0.105 C 
ATOM     35  C   UNL     1      -3.058   1.807  -5.507  0.00  0.00    +0.019 C 
ATOM     36  C   UNL     1      -2.342   0.547  -6.000  0.00  0.00    +0.003 C 
ATOM     37  C   UNL     1      -1.923  -0.297  -4.793  0.00  0.00    +0.019 C 
ATOM     38  C   UNL     1      -3.161  -0.640  -3.962  0.00  0.00    +0.105 C 
ENDBRANCH  32  33
ENDBRANCH  26  27
ENDBRANCH  24  26
ENDBRANCH  22  24
ENDBRANCH   2  22
TORSDOF 11
