REMARK  Name = ZINC59500498
REMARK  10 active torsions:
REMARK  status: ('A' for Active; 'I' for Inactive)
REMARK    1  A    between atoms: C_1  and  C_2
REMARK    2  A    between atoms: C_2  and  C_3
REMARK    3  A    between atoms: N_5  and  C_6
REMARK    4  A    between atoms: C_9  and  C_12
REMARK    5  A    between atoms: N_14  and  N_15
REMARK    6  A    between atoms: C_16  and  C_17
REMARK    7  A    between atoms: C_22  and  O_23
REMARK    8  A    between atoms: O_23  and  C_24
REMARK    9  A    between atoms: C_24  and  C_26
REMARK   10  A    between atoms: C_29  and  C_32
REMARK                            x       y       z     vdW  Elec       q    Type
REMARK                         _______ _______ _______ _____ _____    ______ ____
ROOT
ATOM      1  N   UNL     1       4.251  -5.957  -7.266  0.00  0.00    -0.187 NA
ATOM      2  C   UNL     1       3.662  -6.978  -7.811  0.00  0.00    +0.142 C 
ENDROOT
BRANCH   2   3
ATOM      3  C   UNL     1       2.759  -7.822  -7.009  0.00  0.00    +0.038 A 
ATOM      4  C   UNL     1       2.108  -7.292  -5.893  0.00  0.00    +0.028 A 
ATOM      5  C   UNL     1       1.264  -8.088  -5.147  0.00  0.00    +0.019 A 
ATOM      6  C   UNL     1       1.059  -9.412  -5.500  0.00  0.00    +0.019 A 
ATOM      7  C   UNL     1       1.698  -9.948  -6.602  0.00  0.00    +0.048 A 
ATOM      8  C   UNL     1       2.544  -9.161  -7.366  0.00  0.00    +0.141 A 
ATOM      9 BR   UNL     1       0.383  -7.370  -3.635  0.00  0.00    -0.050 Br
BRANCH   8  10
ATOM     10  O   UNL     1       3.167  -9.685  -8.453  0.00  0.00    -0.422 OA
BRANCH  10  11
ATOM     11  C   UNL     1       4.440 -10.103  -8.312  0.00  0.00    +0.344 C 
ATOM     12  O   UNL     1       4.965 -10.092  -7.216  0.00  0.00    -0.245 OA
BRANCH  11  13
ATOM     13  C   UNL     1       5.198 -10.574  -9.489  0.00  0.00    +0.059 A 
ATOM     14  C   UNL     1       4.639 -10.482 -10.765  0.00  0.00    +0.015 A 
ATOM     15  C   UNL     1       5.352 -10.923 -11.860  0.00  0.00    +0.004 A 
ATOM     16  C   UNL     1       6.618 -11.457 -11.696  0.00  0.00    -0.050 A 
ATOM     17  C   UNL     1       7.178 -11.552 -10.434  0.00  0.00    +0.004 A 
ATOM     18  C   UNL     1       6.478 -11.108  -9.331  0.00  0.00    +0.015 A 
ATOM     19  C   UNL     1       7.391 -11.938 -12.897  0.00  0.00    +0.044 C 
ENDBRANCH  11  13
ENDBRANCH  10  11
ENDBRANCH   8  10
ENDBRANCH   2   3
BRANCH   1  22
ATOM     20  C   UNL     1       4.697  -4.651  -5.326  0.00  0.00    +0.263 C 
ATOM     21  O   UNL     1       5.292  -3.848  -6.018  0.00  0.00    -0.268 OA
ATOM     22  N   UNL     1       4.187  -5.770  -5.879  0.00  0.00    -0.203 N 
ATOM     23  H   UNL     1       3.776  -6.445  -5.317  0.00  0.00    +0.178 HD
BRANCH  20  27
ATOM     24  C   UNL     1       4.223  -3.934  -1.167  0.00  0.00    +0.033 A 
ATOM     25  C   UNL     1       4.803  -2.963  -1.977  0.00  0.00    +0.024 A 
ATOM     26  C   UNL     1       4.958  -3.192  -3.326  0.00  0.00    +0.015 A 
ATOM     27  C   UNL     1       4.532  -4.402  -3.881  0.00  0.00    +0.038 A 
ATOM     28  C   UNL     1       3.950  -5.376  -3.064  0.00  0.00    +0.015 A 
ATOM     29  C   UNL     1       3.803  -5.142  -1.715  0.00  0.00    +0.024 A 
BRANCH  24  32
ATOM     30  C   UNL     1       3.765  -2.460   0.638  0.00  0.00    +0.217 C 
ATOM     31  O   UNL     1       3.711  -1.535  -0.144  0.00  0.00    -0.275 OA
ATOM     32  N   UNL     1       4.067  -3.698   0.198  0.00  0.00    -0.286 N 
ATOM     33  H   UNL     1       4.175  -4.425   0.832  0.00  0.00    +0.155 HD
BRANCH  30  35
ATOM     34  C   UNL     1       3.182  -0.746   2.333  0.00  0.00    +0.013 C 
ATOM     35  C   UNL     1       3.496  -2.226   2.103  0.00  0.00    +0.093 C 
ENDBRANCH  30  35
ENDBRANCH  24  32
ENDBRANCH  20  27
ENDBRANCH   1  22
TORSDOF 8
