REMARK  Name = ZINC59577911
REMARK  12 active torsions:
REMARK  status: ('A' for Active; 'I' for Inactive)
REMARK    1  A    between atoms: C_1  and  C_2
REMARK    2  A    between atoms: C_4  and  C_15
REMARK    3  A    between atoms: C_6  and  C_14
REMARK    4  A    between atoms: C_7  and  O_8
REMARK    5  A    between atoms: O_8  and  C_9
REMARK    6  A    between atoms: C_9  and  C_10
REMARK    7  A    between atoms: C_15  and  N_16
REMARK    8  A    between atoms: N_16  and  C_17
REMARK    9  A    between atoms: N_16  and  C_18
REMARK   10  A    between atoms: C_18  and  C_19
REMARK   11  A    between atoms: N_21  and  C_22
REMARK   12  A    between atoms: C_27  and  C_28
REMARK                            x       y       z     vdW  Elec       q    Type
REMARK                         _______ _______ _______ _____ _____    ______ ____
ROOT
ATOM      1  N   UNL     1       1.414  -3.025  -2.959  0.00  0.00    +0.386 N 
ATOM      2  C   UNL     1       2.062  -1.737  -3.243  0.00  0.00    -0.095 C 
ATOM      3  H   UNL     1       1.917  -3.500  -2.224  0.00  0.00    -0.081 HD
ENDROOT
BRANCH   1   4
ATOM      4  C   UNL     1       0.027  -2.792  -2.533  0.00  0.00    -0.043 C 
BRANCH   4   8
ATOM      5  C   UNL     1      -0.003   1.529  -0.011  0.00  0.00    +0.047 C 
ATOM      6  C   UNL     1       0.008   0.022  -0.018  0.00  0.00    -0.008 A 
ATOM      7  C   UNL     1       0.013  -0.664  -1.217  0.00  0.00    +0.008 A 
ATOM      8  C   UNL     1       0.023  -2.047  -1.223  0.00  0.00    -0.063 A 
ATOM      9  C   UNL     1       0.028  -2.746  -0.031  0.00  0.00    +0.008 A 
ATOM     10  C   UNL     1       0.023  -2.065   1.171  0.00  0.00    -0.008 A 
ATOM     11  C   UNL     1       0.019  -0.677   1.180  0.00  0.00    +0.127 A 
ATOM     12  C   UNL     1       0.028  -2.828   2.470  0.00  0.00    +0.047 C 
BRANCH  11  13
ATOM     13  O   UNL     1       0.020  -0.005   2.361  0.00  0.00    -0.483 OA
BRANCH  13  14
ATOM     14  C   UNL     1      -1.252   0.308   2.931  0.00  0.00    +0.342 C 
BRANCH  14  15
ATOM     15  C   UNL     1      -1.050   1.060   4.248  0.00  0.00    +0.424 C 
ATOM     16  F   UNL     1      -0.344   2.243   4.006  0.00  0.00    -0.167 F 
ATOM     17  F   UNL     1      -2.296   1.366   4.807  0.00  0.00    -0.167 F 
ATOM     18  F   UNL     1      -0.325   0.258   5.137  0.00  0.00    -0.167 F 
ENDBRANCH  14  15
ENDBRANCH  13  14
ENDBRANCH  11  13
ENDBRANCH   4   8
ENDBRANCH   1   4
BRANCH   1  19
ATOM     19  C   UNL     1       1.421  -3.854  -4.171  0.00  0.00    +0.019 C 
BRANCH  19  20
ATOM     20  C   UNL     1       2.842  -4.195  -4.538  0.00  0.00    +0.201 C 
ATOM     21  O   UNL     1       3.759  -3.788  -3.857  0.00  0.00    -0.278 OA
ATOM     22  N   UNL     1       3.095  -4.954  -5.624  0.00  0.00    -0.287 N 
ATOM     23  H   UNL     1       2.361  -5.346  -6.122  0.00  0.00    +0.155 HD
BRANCH  22  24
ATOM     24  C   UNL     1       4.415  -5.174  -6.032  0.00  0.00    +0.045 A 
ATOM     25  C   UNL     1       5.408  -4.264  -5.696  0.00  0.00    +0.024 A 
ATOM     26  C   UNL     1       6.710  -4.484  -6.099  0.00  0.00    +0.002 A 
ATOM     27  C   UNL     1       7.025  -5.610  -6.838  0.00  0.00    +0.001 A 
ATOM     28  C   UNL     1       6.039  -6.518  -7.175  0.00  0.00    +0.014 A 
ATOM     29  C   UNL     1       4.736  -6.307  -6.768  0.00  0.00    +0.076 A 
BRANCH  29  30
ATOM     30  C   UNL     1       3.662  -7.301  -7.129  0.00  0.00    +0.419 C 
ATOM     31  F   UNL     1       4.225  -8.348  -7.866  0.00  0.00    -0.166 F 
ATOM     32  F   UNL     1       3.086  -7.810  -5.960  0.00  0.00    -0.166 F 
ATOM     33  F   UNL     1       2.678  -6.667  -7.896  0.00  0.00    -0.166 F 
ENDBRANCH  29  30
ENDBRANCH  22  24
ENDBRANCH  19  20
ENDBRANCH   1  19
TORSDOF 9
