REMARK  Name = ZINC39689394
REMARK  6 active torsions:
REMARK  status: ('A' for Active; 'I' for Inactive)
REMARK    1  A    between atoms: C_1  and  C_2
REMARK    2  A    between atoms: C_6  and  C_8
REMARK    3  A    between atoms: C_8  and  C_9
REMARK    4  A    between atoms: C_9  and  N_10
REMARK    5  A    between atoms: C_11  and  C_13
REMARK    6  A    between atoms: C_24  and  C_26
REMARK                            x       y       z     vdW  Elec       q    Type
REMARK                         _______ _______ _______ _____ _____    ______ ____
ROOT
ATOM      1  C   UNL     1       2.698  -5.534   6.186  0.00  0.00    +0.100 C 
ATOM      2  C   UNL     1       2.123  -4.486   7.165  0.00  0.00    +0.121 C 
ATOM      3  N   UNL     1       2.979  -4.590   8.370  0.00  0.00    -0.296 N 
ATOM      4  C   UNL     1       4.347  -4.787   7.835  0.00  0.00    +0.115 C 
ATOM      5  C   UNL     1       4.158  -5.728   6.628  0.00  0.00    -0.004 C 
ATOM      6  C   UNL     1       5.108  -5.337   5.500  0.00  0.00    -0.010 C 
ATOM      7  C   UNL     1       6.551  -5.594   5.942  0.00  0.00    -0.082 C 
ATOM      8  N   UNL     1       6.717  -7.013   6.278  0.00  0.00    +0.379 N 
ATOM      9  C   UNL     1       5.867  -7.359   7.425  0.00  0.00    -0.082 C 
ATOM     10  C   UNL     1       4.395  -7.176   7.045  0.00  0.00    -0.010 C 
ATOM     11  C   UNL     1       2.599  -4.522   9.662  0.00  0.00    +0.248 C 
ATOM     12  O   UNL     1       3.437  -4.530  10.543  0.00  0.00    -0.270 OA
ATOM     13  H   UNL     1       6.454  -7.578   5.484  0.00  0.00    -0.086 HD
ATOM     14  H   UNL     1       7.682  -7.192   6.511  0.00  0.00    -0.086 HD
ENDROOT
BRANCH  11  15
ATOM     15  C   UNL     1       1.165  -4.438  10.007  0.00  0.00    +0.057 A 
ATOM     16  C   UNL     1       0.288  -3.721   9.189  0.00  0.00    +0.014 A 
ATOM     17  C   UNL     1      -1.049  -3.646   9.517  0.00  0.00    +0.002 A 
ATOM     18  C   UNL     1      -1.525  -4.278  10.652  0.00  0.00    +0.021 A 
ATOM     19  C   UNL     1      -0.663  -4.989  11.468  0.00  0.00    +0.060 A 
ATOM     20  C   UNL     1       0.679  -5.078  11.149  0.00  0.00    +0.071 A 
ATOM     21 CL   UNL     1       1.759  -5.977  12.169  0.00  0.00    -0.081 Cl
ATOM     22 CL   UNL     1      -1.269  -5.777  12.892  0.00  0.00    -0.082 Cl
ENDBRANCH  11  15
BRANCH   1  24
ATOM     23  N   UNL     1       2.522  -5.878   3.743  0.00  0.00    -0.315 N 
ATOM     24  C   UNL     1       2.642  -5.016   4.772  0.00  0.00    +0.218 C 
ATOM     25  O   UNL     1       2.705  -3.824   4.559  0.00  0.00    -0.275 OA
ATOM     26  H   UNL     1       2.472  -6.832   3.913  0.00  0.00    +0.149 HD
BRANCH  23  27
ATOM     27  C   UNL     1       2.468  -5.375   2.368  0.00  0.00    +0.109 C 
BRANCH  27  28
ATOM     28  C   UNL     1       2.333  -6.552   1.399  0.00  0.00    +0.054 C 
BRANCH  28  34
ATOM     29  C   UNL     1      -0.320  -4.907  -2.513  0.00  0.00    +0.044 C 
ATOM     30  C   UNL     1       1.008  -5.248  -1.887  0.00  0.00    -0.050 A 
ATOM     31  C   UNL     1       2.175  -5.086  -2.610  0.00  0.00    +0.003 A 
ATOM     32  C   UNL     1       3.393  -5.399  -2.036  0.00  0.00    +0.001 A 
ATOM     33  C   UNL     1       3.444  -5.873  -0.738  0.00  0.00    +0.004 A 
ATOM     34  C   UNL     1       2.277  -6.034  -0.015  0.00  0.00    -0.046 A 
ATOM     35  C   UNL     1       1.059  -5.718  -0.588  0.00  0.00    +0.007 A 
ENDBRANCH  28  34
ENDBRANCH  27  28
ENDBRANCH  23  27
ENDBRANCH   1  24
TORSDOF 5
