REMARK  Name = ZINC48257718
REMARK  9 active torsions:
REMARK  status: ('A' for Active; 'I' for Inactive)
REMARK    1  A    between atoms: C_1  and  C_2
REMARK    2  A    between atoms: C_2  and  C_3
REMARK    3  A    between atoms: N_5  and  C_6
REMARK    4  A    between atoms: C_9  and  C_29
REMARK    5  A    between atoms: C_10  and  N_12
REMARK    6  A    between atoms: N_15  and  C_16
REMARK    7  A    between atoms: C_16  and  C_17
REMARK    8  A    between atoms: C_17  and  C_18
REMARK    9  A    between atoms: C_17  and  N_19
REMARK                            x       y       z     vdW  Elec       q    Type
REMARK                         _______ _______ _______ _____ _____    ______ ____
ROOT
ATOM      1  N   UNL     1       1.909  -5.568   3.594  0.00  0.00    -0.269 N 
ATOM      2  C   UNL     1       1.622  -6.444   2.612  0.00  0.00    +0.304 C 
ATOM      3  O   UNL     1       1.006  -6.077   1.630  0.00  0.00    -0.253 OA
ATOM      4  N   UNL     1       2.017  -7.729   2.718  0.00  0.00    -0.301 N 
ATOM      5  H   UNL     1       2.336  -5.875   4.409  0.00  0.00    +0.156 HD
ATOM      6  H   UNL     1       2.508  -8.022   3.501  0.00  0.00    +0.150 HD
ENDROOT
BRANCH   1  11
ATOM      7  C   UNL     1       0.146  -2.500   2.577  0.00  0.00    +0.035 A 
ATOM      8  C   UNL     1       0.969  -1.530   3.135  0.00  0.00    +0.024 A 
ATOM      9  C   UNL     1       2.097  -1.902   3.841  0.00  0.00    +0.007 A 
ATOM     10  C   UNL     1       2.410  -3.239   3.994  0.00  0.00    -0.029 A 
ATOM     11  C   UNL     1       1.591  -4.214   3.439  0.00  0.00    +0.039 A 
ATOM     12  C   UNL     1       0.454  -3.844   2.734  0.00  0.00    +0.047 A 
ATOM     13  C   UNL     1       3.641  -3.640   4.765  0.00  0.00    +0.045 C 
BRANCH   7  16
ATOM     14  C   UNL     1      -0.980  -1.007   1.107  0.00  0.00    +0.217 C 
ATOM     15  O   UNL     1      -0.008  -0.281   1.117  0.00  0.00    -0.275 OA
ATOM     16  N   UNL     1      -0.996  -2.123   1.862  0.00  0.00    -0.285 N 
ATOM     17  H   UNL     1      -1.800  -2.664   1.910  0.00  0.00    +0.155 HD
BRANCH  14  19
ATOM     18  C   UNL     1      -1.895   0.644  -0.501  0.00  0.00    +0.013 C 
ATOM     19  C   UNL     1      -2.170  -0.661   0.248  0.00  0.00    +0.093 C 
ENDBRANCH  14  19
ENDBRANCH   7  16
ENDBRANCH   1  11
BRANCH   4  20
ATOM     20  C   UNL     1       1.705  -8.681   1.650  0.00  0.00    +0.090 C 
BRANCH  20  21
ATOM     21  C   UNL     1       2.149 -10.084   2.071  0.00  0.00    -0.054 C 
ATOM     22  C   UNL     1       1.760 -11.090   0.987  0.00  0.00    -0.012 C 
BRANCH  21  23
ATOM     23  N   UNL     1       1.492 -10.446   3.334  0.00  0.00    +0.385 N 
ATOM     24  C   UNL     1       1.972 -11.764   3.778  0.00  0.00    -0.073 C 
ATOM     25  C   UNL     1       1.523 -11.986   5.223  0.00  0.00    +0.017 C 
ATOM     26  C   UNL     1       0.044 -11.720   5.343  0.00  0.00    -0.048 A 
ATOM     27  C   UNL     1      -0.627 -12.186   6.463  0.00  0.00    +0.004 A 
ATOM     28  C   UNL     1      -1.981 -11.959   6.609  0.00  0.00    +0.000 A 
ATOM     29  C   UNL     1      -2.670 -11.262   5.634  0.00  0.00    +0.000 A 
ATOM     30  C   UNL     1      -2.003 -10.799   4.518  0.00  0.00    +0.002 A 
ATOM     31  C   UNL     1      -0.644 -11.027   4.369  0.00  0.00    -0.061 A 
ATOM     32  C   UNL     1       0.042 -10.511   3.131  0.00  0.00    -0.042 C 
ATOM     33  H   UNL     1       1.704  -9.754   4.037  0.00  0.00    -0.081 HD
ENDBRANCH  21  23
ENDBRANCH  20  21
ENDBRANCH   4  20
TORSDOF 6
