REMARK  Name = ZINC40118290
REMARK  4 active torsions:
REMARK  status: ('A' for Active; 'I' for Inactive)
REMARK    1  A    between atoms: C_1  and  O_2
REMARK    2  A    between atoms: O_2  and  C_3
REMARK    3  A    between atoms: C_10  and  N_13
REMARK    4  A    between atoms: C_14  and  C_15
REMARK                            x       y       z     vdW  Elec       q    Type
REMARK                         _______ _______ _______ _____ _____    ______ ____
ROOT
ATOM      1  N   UNL     1       3.236  -5.306  -3.194  0.00  0.00    -0.363 N 
ATOM      2  C   UNL     1       3.328  -6.550  -3.548  0.00  0.00    +0.095 C 
ATOM      3  H   UNL     1       3.954  -4.890  -2.692  0.00  0.00    +0.162 HD
ENDROOT
BRANCH   1  11
ATOM      4  C   UNL     1       0.606  -0.608  -1.056  0.00  0.00    +0.122 A 
ATOM      5  C   UNL     1       1.170   0.171  -2.057  0.00  0.00    +0.047 A 
ATOM      6  C   UNL     1       1.782  -0.456  -3.129  0.00  0.00    +0.020 A 
ATOM      7  C   UNL     1       1.824  -1.831  -3.188  0.00  0.00    +0.032 A 
ATOM      8  C   UNL     1       1.266  -2.645  -2.197  0.00  0.00    +0.046 A 
ATOM      9  C   UNL     1       0.655  -1.985  -1.117  0.00  0.00    +0.069 A 
ATOM     10  N   UNL     1       1.363  -4.027  -2.353  0.00  0.00    -0.315 N 
ATOM     11  C   UNL     1       2.047  -4.529  -3.552  0.00  0.00    +0.230 C 
ATOM     12  S   UNL     1       2.509  -2.956  -4.383  0.00  0.00    -0.079 S 
ATOM     13  H   UNL     1       0.992  -4.634  -1.694  0.00  0.00    +0.149 HD
BRANCH   4  15
ATOM     14  C   UNL     1      -0.017   1.425   0.010  0.00  0.00    +0.277 C 
ATOM     15  O   UNL     1       0.002  -0.004   0.002  0.00  0.00    -0.495 OA
ENDBRANCH   4  15
ENDBRANCH   1  11
BRANCH   2  16
ATOM     16  C   UNL     1       4.521  -7.330  -3.189  0.00  0.00    +0.071 A 
ATOM     17  C   UNL     1       5.553  -6.759  -2.470  0.00  0.00    +0.102 A 
ATOM     18  N   UNL     1       6.641  -7.512  -2.155  0.00  0.00    -0.314 N 
ATOM     19  H   UNL     1       7.365  -7.110  -1.650  0.00  0.00    +0.170 HD
ATOM     20  C   UNL     1       6.735  -8.798  -2.528  0.00  0.00    +0.327 A 
ATOM     21  O   UNL     1       7.729  -9.428  -2.222  0.00  0.00    -0.247 OA
ATOM     22  N   UNL     1       5.766  -9.412  -3.228  0.00  0.00    -0.275 N 
ATOM     23  H   UNL     1       5.870 -10.343  -3.479  0.00  0.00    +0.173 HD
ATOM     24  C   UNL     1       4.648  -8.743  -3.580  0.00  0.00    +0.262 A 
ATOM     25  O   UNL     1       3.765  -9.295  -4.210  0.00  0.00    -0.267 OA
ENDBRANCH   2  16
TORSDOF 3
