REMARK  Name = ZINC04856922
REMARK  8 active torsions:
REMARK  status: ('A' for Active; 'I' for Inactive)
REMARK    1  A    between atoms: C_1  and  C_2
REMARK    2  A    between atoms: C_2  and  C_3
REMARK    3  A    between atoms: C_6  and  N_9
REMARK    4  A    between atoms: N_9  and  C_10
REMARK    5  A    between atoms: C_10  and  N_12
REMARK    6  A    between atoms: N_12  and  C_13
REMARK    7  A    between atoms: C_22  and  C_23
REMARK    8  A    between atoms: C_22  and  N_53
REMARK                            x       y       z     vdW  Elec       q    Type
REMARK                         _______ _______ _______ _____ _____    ______ ____
ROOT
ATOM      1  C   UNL     1      -2.283   5.699   6.955  0.00  0.00    +0.069 C 
ATOM      2  C   UNL     1      -3.334   6.224   7.937  0.00  0.00    +0.007 C 
ATOM      3  C   UNL     1      -3.458   5.237   9.109  0.00  0.00    -0.066 C 
ATOM      4  C   UNL     1      -3.576   3.814   8.518  0.00  0.00    -0.017 C 
ATOM      5  C   UNL     1      -2.120   3.325   8.371  0.00  0.00    -0.017 C 
ATOM      6  C   UNL     1      -1.254   4.497   8.886  0.00  0.00    -0.066 C 
ATOM      7  C   UNL     1      -0.971   5.430   7.698  0.00  0.00    +0.007 C 
ATOM      8  N   UNL     1      -2.154   5.220   9.779  0.00  0.00    +0.387 N 
ATOM      9  H   UNL     1      -1.815   6.179   9.920  0.00  0.00    -0.081 HD
ENDROOT
BRANCH   1  10
ATOM     10  N   UNL     1      -2.763   4.456   6.347  0.00  0.00    -0.324 N 
ATOM     11  H   UNL     1      -2.962   3.688   6.905  0.00  0.00    +0.148 HD
BRANCH  10  12
ATOM     12  C   UNL     1      -2.926   4.378   5.011  0.00  0.00    +0.135 C 
ATOM     13  S   UNL     1      -2.574   5.733   4.026  0.00  0.00    -0.019 S 
BRANCH  12  14
ATOM     14  N   UNL     1      -3.367   3.234   4.452  0.00  0.00    -0.297 N 
ATOM     15  H   UNL     1      -3.626   2.487   5.014  0.00  0.00    +0.154 HD
BRANCH  14  19
ATOM     16  C   UNL     1      -3.621   2.906   0.307  0.00  0.00    -0.048 A 
ATOM     17  C   UNL     1      -4.090   4.043   0.939  0.00  0.00    +0.005 A 
ATOM     18  C   UNL     1      -4.012   4.153   2.313  0.00  0.00    +0.023 A 
ATOM     19  C   UNL     1      -3.452   3.124   3.060  0.00  0.00    +0.033 A 
ATOM     20  C   UNL     1      -2.977   1.986   2.421  0.00  0.00    +0.023 A 
ATOM     21  C   UNL     1      -3.063   1.880   1.047  0.00  0.00    +0.005 A 
BRANCH  16  23
ATOM     22  C   UNL     1      -5.043   2.133  -1.572  0.00  0.00    +0.009 C 
ATOM     23  C   UNL     1      -3.713   2.787  -1.193  0.00  0.00    +0.032 C 
ENDBRANCH  16  23
ENDBRANCH  14  19
ENDBRANCH  12  14
ENDBRANCH  10  12
ENDBRANCH   1  10
BRANCH   8  24
ATOM     24  C   UNL     1      -2.255   4.533  11.108  0.00  0.00    -0.035 C 
BRANCH  24  25
ATOM     25  C   UNL     1      -0.994   4.756  11.903  0.00  0.00    -0.027 A 
ATOM     26  C   UNL     1      -0.705   5.743  12.785  0.00  0.00    +0.009 A 
ATOM     27  C   UNL     1       0.531   5.747  13.405  0.00  0.00    +0.008 A 
ATOM     28  C   UNL     1       1.416   4.763  13.113  0.00  0.00    +0.045 A 
ATOM     29  S   UNL     1       0.503   3.783  11.933  0.00  0.00    -0.103 S 
ENDBRANCH  24  25
ENDBRANCH   8  24
TORSDOF 7
