REMARK  Name = ZINC09588472
REMARK  7 active torsions:
REMARK  status: ('A' for Active; 'I' for Inactive)
REMARK    1  A    between atoms: C_4  and  C_7
REMARK    2  A    between atoms: C_7  and  N_8
REMARK    3  A    between atoms: N_15  and  C_22
REMARK    4  A    between atoms: C_22  and  C_23
REMARK    5  A    between atoms: N_25  and  C_26
REMARK    6  A    between atoms: C_26  and  C_27
REMARK    7  A    between atoms: C_27  and  C_28
REMARK                            x       y       z     vdW  Elec       q    Type
REMARK                         _______ _______ _______ _____ _____    ______ ____
ROOT
ATOM      1  N   UNL     1       1.142   2.033   0.002  0.00  0.00    -0.295 N 
ATOM      2  C   UNL     1      -0.016   1.344   0.009  0.00  0.00    +0.307 C 
ATOM      3  O   UNL     1      -1.077   1.937   0.018  0.00  0.00    -0.252 OA
ATOM      4  N   UNL     1       0.002  -0.004   0.002  0.00  0.00    -0.245 N 
ATOM      5  C   UNL     1       1.272  -0.746  -0.014  0.00  0.00    +0.211 C 
ATOM      6  C   UNL     1       1.153  -1.904  -0.971  0.00  0.00    +0.238 C 
ATOM      7  O   UNL     1       2.142  -2.315  -1.540  0.00  0.00    -0.273 OA
ATOM      8  N   UNL     1      -0.038  -2.488  -1.202  0.00  0.00    -0.260 N 
ATOM      9  C   UNL     1      -1.203  -2.002  -0.598  0.00  0.00    +0.058 A 
ATOM     10  C   UNL     1      -1.191  -0.745   0.015  0.00  0.00    +0.060 A 
ATOM     11  C   UNL     1      -2.336  -0.248   0.604  0.00  0.00    +0.025 A 
ATOM     12  C   UNL     1      -3.495  -1.004   0.599  0.00  0.00    +0.002 A 
ATOM     13  C   UNL     1      -3.509  -2.251   0.002  0.00  0.00    +0.002 A 
ATOM     14  C   UNL     1      -2.368  -2.752  -0.597  0.00  0.00    +0.025 A 
ATOM     15  H   UNL     1       1.988   1.560  -0.009  0.00  0.00    +0.151 HD
ENDROOT
BRANCH   1  16
ATOM     16  C   UNL     1       1.122   3.498   0.010  0.00  0.00    +0.141 C 
BRANCH  16  20
ATOM     17  C   UNL     1       5.129   4.977  -0.020  0.00  0.00    +0.000 A 
ATOM     18  C   UNL     1       4.469   4.744  -1.212  0.00  0.00    +0.000 A 
ATOM     19  C   UNL     1       3.173   4.265  -1.203  0.00  0.00    +0.005 A 
ATOM     20  C   UNL     1       2.536   4.020  -0.001  0.00  0.00    -0.030 A 
ATOM     21  C   UNL     1       3.193   4.258   1.192  0.00  0.00    +0.005 A 
ATOM     22  C   UNL     1       4.492   4.732   1.182  0.00  0.00    +0.000 A 
ENDBRANCH  16  20
ENDBRANCH   1  16
BRANCH   8  23
ATOM     23  C   UNL     1      -0.116  -3.646  -2.096  0.00  0.00    +0.209 C 
BRANCH  23  24
ATOM     24  C   UNL     1       0.069  -4.910  -1.298  0.00  0.00    +0.231 C 
ATOM     25  O   UNL     1       0.247  -4.851  -0.100  0.00  0.00    -0.274 OA
ATOM     26  N   UNL     1       0.035  -6.108  -1.915  0.00  0.00    -0.314 N 
ATOM     27  H   UNL     1      -0.108  -6.156  -2.874  0.00  0.00    +0.149 HD
BRANCH  26  28
ATOM     28  C   UNL     1       0.215  -7.338  -1.139  0.00  0.00    +0.108 C 
BRANCH  28  29
ATOM     29  C   UNL     1       0.134  -8.547  -2.074  0.00  0.00    +0.049 C 
BRANCH  29  30
ATOM     30  C   UNL     1       0.319  -9.811  -1.275  0.00  0.00    -0.072 C 
ATOM     31  C   UNL     1      -0.742 -10.431  -0.866  0.00  0.00    -0.028 C 
ATOM     32  C   UNL     1      -0.717 -11.694  -0.055  0.00  0.00    +0.027 C 
ATOM     33  C   UNL     1       0.660 -12.354  -0.148  0.00  0.00    +0.004 C 
ATOM     34  C   UNL     1       1.728 -11.290   0.140  0.00  0.00    +0.005 C 
ATOM     35  C   UNL     1       1.720 -10.277  -1.009  0.00  0.00    +0.030 C 
ENDBRANCH  29  30
ENDBRANCH  28  29
ENDBRANCH  26  28
ENDBRANCH  23  24
ENDBRANCH   8  23
TORSDOF 7
