REMARK  Name = ZINC42894326
REMARK  5 active torsions:
REMARK  status: ('A' for Active; 'I' for Inactive)
REMARK    1  A    between atoms: C_1  and  C_2
REMARK    2  A    between atoms: C_9  and  C_11
REMARK    3  A    between atoms: C_13  and  C_16
REMARK    4  A    between atoms: C_16  and  C_18
REMARK    5  A    between atoms: C_16  and  N_21
REMARK                            x       y       z     vdW  Elec       q    Type
REMARK                         _______ _______ _______ _____ _____    ______ ____
ROOT
ATOM      1  C   UNL     1       0.089  -5.623   2.222  0.00  0.00    +0.294 A 
ATOM      2  N   UNL     1       0.107  -6.790   1.612  0.00  0.00    -0.191 NA
ATOM      3  C   UNL     1       0.123  -7.774   2.512  0.00  0.00    +0.158 A 
ATOM      4  N   UNL     1       0.116  -7.259   3.709  0.00  0.00    -0.062 NA
ATOM      5  O   UNL     1       0.099  -5.848   3.549  0.00  0.00    -0.330 OA
ENDROOT
BRANCH   1  14
ATOM      6  C   UNL     1      -0.018   1.503   0.010  0.00  0.00    +0.044 C 
ATOM      7  C   UNL     1       0.002  -0.004   0.002  0.00  0.00    -0.050 A 
ATOM      8  C   UNL     1       0.006  -0.687  -1.206  0.00  0.00    +0.007 A 
ATOM      9  C   UNL     1       0.024  -2.065  -1.237  0.00  0.00    +0.047 A 
ATOM     10  C   UNL     1       0.040  -2.783  -0.047  0.00  0.00    +0.136 A 
ATOM     11  C   UNL     1       0.037  -2.086   1.175  0.00  0.00    +0.021 A 
ATOM     12  C   UNL     1       0.023  -0.689   1.184  0.00  0.00    +0.015 A 
ATOM     13  C   UNL     1       0.056  -3.112   2.217  0.00  0.00    +0.063 A 
ATOM     14  C   UNL     1       0.068  -4.306   1.569  0.00  0.00    +0.193 A 
ATOM     15  O   UNL     1       0.059  -4.101   0.236  0.00  0.00    -0.450 OA
ENDBRANCH   1  14
BRANCH   3  16
ATOM     16  C   UNL     1       0.145  -9.247   2.195  0.00  0.00    +0.001 C 
BRANCH  16  17
ATOM     17  N   UNL     1      -0.822  -9.947   3.051  0.00  0.00    +0.385 N 
ATOM     18  H   UNL     1      -0.577  -9.807   4.019  0.00  0.00    -0.089 HD
ATOM     19  H   UNL     1      -1.747  -9.581   2.882  0.00  0.00    -0.089 HD
ATOM     20  H   UNL     1      -0.807 -10.933   2.838  0.00  0.00    -0.089 HD
ENDBRANCH  16  17
BRANCH  16  21
ATOM     21  C   UNL     1       1.548  -9.803   2.451  0.00  0.00    -0.018 C 
ATOM     22  C   UNL     1       2.365 -10.247   1.236  0.00  0.00    +0.002 C 
ATOM     23  C   UNL     1       1.777 -11.292   2.187  0.00  0.00    +0.002 C 
ENDBRANCH  16  21
ENDBRANCH   3  16
TORSDOF 4
