REMARK  Name = ZINC51336607
REMARK  13 active torsions:
REMARK  status: ('A' for Active; 'I' for Inactive)
REMARK    1  A    between atoms: C_1  and  C_2
REMARK    2  A    between atoms: C_2  and  N_3
REMARK    3  A    between atoms: N_3  and  C_4
REMARK    4  A    between atoms: N_3  and  C_6
REMARK    5  A    between atoms: C_4  and  C_5
REMARK    6  A    between atoms: C_6  and  C_7
REMARK    7  A    between atoms: C_7  and  N_8
REMARK    8  A    between atoms: C_9  and  C_11
REMARK    9  A    between atoms: C_11  and  O_12
REMARK   10  A    between atoms: O_12  and  N_13
REMARK   11  A    between atoms: C_17  and  C_37
REMARK   12  A    between atoms: C_22  and  C_36
REMARK   13  A    between atoms: C_33  and  O_35
REMARK                            x       y       z     vdW  Elec       q    Type
REMARK                         _______ _______ _______ _____ _____    ______ ____
ROOT
ATOM      1  N   UNL     1       0.554  -7.084   5.491  0.00  0.00    -0.089 NA
ATOM      2  C   UNL     1       1.141  -7.414   6.600  0.00  0.00    +0.080 C 
ATOM      3  C   UNL     1       1.785  -6.371   7.491  0.00  0.00    +0.059 C 
ATOM      4  C   UNL     1       3.119  -6.921   7.980  0.00  0.00    +0.017 C 
ATOM      5  C   UNL     1       2.966  -8.247   8.715  0.00  0.00    -0.007 C 
ATOM      6  C   UNL     1       4.333  -8.933   8.757  0.00  0.00    +0.002 C 
ATOM      7  C   UNL     1       5.412  -8.130   9.466  0.00  0.00    +0.005 C 
ATOM      8  C   UNL     1       6.791  -8.741   9.161  0.00  0.00    +0.010 C 
ATOM      9  C   UNL     1       6.695 -10.241   9.030  0.00  0.00    -0.003 C 
ATOM     10  C   UNL     1       5.530 -10.806   9.864  0.00  0.00    +0.001 C 
ATOM     11  C   UNL     1       4.192 -10.307   9.423  0.00  0.00    -0.003 C 
ATOM     12  C   UNL     1       3.396 -11.216   8.497  0.00  0.00    +0.008 C 
ATOM     13  C   UNL     1       1.967 -10.650   8.435  0.00  0.00    +0.031 C 
ATOM     14  C   UNL     1       2.010  -9.189   8.030  0.00  0.00    -0.062 C 
ATOM     15  C   UNL     1       1.187  -8.809   7.060  0.00  0.00    +0.026 C 
ATOM     16  C   UNL     1       5.774 -12.317   9.809  0.00  0.00    +0.007 C 
ATOM     17  C   UNL     1       7.318 -12.455   9.776  0.00  0.00    +0.032 C 
ATOM     18  C   UNL     1       7.880 -11.012   9.659  0.00  0.00    +0.121 C 
ATOM     19  C   UNL     1       6.604 -10.655   7.559  0.00  0.00    +0.014 C 
ATOM     20  C   UNL     1       2.470  -7.955  10.127  0.00  0.00    +0.016 C 
ENDROOT
BRANCH  18  21
ATOM     21  O   UNL     1       8.195 -10.488  10.948  0.00  0.00    -0.391 OA
ATOM     22  H   UNL     1       8.932 -10.937  11.385  0.00  0.00    +0.210 HD
ENDBRANCH  18  21
BRANCH   1  23
ATOM     23  O   UNL     1       0.529  -5.729   5.079  0.00  0.00    -0.384 OA
BRANCH  23  24
ATOM     24  C   UNL     1      -0.150  -5.511   3.841  0.00  0.00    +0.358 C 
BRANCH  24  26
ATOM     25  N   UNL     1      -0.697  -3.599   2.370  0.00  0.00    -0.314 N 
ATOM     26  C   UNL     1      -0.115  -4.043   3.501  0.00  0.00    +0.253 C 
ATOM     27  O   UNL     1       0.436  -3.261   4.247  0.00  0.00    -0.272 OA
ATOM     28  H   UNL     1      -1.138  -4.225   1.774  0.00  0.00    +0.149 HD
BRANCH  25  29
ATOM     29  C   UNL     1      -0.664  -2.172   2.040  0.00  0.00    +0.086 C 
BRANCH  29  30
ATOM     30  C   UNL     1      -1.391  -1.938   0.714  0.00  0.00    -0.060 C 
BRANCH  30  31
ATOM     31  N   UNL     1      -1.357  -0.507   0.383  0.00  0.00    +0.380 N 
ATOM     32  H   UNL     1      -1.740   0.024   1.150  0.00  0.00    -0.082 HD
BRANCH  31  34
ATOM     33  C   UNL     1       0.083   1.423  -0.060  0.00  0.00    -0.017 C 
ATOM     34  C   UNL     1       0.031  -0.092   0.144  0.00  0.00    -0.082 C 
ENDBRANCH  31  34
BRANCH  31  35
ATOM     35  C   UNL     1      -2.156  -0.266  -0.826  0.00  0.00    -0.082 C 
ATOM     36  C   UNL     1      -3.628  -0.562  -0.533  0.00  0.00    -0.017 C 
ENDBRANCH  31  35
ENDBRANCH  30  31
ENDBRANCH  29  30
ENDBRANCH  25  29
ENDBRANCH  24  26
ENDBRANCH  23  24
ENDBRANCH   1  23
TORSDOF 9
