REMARK  Name = ZINC15961946
REMARK  6 active torsions:
REMARK  status: ('A' for Active; 'I' for Inactive)
REMARK    1  A    between atoms: C_1  and  C_2
REMARK    2  A    between atoms: C_5  and  N_8
REMARK    3  A    between atoms: N_9  and  C_10
REMARK    4  A    between atoms: C_16  and  C_22
REMARK    5  A    between atoms: C_17  and  C_20
REMARK    6  A    between atoms: C_18  and  N_19
REMARK                            x       y       z     vdW  Elec       q    Type
REMARK                         _______ _______ _______ _____ _____    ______ ____
ROOT
ATOM      1  C   UNL     1       0.088  -6.141   1.085  0.00  0.00    +0.171 A 
ATOM      2  C   UNL     1       0.100  -6.978  -0.056  0.00  0.00    +0.168 A 
ATOM      3  N   UNL     1       0.116  -8.227   0.343  0.00  0.00    -0.146 NA
ATOM      4  N   UNL     1       0.116  -8.270   1.741  0.00  0.00    -0.196 N 
ATOM      5  C   UNL     1       0.105  -6.986   2.212  0.00  0.00    +0.187 A 
ATOM      6  N   UNL     1       0.108  -6.728   3.522  0.00  0.00    -0.230 NA
ATOM      7  C   UNL     1       0.125  -7.694   4.412  0.00  0.00    +0.061 A 
ATOM      8  C   UNL     1       0.141  -9.038   3.993  0.00  0.00    +0.112 A 
ATOM      9  C   UNL     1       0.129  -9.315   2.621  0.00  0.00    +0.139 A 
ATOM     10  C   UNL     1       0.129  -7.363   5.883  0.00  0.00    +0.067 C 
ATOM     11  N   UNL     1       0.094  -6.547  -1.381  0.00  0.00    -0.340 N 
ATOM     12  H   UNL     1       0.082  -5.598  -1.582  0.00  0.00    +0.144 HD
ATOM     13  H   UNL     1       0.103  -7.196  -2.102  0.00  0.00    +0.144 HD
ENDROOT
BRANCH   9  14
ATOM     14  N   UNL     1       0.145 -10.608   2.169  0.00  0.00    -0.342 N 
ATOM     15  H   UNL     1       0.147 -10.789   1.216  0.00  0.00    +0.144 HD
ATOM     16  H   UNL     1       0.154 -11.343   2.802  0.00  0.00    +0.144 HD
ENDBRANCH   9  14
BRANCH   1  18
ATOM     17  N   UNL     1       0.057  -4.141  -0.021  0.00  0.00    -0.149 NA
ATOM     18  N   UNL     1       0.071  -4.792   1.093  0.00  0.00    -0.142 NA
BRANCH  17  23
ATOM     19  C   UNL     1      -0.018   1.503   0.010  0.00  0.00    +0.044 C 
ATOM     20  C   UNL     1       0.002  -0.004   0.002  0.00  0.00    -0.050 A 
ATOM     21  C   UNL     1       0.006  -0.686  -1.202  0.00  0.00    +0.005 A 
ATOM     22  C   UNL     1       0.024  -2.065  -1.217  0.00  0.00    +0.030 A 
ATOM     23  C   UNL     1       0.039  -2.773  -0.013  0.00  0.00    +0.086 A 
ATOM     24  C   UNL     1       0.036  -2.078   1.199  0.00  0.00    +0.030 A 
ATOM     25  C   UNL     1       0.023  -0.699   1.198  0.00  0.00    +0.005 A 
ENDBRANCH  17  23
ENDBRANCH   1  18
BRANCH   8  26
ATOM     26  C   UNL     1       0.160 -10.101   4.952  0.00  0.00    +0.104 C 
ATOM     27  N   UNL     1       0.175 -10.945   5.713  0.00  0.00    -0.191 NA
ENDBRANCH   8  26
TORSDOF 4
