REMARK  Name = ZINC14460988
REMARK  8 active torsions:
REMARK  status: ('A' for Active; 'I' for Inactive)
REMARK    1  A    between atoms: C_2  and  C_3
REMARK    2  A    between atoms: C_3  and  N_4
REMARK    3  A    between atoms: N_4  and  C_5
REMARK    4  A    between atoms: N_4  and  S_8
REMARK    5  A    between atoms: C_5  and  C_6
REMARK    6  A    between atoms: S_8  and  C_11
REMARK    7  A    between atoms: C_24  and  C_27
REMARK    8  A    between atoms: C_32  and  O_33
REMARK                            x       y       z     vdW  Elec       q    Type
REMARK                         _______ _______ _______ _____ _____    ______ ____
ROOT
ATOM      1  C   UNL     1      -0.128   0.137   0.026  0.00  0.00    +0.106 A 
ATOM      2  C   UNL     1       1.049  -0.590   0.014  0.00  0.00    +0.030 A 
ATOM      3  C   UNL     1       2.261   0.072  -0.001  0.00  0.00    +0.025 A 
ATOM      4  C   UNL     1       2.294   1.461  -0.003  0.00  0.00    +0.031 A 
ATOM      5  C   UNL     1       1.119   2.191   0.012  0.00  0.00    -0.018 A 
ATOM      6  C   UNL     1      -0.094   1.516   0.025  0.00  0.00    +0.034 A 
ATOM      7  C   UNL     1       1.090   3.704   0.010  0.00  0.00    +0.049 C 
ATOM      8  C   UNL     1       0.356   4.133   1.274  0.00  0.00    -0.023 C 
ATOM      9  C   UNL     1       1.210   4.400   2.230  0.00  0.00    -0.030 C 
ATOM     10  C   UNL     1       2.642   4.205   1.744  0.00  0.00    +0.033 C 
ATOM     11  C   UNL     1       2.493   4.307   0.207  0.00  0.00    +0.029 C 
ATOM     12  C   UNL     1       3.566   3.501  -0.500  0.00  0.00    +0.108 C 
ATOM     13  N   UNL     1       3.532   2.114  -0.023  0.00  0.00    -0.336 N 
ATOM     14  H   UNL     1       4.341   1.664   0.268  0.00  0.00    +0.147 HD
ENDROOT
BRANCH  12  15
ATOM     15  C   UNL     1       3.317   3.527  -1.986  0.00  0.00    +0.015 A 
ATOM     16  C   UNL     1       2.749   2.434  -2.611  0.00  0.00    +0.024 A 
ATOM     17  C   UNL     1       2.519   2.458  -3.975  0.00  0.00    +0.018 A 
ATOM     18  C   UNL     1       2.859   3.576  -4.716  0.00  0.00    +0.019 A 
ATOM     19  C   UNL     1       3.427   4.672  -4.095  0.00  0.00    +0.047 A 
ATOM     20  C   UNL     1       3.652   4.652  -2.726  0.00  0.00    +0.122 A 
ATOM     21 BR   UNL     1       1.741   0.961  -4.828  0.00  0.00    -0.050 Br
BRANCH  20  22
ATOM     22  O   UNL     1       4.206   5.730  -2.111  0.00  0.00    -0.506 OA
ATOM     23  H   UNL     1       5.172   5.709  -2.075  0.00  0.00    +0.292 HD
ENDBRANCH  20  22
ENDBRANCH  12  15
BRANCH   1  24
ATOM     24  S   UNL     1      -1.677  -0.703   0.043  0.00  0.00    +0.061 S 
ATOM     25  O   UNL     1      -1.434  -1.991   0.592  0.00  0.00    -0.153 OA
ATOM     26  O   UNL     1      -2.621   0.198   0.604  0.00  0.00    -0.153 OA
BRANCH  24  27
ATOM     27  N   UNL     1      -2.124  -0.938  -1.534  0.00  0.00    -0.169 NA
BRANCH  27  28
ATOM     28  C   UNL     1      -1.717  -2.156  -2.237  0.00  0.00    +0.136 C 
BRANCH  28  30
ATOM     29  C   UNL     1      -3.309  -3.712  -3.241  0.00  0.00    +0.005 C 
ATOM     30  C   UNL     1      -2.820  -3.179  -2.149  0.00  0.00    -0.018 C 
ENDBRANCH  28  30
ENDBRANCH  27  28
BRANCH  27  31
ATOM     31  C   UNL     1      -2.926   0.074  -2.226  0.00  0.00    +0.136 C 
BRANCH  31  32
ATOM     32  C   UNL     1      -2.017   0.996  -2.997  0.00  0.00    -0.018 C 
ATOM     33  C   UNL     1      -2.202   1.175  -4.281  0.00  0.00    +0.005 C 
ENDBRANCH  31  32
ENDBRANCH  27  31
ENDBRANCH  24  27
ENDBRANCH   1  24
TORSDOF 8
