REMARK  Name = ZINC65305850
REMARK  8 active torsions:
REMARK  status: ('A' for Active; 'I' for Inactive)
REMARK    1  A    between atoms: C_1  and  C_2
REMARK    2  A    between atoms: C_2  and  C_3
REMARK    3  A    between atoms: C_2  and  C_4
REMARK    4  A    between atoms: C_4  and  C_5
REMARK    5  A    between atoms: C_5  and  C_7
REMARK    6  A    between atoms: C_5  and  N_19
REMARK    7  A    between atoms: N_9  and  C_10
REMARK    8  A    between atoms: C_20  and  C_22
REMARK                            x       y       z     vdW  Elec       q    Type
REMARK                         _______ _______ _______ _____ _____    ______ ____
ROOT
ATOM      1  C   UNL     1      -2.135  -0.131  -1.286  0.00  0.00    +0.159 C 
ENDROOT
BRANCH   1   2
ATOM      2  C   UNL     1      -3.583  -0.545  -1.223  0.00  0.00    +0.236 C 
ATOM      3  O   UNL     1      -4.028  -1.319  -2.044  0.00  0.00    -0.274 OA
ATOM      4  N   UNL     1      -4.383  -0.056  -0.256  0.00  0.00    -0.277 N 
ATOM      5  H   UNL     1      -4.027   0.564   0.401  0.00  0.00    +0.152 HD
BRANCH   4   6
ATOM      6  C   UNL     1      -5.790  -0.458  -0.195  0.00  0.00    +0.269 C 
ATOM      7  N   UNL     1      -6.568   0.275  -1.202  0.00  0.00    -0.348 N 
ATOM      8  C   UNL     1      -7.471   0.967  -0.570  0.00  0.00    +0.061 A 
ATOM      9  C   UNL     1      -8.527   1.882  -1.025  0.00  0.00    +0.027 A 
ATOM     10  C   UNL     1      -9.334   2.470  -0.118  0.00  0.00    +0.002 A 
ATOM     11  C   UNL     1      -9.210   2.245   1.265  0.00  0.00    +0.002 A 
ATOM     12  C   UNL     1      -8.275   1.426   1.787  0.00  0.00    +0.027 A 
ATOM     13  C   UNL     1      -7.340   0.729   0.893  0.00  0.00    +0.061 A 
ATOM     14  N   UNL     1      -6.361  -0.101   1.110  0.00  0.00    -0.348 N 
ATOM     15  H   UNL     1      -6.433   0.248  -2.162  0.00  0.00    +0.163 HD
ATOM     16  H   UNL     1      -6.063  -0.424   1.974  0.00  0.00    +0.163 HD
ENDBRANCH   4   6
ENDBRANCH   1   2
BRANCH   1  17
ATOM     17  N   UNL     1      -1.486  -0.796  -2.418  0.00  0.00    -0.300 N 
ATOM     18  C   UNL     1      -0.396  -0.244  -2.988  0.00  0.00    +0.245 C 
ATOM     19  O   UNL     1       0.048   0.804  -2.562  0.00  0.00    -0.270 OA
ATOM     20  H   UNL     1      -1.840  -1.632  -2.758  0.00  0.00    +0.150 HD
BRANCH  18  21
ATOM     21  C   UNL     1       0.259  -0.914  -4.129  0.00  0.00    +0.040 A 
ATOM     22  C   UNL     1      -0.253  -2.116  -4.623  0.00  0.00    +0.017 A 
ATOM     23  C   UNL     1       0.358  -2.739  -5.689  0.00  0.00    +0.050 A 
ATOM     24  C   UNL     1       1.485  -2.176  -6.275  0.00  0.00    +0.166 A 
ATOM     25  C   UNL     1       2.001  -0.976  -5.786  0.00  0.00    +0.167 A 
ATOM     26  C   UNL     1       1.389  -0.344  -4.721  0.00  0.00    +0.062 A 
ATOM     27  O   UNL     1       3.098  -0.640  -6.527  0.00  0.00    -0.453 OA
ATOM     28  C   UNL     1       3.487  -1.848  -7.206  0.00  0.00    +0.466 C 
ATOM     29  O   UNL     1       2.257  -2.588  -7.321  0.00  0.00    -0.453 OA
ENDBRANCH  18  21
ENDBRANCH   1  17
BRANCH   1  30
ATOM     30  C   UNL     1      -1.433  -0.534   0.013  0.00  0.00    +0.034 C 
BRANCH  30  32
ATOM     31  C   UNL     1      -0.019   1.526   0.010  0.00  0.00    +0.007 C 
ATOM     32  C   UNL     1       0.002  -0.004   0.002  0.00  0.00    -0.015 C 
ATOM     33  C   UNL     1       0.742  -0.511   1.242  0.00  0.00    +0.007 C 
ENDBRANCH  30  32
ENDBRANCH   1  30
TORSDOF 6
