REMARK  Name = ZINC67418237
REMARK  7 active torsions:
REMARK  status: ('A' for Active; 'I' for Inactive)
REMARK    1  A    between atoms: C_1  and  C_2
REMARK    2  A    between atoms: N_4  and  C_5
REMARK    3  A    between atoms: C_5  and  C_6
REMARK    4  A    between atoms: N_11  and  C_13
REMARK    5  A    between atoms: C_13  and  C_14
REMARK    6  A    between atoms: N_16  and  C_17
REMARK    7  A    between atoms: C_18  and  C_25
REMARK                            x       y       z     vdW  Elec       q    Type
REMARK                         _______ _______ _______ _____ _____    ______ ____
ROOT
ATOM      1  C   UNL     1       0.486  -6.580  -5.453  0.00  0.00    +0.201 C 
ATOM      2  O   UNL     1       0.402  -5.789  -6.369  0.00  0.00    -0.278 OA
ATOM      3  N   UNL     1       0.689  -7.887  -5.708  0.00  0.00    -0.281 N 
ATOM      4  H   UNL     1       0.756  -8.520  -4.976  0.00  0.00    +0.155 HD
ENDROOT
BRANCH   3   5
ATOM      5  C   UNL     1       0.802  -8.329  -7.018  0.00  0.00    +0.084 A 
ATOM      6  C   UNL     1       1.004  -9.621  -7.465  0.00  0.00    +0.068 A 
ATOM      7  C   UNL     1       1.088  -9.825  -8.911  0.00  0.00    -0.023 A 
ATOM      8  C   UNL     1       0.955  -8.697  -9.632  0.00  0.00    -0.004 A 
ATOM      9  S   UNL     1       0.718  -7.418  -8.424  0.00  0.00    -0.077 S 
ATOM     10  C   UNL     1       1.053  -8.962 -11.110  0.00  0.00    +0.043 C 
ATOM     11  C   UNL     1       1.696 -10.363 -11.214  0.00  0.00    +0.010 C 
ATOM     12  C   UNL     1       1.288 -10.997  -9.869  0.00  0.00    +0.037 C 
BRANCH   6  13
ATOM     13  C   UNL     1       1.130 -10.742  -6.528  0.00  0.00    +0.244 C 
ATOM     14  O   UNL     1       0.139 -11.357  -6.179  0.00  0.00    -0.270 OA
ATOM     15  N   UNL     1       2.342 -11.091  -6.054  0.00  0.00    -0.325 N 
ATOM     16  H   UNL     1       3.131 -10.601  -6.333  0.00  0.00    +0.145 HD
ATOM     17  H   UNL     1       2.425 -11.832  -5.434  0.00  0.00    +0.145 HD
ENDBRANCH   6  13
ENDBRANCH   3   5
BRANCH   1  18
ATOM     18  C   UNL     1       0.363  -6.100  -4.030  0.00  0.00    +0.019 C 
BRANCH  18  23
ATOM     19  C   UNL     1       0.013  -2.639  -2.622  0.00  0.00    -0.011 C 
ATOM     20  C   UNL     1      -1.308  -2.250  -3.292  0.00  0.00    +0.001 C 
ATOM     21  C   UNL     1      -1.337  -2.824  -4.712  0.00  0.00    -0.018 C 
ATOM     22  C   UNL     1      -1.144  -4.341  -4.646  0.00  0.00    -0.078 C 
ATOM     23  N   UNL     1       0.147  -4.647  -4.020  0.00  0.00    +0.386 N 
ATOM     24  C   UNL     1       0.157  -4.162  -2.634  0.00  0.00    -0.073 C 
ATOM     25  H   UNL     1       0.887  -4.196  -4.538  0.00  0.00    -0.081 HD
BRANCH  19  26
ATOM     26  C   UNL     1       0.020  -2.136  -1.177  0.00  0.00    +0.105 C 
BRANCH  26  30
ATOM     27  C   UNL     1      -0.018   1.503   0.010  0.00  0.00    +0.109 C 
ATOM     28  C   UNL     1       0.002  -0.004   0.002  0.00  0.00    +0.210 C 
ATOM     29  O   UNL     1       0.020  -0.616   1.049  0.00  0.00    -0.276 OA
ATOM     30  N   UNL     1       0.000  -0.672  -1.169  0.00  0.00    -0.315 N 
ATOM     31  H   UNL     1      -0.015  -0.182  -2.006  0.00  0.00    +0.149 HD
ENDBRANCH  26  30
ENDBRANCH  19  26
ENDBRANCH  18  23
ENDBRANCH   1  18
TORSDOF 6
