REMARK  Name = ZINC34781363
REMARK  16 active torsions:
REMARK  status: ('A' for Active; 'I' for Inactive)
REMARK    1  A    between atoms: C_2  and  C_36
REMARK    2  A    between atoms: C_4  and  O_12
REMARK    3  A    between atoms: C_6  and  O_11
REMARK    4  A    between atoms: C_8  and  O_10
REMARK    5  A    between atoms: O_12  and  C_13
REMARK    6  A    between atoms: C_13  and  C_15
REMARK    7  A    between atoms: C_13  and  C_24
REMARK    8  A    between atoms: C_15  and  C_17
REMARK    9  A    between atoms: C_15  and  O_23
REMARK   10  A    between atoms: C_17  and  O_18
REMARK   11  A    between atoms: O_18  and  S_19
REMARK   12  A    between atoms: C_24  and  C_26
REMARK   13  A    between atoms: C_24  and  O_35
REMARK   14  A    between atoms: C_26  and  C_28
REMARK   15  A    between atoms: C_26  and  N_30
REMARK   16  A    between atoms: N_30  and  S_31
REMARK                            x       y       z     vdW  Elec       q    Type
REMARK                         _______ _______ _______ _____ _____    ______ ____
ROOT
ATOM      1  C   UNL     1       4.734   0.240  -0.816  0.00  0.00    +0.184 C 
ENDROOT
BRANCH   1   2
ATOM      2  C   UNL     1       6.054   0.182  -0.045  0.00  0.00    +0.174 C 
BRANCH   2   3
ATOM      3  O   UNL     1       6.467  -1.180   0.089  0.00  0.00    -0.387 OA
ATOM      4  H   UNL     1       5.835  -1.738   0.563  0.00  0.00    +0.210 HD
ENDBRANCH   2   3
BRANCH   2   5
ATOM      5  C   UNL     1       5.861   0.795   1.343  0.00  0.00    +0.230 C 
BRANCH   5   6
ATOM      6  O   UNL     1       7.118   0.847   2.020  0.00  0.00    -0.211 OA
BRANCH   6   7
ATOM      7  S   UNL     1       7.045   1.444   3.418  0.00  0.00    +0.238 S 
ATOM      8  O   UNL     1       8.408   1.756   3.817  0.00  0.00    -0.116 OA
ATOM      9  O   UNL     1       6.219   2.638   3.325  0.00  0.00    -0.116 OA
ATOM     10  O   UNL     1       6.445   0.434   4.277  0.00  0.00    -0.022 OA
ENDBRANCH   6   7
ENDBRANCH   5   6
ENDBRANCH   2   5
ENDBRANCH   1   2
BRANCH   1  11
ATOM     11  O   UNL     1       3.707  -0.393  -0.051  0.00  0.00    -0.331 OA
BRANCH  11  15
ATOM     12  C   UNL     1       0.196   1.580   0.854  0.00  0.00    +0.060 C 
ATOM     13  C   UNL     1       1.386   2.162   0.921  0.00  0.00    +0.210 C 
ATOM     14  O   UNL     1       2.542   1.514   0.636  0.00  0.00    -0.454 OA
ATOM     15  C   UNL     1       2.450   0.286  -0.091  0.00  0.00    +0.340 C 
ATOM     16  C   UNL     1       1.370  -0.585   0.566  0.00  0.00    +0.215 C 
ATOM     17  C   UNL     1       0.027   0.143   0.443  0.00  0.00    +0.176 C 
BRANCH  13  18
ATOM     18  C   UNL     1       1.455   3.575   1.324  0.00  0.00    +0.420 C 
ATOM     19  O   UNL     1       0.428   4.187   1.587  0.00  0.00    -0.237 OA
ATOM     20  O   UNL     1       2.538   4.139   1.396  0.00  0.00    -0.237 OA
ENDBRANCH  13  18
BRANCH  16  21
ATOM     21  O   UNL     1       1.686  -0.785   1.945  0.00  0.00    -0.383 OA
ATOM     22  H   UNL     1       1.042  -1.328   2.421  0.00  0.00    +0.210 HD
ENDBRANCH  16  21
BRANCH  17  23
ATOM     23  O   UNL     1      -0.425   0.084  -0.912  0.00  0.00    -0.385 OA
ATOM     24  H   UNL     1      -1.271   0.526  -1.063  0.00  0.00    +0.210 HD
ENDBRANCH  17  23
ENDBRANCH  11  15
ENDBRANCH   1  11
BRANCH   1  25
ATOM     25  C   UNL     1       4.893  -0.484  -2.155  0.00  0.00    +0.171 C 
BRANCH  25  26
ATOM     26  O   UNL     1       5.983   0.088  -2.880  0.00  0.00    -0.387 OA
ATOM     27  H   UNL     1       5.874   1.029  -3.075  0.00  0.00    +0.210 HD
ENDBRANCH  25  26
BRANCH  25  28
ATOM     28  C   UNL     1       3.606  -0.338  -2.970  0.00  0.00    +0.172 C 
BRANCH  28  29
ATOM     29  C   UNL     1       3.401   1.111  -3.329  0.00  0.00    +0.246 C 
ATOM     30  O   UNL     1       3.347   1.444  -4.489  0.00  0.00    -0.299 OA
ENDBRANCH  28  29
BRANCH  28  31
ATOM     31  N   UNL     1       3.711  -1.135  -4.194  0.00  0.00    -0.155 NA
ATOM     32  H   UNL     1       4.565  -1.222  -4.645  0.00  0.00    +0.151 HD
BRANCH  31  33
ATOM     33  S   UNL     1       2.370  -1.887  -4.810  0.00  0.00    +0.180 S 
ATOM     34  O   UNL     1       2.815  -2.685  -5.942  0.00  0.00    -0.128 OA
ATOM     35  O   UNL     1       1.823  -2.713  -3.745  0.00  0.00    -0.128 OA
ATOM     36  O   UNL     1       1.445  -0.839  -5.214  0.00  0.00    -0.032 OA
ENDBRANCH  31  33
ENDBRANCH  28  31
ENDBRANCH  25  28
ENDBRANCH   1  25
TORSDOF 16
