REMARK  Name = ZINC43442342
REMARK  10 active torsions:
REMARK  status: ('A' for Active; 'I' for Inactive)
REMARK    1  A    between atoms: C_1  and  C_2
REMARK    2  A    between atoms: C_2  and  C_3
REMARK    3  A    between atoms: C_2  and  C_4
REMARK    4  A    between atoms: C_4  and  C_6
REMARK    5  A    between atoms: C_4  and  N_10
REMARK    6  A    between atoms: C_6  and  O_8
REMARK    7  A    between atoms: O_8  and  C_9
REMARK    8  A    between atoms: N_10  and  C_11
REMARK    9  A    between atoms: C_11  and  C_12
REMARK   10  A    between atoms: N_14  and  C_15
REMARK                            x       y       z     vdW  Elec       q    Type
REMARK                         _______ _______ _______ _____ _____    ______ ____
ROOT
ATOM      1  C   UNL     1      -0.607  -2.489   1.381  0.00  0.00    +0.016 C 
ENDROOT
BRANCH   1   2
ATOM      2  C   UNL     1      -0.589  -3.996   1.361  0.00  0.00    +0.200 C 
ATOM      3  O   UNL     1       0.464  -4.588   1.253  0.00  0.00    -0.278 OA
ATOM      4  N   UNL     1      -1.742  -4.686   1.465  0.00  0.00    -0.286 N 
ATOM      5  H   UNL     1      -2.576  -4.215   1.618  0.00  0.00    +0.155 HD
BRANCH   4   6
ATOM      6  C   UNL     1      -1.735  -6.081   1.353  0.00  0.00    +0.047 A 
ATOM      7  C   UNL     1      -0.661  -6.813   1.839  0.00  0.00    +0.024 A 
ATOM      8  C   UNL     1      -0.657  -8.190   1.727  0.00  0.00    +0.002 A 
ATOM      9  C   UNL     1      -1.723  -8.839   1.131  0.00  0.00    +0.001 A 
ATOM     10  C   UNL     1      -2.795  -8.113   0.645  0.00  0.00    +0.016 A 
ATOM     11  C   UNL     1      -2.807  -6.736   0.759  0.00  0.00    +0.035 A 
ATOM     12  I   UNL     1      -4.435  -5.637   0.030  0.00  0.00    -0.042 I 
ENDBRANCH   4   6
ENDBRANCH   1   2
BRANCH   1  13
ATOM     13  N   UNL     1       0.765  -1.981   1.254  0.00  0.00    +0.394 N 
ATOM     14  H   UNL     1       1.163  -2.301   0.384  0.00  0.00    -0.084 HD
ATOM     15  H   UNL     1       1.322  -2.320   2.023  0.00  0.00    -0.084 HD
BRANCH  13  16
ATOM     16  C   UNL     1       0.746  -0.512   1.272  0.00  0.00    +0.042 C 
BRANCH  16  18
ATOM     17  C   UNL     1      -0.012   1.534   0.056  0.00  0.00    +0.006 C 
ATOM     18  C   UNL     1       0.007   0.005   0.036  0.00  0.00    -0.021 C 
ATOM     19  C   UNL     1       0.723  -0.480  -1.226  0.00  0.00    +0.006 C 
ENDBRANCH  16  18
BRANCH  16  20
ATOM     20  C   UNL     1       2.161   0.008   1.266  0.00  0.00    +0.293 C 
ATOM     21  O   UNL     1       3.089  -0.765   1.247  0.00  0.00    -0.253 OA
BRANCH  20  22
ATOM     22  O   UNL     1       2.389   1.331   1.280  0.00  0.00    -0.469 OA
ATOM     23  C   UNL     1       3.755   1.753   1.273  0.00  0.00    +0.280 C 
ENDBRANCH  20  22
ENDBRANCH  16  20
ENDBRANCH  13  16
ENDBRANCH   1  13
TORSDOF 7
