REMARK  Name = ZINC09486958
REMARK  6 active torsions:
REMARK  status: ('A' for Active; 'I' for Inactive)
REMARK    1  A    between atoms: C_1  and  O_2
REMARK    2  A    between atoms: O_2  and  C_3
REMARK    3  A    between atoms: C_6  and  C_9
REMARK    4  A    between atoms: C_24  and  S_36
REMARK    5  A    between atoms: C_27  and  C_29
REMARK    6  A    between atoms: S_36  and  C_37
REMARK                            x       y       z     vdW  Elec       q    Type
REMARK                         _______ _______ _______ _____ _____    ______ ____
ROOT
ATOM      1  C   UNL     1      -4.981  -2.629   0.035  0.00  0.00    +0.234 C 
ATOM      2  C   UNL     1      -5.320  -3.068  -1.359  0.00  0.00    +0.025 C 
ATOM      3  C   UNL     1      -4.939  -4.281  -1.810  0.00  0.00    +0.058 C 
ATOM      4  C   UNL     1      -4.188  -5.154  -0.873  0.00  0.00    +0.042 A 
ATOM      5  C   UNL     1      -3.477  -6.259  -1.322  0.00  0.00    +0.033 A 
ATOM      6  C   UNL     1      -2.790  -7.044  -0.414  0.00  0.00    +0.042 A 
ATOM      7  C   UNL     1      -2.810  -6.729   0.934  0.00  0.00    +0.023 A 
ATOM      8  C   UNL     1      -3.516  -5.631   1.388  0.00  0.00    +0.048 A 
ATOM      9  C   UNL     1      -4.209  -4.837   0.491  0.00  0.00    +0.131 A 
ATOM     10  O   UNL     1      -4.914  -3.759   0.907  0.00  0.00    -0.479 OA
ATOM     11 CL   UNL     1      -1.900  -8.428  -0.967  0.00  0.00    -0.084 Cl
ATOM     12  N   UNL     1      -5.228  -4.693  -3.069  0.00  0.00    -0.326 N 
ATOM     13  C   UNL     1      -5.897  -3.977  -3.948  0.00  0.00    +0.216 C 
ATOM     14  N   UNL     1      -6.265  -4.236  -5.216  0.00  0.00    -0.192 NA
ATOM     15  C   UNL     1      -6.933  -3.216  -5.716  0.00  0.00    +0.174 C 
ATOM     16  N   UNL     1      -7.024  -2.232  -4.767  0.00  0.00    -0.239 N 
ATOM     17  N   UNL     1      -6.362  -2.715  -3.636  0.00  0.00    -0.209 N 
ATOM     18  C   UNL     1      -6.096  -2.171  -2.298  0.00  0.00    +0.159 C 
ATOM     19  H   UNL     1      -4.922  -5.573  -3.339  0.00  0.00    +0.169 HD
ATOM     20  H   UNL     1      -7.462  -1.371  -4.862  0.00  0.00    +0.172 HD
ENDROOT
BRANCH  18  21
ATOM     21  C   UNL     1      -7.418  -1.845  -1.652  0.00  0.00    -0.021 A 
ATOM     22  C   UNL     1      -8.452  -2.762  -1.693  0.00  0.00    +0.008 A 
ATOM     23  C   UNL     1      -9.664  -2.465  -1.100  0.00  0.00    +0.038 A 
ATOM     24  C   UNL     1      -9.843  -1.248  -0.464  0.00  0.00    +0.123 A 
ATOM     25  C   UNL     1      -8.807  -0.330  -0.423  0.00  0.00    +0.038 A 
ATOM     26  C   UNL     1      -7.594  -0.632  -1.012  0.00  0.00    +0.008 A 
ATOM     27  F   UNL     1     -11.028  -0.956   0.115  0.00  0.00    -0.205 F 
ENDBRANCH  18  21
BRANCH   1  31
ATOM     28  C   UNL     1      -1.200  -0.637   0.010  0.00  0.00    +0.120 A 
ATOM     29  C   UNL     1      -2.375   0.101   0.019  0.00  0.00    +0.046 A 
ATOM     30  C   UNL     1      -3.596  -0.545   0.027  0.00  0.00    +0.011 A 
ATOM     31  C   UNL     1      -3.648  -1.927   0.026  0.00  0.00    -0.003 A 
ATOM     32  C   UNL     1      -2.479  -2.665   0.017  0.00  0.00    +0.011 A 
ATOM     33  C   UNL     1      -1.255  -2.024   0.003  0.00  0.00    +0.046 A 
BRANCH  28  35
ATOM     34  C   UNL     1      -0.017   1.425   0.010  0.00  0.00    +0.277 C 
ATOM     35  O   UNL     1       0.002  -0.004   0.002  0.00  0.00    -0.495 OA
ENDBRANCH  28  35
ENDBRANCH   1  31
BRANCH  15  36
ATOM     36  S   UNL     1      -7.599  -3.130  -7.345  0.00  0.00    -0.092 S 
ATOM     37  C   UNL     1      -7.146  -4.721  -8.089  0.00  0.00    +0.093 C 
ENDBRANCH  15  36
TORSDOF 4
