REMARK  Name = ZINC16682397
REMARK  14 active torsions:
REMARK  status: ('A' for Active; 'I' for Inactive)
REMARK    1  A    between atoms: C_1  and  C_2
REMARK    2  A    between atoms: C_2  and  O_3
REMARK    3  A    between atoms: O_3  and  C_4
REMARK    4  A    between atoms: C_4  and  C_6
REMARK    5  A    between atoms: C_7  and  C_38
REMARK    6  A    between atoms: C_14  and  C_15
REMARK    7  A    between atoms: C_17  and  C_24
REMARK    8  A    between atoms: C_18  and  O_23
REMARK    9  A    between atoms: C_19  and  O_21
REMARK   10  A    between atoms: O_21  and  C_22
REMARK   11  A    between atoms: C_24  and  C_25
REMARK   12  A    between atoms: C_28  and  C_30
REMARK   13  A    between atoms: C_33  and  O_36
REMARK   14  A    between atoms: O_36  and  C_37
REMARK                            x       y       z     vdW  Elec       q    Type
REMARK                         _______ _______ _______ _____ _____    ______ ____
ROOT
ATOM      1  C   UNL     1      -6.031   7.354  -0.437  0.00  0.00    +0.085 C 
ATOM      2  C   UNL     1      -5.567   8.630  -0.598  0.00  0.00    +0.053 C 
ATOM      3  N   UNL     1      -4.279   8.905  -0.439  0.00  0.00    -0.228 NA
ATOM      4  C   UNL     1      -3.360   8.026  -0.127  0.00  0.00    +0.178 A 
ATOM      5  N   UNL     1      -3.612   6.689   0.079  0.00  0.00    -0.275 N 
ATOM      6  C   UNL     1      -2.588   5.883   0.389  0.00  0.00    +0.268 A 
ATOM      7  O   UNL     1      -2.762   4.692   0.575  0.00  0.00    -0.266 OA
ATOM      8  C   UNL     1      -1.250   6.479   0.502  0.00  0.00    +0.081 A 
ATOM      9  C   UNL     1      -0.065   5.889   0.803  0.00  0.00    +0.028 C 
ATOM     10  S   UNL     1      -1.604   8.189   0.129  0.00  0.00    -0.046 S 
ATOM     11  C   UNL     1      -5.035   6.276  -0.076  0.00  0.00    +0.162 C 
ATOM     12  C   UNL     1      -6.528   9.734  -0.958  0.00  0.00    +0.066 C 
ENDROOT
BRANCH   9  13
ATOM     13  C   UNL     1      -0.034   4.493   1.256  0.00  0.00    -0.020 A 
ATOM     14  C   UNL     1      -0.988   4.030   2.171  0.00  0.00    +0.015 A 
ATOM     15  C   UNL     1      -0.956   2.720   2.595  0.00  0.00    +0.002 A 
ATOM     16  C   UNL     1       0.019   1.855   2.117  0.00  0.00    +0.162 A 
ATOM     17  C   UNL     1       0.976   2.309   1.210  0.00  0.00    +0.162 A 
ATOM     18  C   UNL     1       0.950   3.619   0.775  0.00  0.00    +0.057 A 
BRANCH  17  19
ATOM     19  O   UNL     1       1.933   1.459   0.749  0.00  0.00    -0.491 OA
ATOM     20  C   UNL     1       2.881   1.992  -0.178  0.00  0.00    +0.277 C 
ENDBRANCH  17  19
BRANCH  16  21
ATOM     21  O   UNL     1       0.045   0.564   2.539  0.00  0.00    -0.503 OA
ATOM     22  H   UNL     1      -0.478  -0.039   1.992  0.00  0.00    +0.292 HD
ENDBRANCH  16  21
BRANCH  15  23
ATOM     23  C   UNL     1      -1.983   2.223   3.580  0.00  0.00    +0.065 C 
BRANCH  23  24
ATOM     24  C   UNL     1      -1.424   2.312   4.976  0.00  0.00    -0.030 C 
ATOM     25  C   UNL     1      -2.076   2.971   5.902  0.00  0.00    +0.004 C 
ENDBRANCH  23  24
ENDBRANCH  15  23
ENDBRANCH   9  13
BRANCH  11  26
ATOM     26  C   UNL     1      -5.480   5.650   1.220  0.00  0.00    -0.020 A 
ATOM     27  C   UNL     1      -5.074   6.194   2.425  0.00  0.00    +0.009 A 
ATOM     28  C   UNL     1      -5.485   5.625   3.615  0.00  0.00    +0.046 A 
ATOM     29  C   UNL     1      -6.297   4.500   3.600  0.00  0.00    +0.120 A 
ATOM     30  C   UNL     1      -6.699   3.953   2.391  0.00  0.00    +0.046 A 
ATOM     31  C   UNL     1      -6.290   4.529   1.204  0.00  0.00    +0.009 A 
BRANCH  29  32
ATOM     32  O   UNL     1      -6.697   3.935   4.770  0.00  0.00    -0.495 OA
ATOM     33  C   UNL     1      -6.245   4.552   5.977  0.00  0.00    +0.277 C 
ENDBRANCH  29  32
ENDBRANCH  11  26
BRANCH   1  34
ATOM     34  C   UNL     1      -7.393   7.054  -0.604  0.00  0.00    +0.339 C 
ATOM     35  O   UNL     1      -8.196   7.951  -0.789  0.00  0.00    -0.245 OA
BRANCH  34  36
ATOM     36  O   UNL     1      -7.812   5.771  -0.558  0.00  0.00    -0.462 OA
BRANCH  36  38
ATOM     37  C   UNL     1      -9.493   4.037  -0.652  0.00  0.00    +0.048 C 
ATOM     38  C   UNL     1      -9.210   5.538  -0.735  0.00  0.00    +0.229 C 
ENDBRANCH  36  38
ENDBRANCH  34  36
ENDBRANCH   1  34
TORSDOF 10
