REMARK  Name = ZINC36704404
REMARK  12 active torsions:
REMARK  status: ('A' for Active; 'I' for Inactive)
REMARK    1  A    between atoms: C_1  and  C_2
REMARK    2  A    between atoms: C_5  and  O_34
REMARK    3  A    between atoms: N_11  and  C_12
REMARK    4  A    between atoms: C_12  and  C_13
REMARK    5  A    between atoms: C_13  and  C_14
REMARK    6  A    between atoms: C_14  and  N_15
REMARK    7  A    between atoms: N_15  and  C_16
REMARK    8  A    between atoms: N_15  and  C_17
REMARK    9  A    between atoms: C_18  and  C_20
REMARK   10  A    between atoms: N_25  and  S_26
REMARK   11  A    between atoms: S_26  and  C_29
REMARK   12  A    between atoms: O_34  and  C_35
REMARK                            x       y       z     vdW  Elec       q    Type
REMARK                         _______ _______ _______ _____ _____    ______ ____
ROOT
ATOM      1  C   UNL     1      -0.849   1.523   0.079  0.00  0.00    +0.045 C 
ATOM      2  C   UNL     1       0.011   0.285   0.061  0.00  0.00    -0.034 A 
ATOM      3  C   UNL     1       0.551  -0.168  -1.129  0.00  0.00    +0.008 A 
ATOM      4  C   UNL     1       1.339  -1.309  -1.127  0.00  0.00    +0.048 A 
ATOM      5  C   UNL     1       1.597  -2.001   0.034  0.00  0.00    +0.147 A 
ATOM      6  C   UNL     1       1.059  -1.563   1.270  0.00  0.00    +0.122 A 
ATOM      7  C   UNL     1       0.267  -0.395   1.227  0.00  0.00    +0.047 A 
ATOM      8  S   UNL     1      -0.192  -0.185   2.930  0.00  0.00    -0.051 S 
ATOM      9  C   UNL     1       0.675  -1.609   3.573  0.00  0.00    +0.168 A 
ATOM     10  N   UNL     1       1.213  -2.121   2.491  0.00  0.00    -0.221 NA
ATOM     11  N   UNL     1       0.749  -2.065   4.880  0.00  0.00    -0.249 N 
ATOM     12  C   UNL     1       0.109  -1.401   5.863  0.00  0.00    +0.240 C 
ATOM     13  O   UNL     1      -0.604  -0.458   5.593  0.00  0.00    -0.273 OA
ENDROOT
BRANCH  12  14
ATOM     14  C   UNL     1       0.279  -1.830   7.298  0.00  0.00    +0.166 C 
ATOM     15  C   UNL     1      -0.831  -2.832   7.681  0.00  0.00    +0.031 C 
ATOM     16  C   UNL     1      -1.177  -2.427   9.138  0.00  0.00    +0.019 C 
ATOM     17  C   UNL     1      -1.008  -0.888   9.081  0.00  0.00    +0.110 C 
ATOM     18  N   UNL     1       0.147  -0.666   8.187  0.00  0.00    -0.164 NA
BRANCH  18  19
ATOM     19  S   UNL     1       1.129   0.667   8.183  0.00  0.00    +0.068 S 
ATOM     20  O   UNL     1       1.033   1.245   9.478  0.00  0.00    -0.152 OA
ATOM     21  O   UNL     1       2.368   0.258   7.621  0.00  0.00    -0.152 OA
BRANCH  19  22
ATOM     22  C   UNL     1       0.426   1.829   7.061  0.00  0.00    +0.143 A 
ATOM     23  C   UNL     1      -0.475   2.812   7.303  0.00  0.00    +0.036 A 
ATOM     24  C   UNL     1      -0.889   3.614   6.256  0.00  0.00    +0.010 A 
ATOM     25  C   UNL     1      -0.383   3.393   5.018  0.00  0.00    +0.047 A 
ATOM     26  S   UNL     1       0.721   2.021   5.310  0.00  0.00    -0.077 S 
ENDBRANCH  19  22
ENDBRANCH  18  19
ENDBRANCH  12  14
BRANCH   5  27
ATOM     27  O   UNL     1       2.374  -3.115  -0.005  0.00  0.00    -0.493 OA
ATOM     28  C   UNL     1       2.886  -3.505  -1.282  0.00  0.00    +0.277 C 
ENDBRANCH   5  27
BRANCH  11  29
ATOM     29  C   UNL     1       1.524  -3.268   5.194  0.00  0.00    +0.114 C 
BRANCH  29  30
ATOM     30  C   UNL     1       2.986  -2.885   5.432  0.00  0.00    +0.001 C 
BRANCH  30  31
ATOM     31  C   UNL     1       3.795  -4.142   5.760  0.00  0.00    -0.078 C 
BRANCH  31  32
ATOM     32  N   UNL     1       5.199  -3.775   5.989  0.00  0.00    +0.376 N 
ATOM     33  C   UNL     1       5.951  -4.961   6.420  0.00  0.00    -0.097 C 
ATOM     34  C   UNL     1       5.778  -3.253   4.744  0.00  0.00    -0.097 C 
ATOM     35  H   UNL     1       5.249  -3.066   6.705  0.00  0.00    -0.083 HD
ENDBRANCH  31  32
ENDBRANCH  30  31
ENDBRANCH  29  30
ENDBRANCH  11  29
TORSDOF 8
