REMARK  Name = ZINC59935775
REMARK  8 active torsions:
REMARK  status: ('A' for Active; 'I' for Inactive)
REMARK    1  A    between atoms: C_1  and  C_2
REMARK    2  A    between atoms: C_7  and  S_8
REMARK    3  A    between atoms: S_8  and  C_9
REMARK    4  A    between atoms: C_9  and  C_10
REMARK    5  A    between atoms: N_12  and  C_13
REMARK    6  A    between atoms: C_17  and  C_19
REMARK    7  A    between atoms: C_19  and  N_20
REMARK    8  A    between atoms: C_24  and  C_26
REMARK                            x       y       z     vdW  Elec       q    Type
REMARK                         _______ _______ _______ _____ _____    ______ ____
ROOT
ATOM      1  C   UNL     1       0.177  -0.803   7.746  0.00  0.00    +0.034 A 
ATOM      2  C   UNL     1       0.148   0.571   7.947  0.00  0.00    +0.023 A 
ATOM      3  C   UNL     1       0.243   1.082   9.226  0.00  0.00    +0.002 A 
ATOM      4  C   UNL     1       0.366   0.228  10.307  0.00  0.00    +0.002 A 
ATOM      5  C   UNL     1       0.395  -1.140  10.110  0.00  0.00    -0.062 A 
ATOM      6  C   UNL     1       0.294  -1.658   8.833  0.00  0.00    +0.025 A 
ENDROOT
BRANCH   1   9
ATOM      7  C   UNL     1       0.647  -0.670   5.418  0.00  0.00    +0.227 C 
ATOM      8  O   UNL     1       1.166   0.412   5.596  0.00  0.00    -0.275 OA
ATOM      9  N   UNL     1       0.081  -1.324   6.451  0.00  0.00    -0.285 N 
ATOM     10  H   UNL     1      -0.392  -2.156   6.297  0.00  0.00    +0.155 HD
BRANCH   7  11
ATOM     11  C   UNL     1       0.635  -1.282   4.041  0.00  0.00    +0.170 C 
BRANCH  11  12
ATOM     12  S   UNL     1       1.468  -0.167   2.876  0.00  0.00    -0.116 S 
BRANCH  12  19
ATOM     13  C   UNL     1       2.595   0.902   0.270  0.00  0.00    +0.045 C 
ATOM     14  C   UNL     1       1.919  -0.442   0.191  0.00  0.00    -0.036 A 
ATOM     15  C   UNL     1       1.847  -1.110  -1.015  0.00  0.00    +0.019 A 
ATOM     16  C   UNL     1       1.226  -2.345  -1.088  0.00  0.00    +0.018 A 
ATOM     17  C   UNL     1       0.674  -2.913   0.047  0.00  0.00    +0.016 A 
ATOM     18  C   UNL     1       0.743  -2.250   1.256  0.00  0.00    +0.016 A 
ATOM     19  C   UNL     1       1.372  -1.013   1.334  0.00  0.00    +0.011 A 
ATOM     20 BR   UNL     1       1.129  -3.256  -2.742  0.00  0.00    -0.050 Br
ENDBRANCH  12  19
ENDBRANCH  11  12
ENDBRANCH   7  11
ENDBRANCH   1   9
BRANCH   5  21
ATOM     21  C   UNL     1       0.530  -2.068  11.290  0.00  0.00    -0.042 C 
BRANCH  21  22
ATOM     22  N   UNL     1      -0.805  -2.416  11.795  0.00  0.00    +0.390 N 
ATOM     23  C   UNL     1      -1.459  -1.209  12.344  0.00  0.00    -0.077 C 
ATOM     24  C   UNL     1      -2.265  -1.718  13.565  0.00  0.00    -0.020 C 
ATOM     25  C   UNL     1      -1.316  -2.802  14.138  0.00  0.00    -0.008 C 
ATOM     26  C   UNL     1      -0.683  -3.416  12.871  0.00  0.00    +0.019 C 
ATOM     27  H   UNL     1      -1.365  -2.791  11.044  0.00  0.00    -0.080 HD
BRANCH  26  28
ATOM     28  C   UNL     1      -1.420  -4.673  12.489  0.00  0.00    +0.197 C 
ATOM     29  O   UNL     1      -1.994  -4.739  11.422  0.00  0.00    -0.278 OA
ATOM     30  N   UNL     1      -1.440  -5.725  13.331  0.00  0.00    -0.331 N 
ATOM     31  H   UNL     1      -0.981  -5.673  14.184  0.00  0.00    +0.145 HD
ATOM     32  H   UNL     1      -1.915  -6.535  13.085  0.00  0.00    +0.145 HD
ENDBRANCH  26  28
ENDBRANCH  21  22
ENDBRANCH   5  21
TORSDOF 7
