REMARK  Name = ZINC06459471
REMARK  10 active torsions:
REMARK  status: ('A' for Active; 'I' for Inactive)
REMARK    1  A    between atoms: C_1  and  C_2
REMARK    2  A    between atoms: C_2  and  C_3
REMARK    3  A    between atoms: C_2  and  N_52
REMARK    4  A    between atoms: C_6  and  N_9
REMARK    5  A    between atoms: N_9  and  N_10
REMARK    6  A    between atoms: C_11  and  C_12
REMARK    7  A    between atoms: C_11  and  O_27
REMARK    8  A    between atoms: C_17  and  N_18
REMARK    9  A    between atoms: N_18  and  S_19
REMARK   10  A    between atoms: S_19  and  C_22
REMARK                            x       y       z     vdW  Elec       q    Type
REMARK                         _______ _______ _______ _____ _____    ______ ____
ROOT
ATOM      1  N   UNL     1      -1.714   2.379  -3.396  0.00  0.00    -0.144 NA
ATOM      2  C   UNL     1      -2.280   2.941  -4.426  0.00  0.00    +0.237 C 
ENDROOT
BRANCH   2   3
ATOM      3  C   UNL     1      -1.577   2.982  -5.723  0.00  0.00    +0.060 A 
ATOM      4  C   UNL     1      -2.180   3.583  -6.829  0.00  0.00    +0.015 A 
ATOM      5  C   UNL     1      -1.519   3.618  -8.039  0.00  0.00    +0.001 A 
ATOM      6  C   UNL     1      -0.258   3.060  -8.162  0.00  0.00    +0.002 A 
ATOM      7  C   UNL     1       0.351   2.462  -7.076  0.00  0.00    +0.025 A 
ATOM      8  C   UNL     1      -0.298   2.421  -5.851  0.00  0.00    +0.060 A 
BRANCH   8   9
ATOM      9  N   UNL     1       0.317   1.823  -4.752  0.00  0.00    -0.215 N 
ATOM     10  H   UNL     1      -0.215   1.332  -4.106  0.00  0.00    +0.174 HD
BRANCH   9  11
ATOM     11  S   UNL     1       1.955   1.951  -4.549  0.00  0.00    +0.079 S 
ATOM     12  O   UNL     1       2.256   1.359  -3.292  0.00  0.00    -0.149 OA
ATOM     13  O   UNL     1       2.550   1.509  -5.761  0.00  0.00    -0.149 OA
BRANCH  11  14
ATOM     14  C   UNL     1       2.330   3.666  -4.400  0.00  0.00    +0.146 A 
ATOM     15  C   UNL     1       2.387   4.434  -3.285  0.00  0.00    +0.036 A 
ATOM     16  C   UNL     1       2.705   5.773  -3.409  0.00  0.00    +0.010 A 
ATOM     17  C   UNL     1       2.951   6.279  -4.642  0.00  0.00    +0.047 A 
ATOM     18  S   UNL     1       2.740   4.842  -5.679  0.00  0.00    -0.077 S 
ENDBRANCH  11  14
ENDBRANCH   9  11
ENDBRANCH   8   9
ENDBRANCH   2   3
BRANCH   1  19
ATOM     19  N   UNL     1      -2.381   2.341  -2.165  0.00  0.00    -0.239 N 
ATOM     20  H   UNL     1      -3.264   2.733  -2.079  0.00  0.00    +0.174 HD
BRANCH  19  23
ATOM     21  C   UNL     1      -1.888   0.685   1.172  0.00  0.00    -0.072 C 
ATOM     22  C   UNL     1      -2.521   1.719   0.238  0.00  0.00    +0.033 C 
ATOM     23  C   UNL     1      -1.778   1.743  -1.069  0.00  0.00    +0.018 C 
ATOM     24  C   UNL     1      -0.584   1.221  -1.216  0.00  0.00    -0.025 C 
ATOM     25  C   UNL     1       0.157   0.543  -0.100  0.00  0.00    -0.049 C 
ATOM     26  N   UNL     1      -0.434   0.928   1.197  0.00  0.00    +0.384 N 
ATOM     27  H   UNL     1      -0.264   1.928   1.359  0.00  0.00    -0.081 HD
BRANCH  26  29
ATOM     28  C   UNL     1       1.701   0.384   2.271  0.00  0.00    -0.014 C 
ATOM     29  C   UNL     1       0.189   0.151   2.289  0.00  0.00    -0.074 C 
ATOM     30  C   UNL     1      -0.384   0.624   3.626  0.00  0.00    -0.014 C 
ENDBRANCH  26  29
ENDBRANCH  19  23
ENDBRANCH   1  19
BRANCH   2  31
ATOM     31  O   UNL     1      -3.516   3.490  -4.305  0.00  0.00    -0.491 OA
ATOM     32  H   UNL     1      -3.853   3.883  -5.122  0.00  0.00    +0.294 HD
ENDBRANCH   2  31
TORSDOF 8
