REMARK  Name = ZINC63383687
REMARK  7 active torsions:
REMARK  status: ('A' for Active; 'I' for Inactive)
REMARK    1  A    between atoms: C_1  and  C_2
REMARK    2  A    between atoms: C_2  and  C_4
REMARK    3  A    between atoms: C_2  and  N_15
REMARK    4  A    between atoms: N_6  and  C_7
REMARK    5  A    between atoms: C_7  and  C_8
REMARK    6  A    between atoms: C_8  and  C_9
REMARK    7  A    between atoms: C_16  and  C_18
REMARK                            x       y       z     vdW  Elec       q    Type
REMARK                         _______ _______ _______ _____ _____    ______ ____
ROOT
ATOM      1  C   UNL     1      -3.465  -1.164  -1.134  0.00  0.00    +0.167 C 
ATOM      2  C   UNL     1      -3.473  -2.630  -0.657  0.00  0.00    +0.065 C 
ATOM      3  C   UNL     1      -4.799  -3.221  -1.068  0.00  0.00    -0.034 C 
ATOM      4  C   UNL     1      -5.722  -3.859  -0.356  0.00  0.00    -0.001 A 
ATOM      5  C   UNL     1      -5.741  -4.302   1.048  0.00  0.00    +0.010 A 
ATOM      6  C   UNL     1      -6.875  -4.923   1.465  0.00  0.00    +0.001 A 
ATOM      7  C   UNL     1      -7.980  -5.146   0.636  0.00  0.00    +0.002 A 
ATOM      8  C   UNL     1      -8.046  -4.780  -0.669  0.00  0.00    +0.026 A 
ATOM      9  C   UNL     1      -6.908  -4.125  -1.225  0.00  0.00    +0.043 A 
ATOM     10  N   UNL     1      -6.692  -3.694  -2.432  0.00  0.00    -0.375 N 
ATOM     11  C   UNL     1      -5.333  -3.152  -2.494  0.00  0.00    +0.131 C 
ATOM     12  C   UNL     1      -5.333  -1.670  -2.887  0.00  0.00    +0.134 C 
ATOM     13  N   UNL     1      -4.021  -1.114  -2.493  0.00  0.00    -0.276 N 
ATOM     14  C   UNL     1      -3.436  -0.576  -3.578  0.00  0.00    +0.248 C 
ATOM     15  O   UNL     1      -2.386   0.036  -3.572  0.00  0.00    -0.270 OA
ATOM     16  C   UNL     1      -4.249  -0.835  -4.768  0.00  0.00    +0.042 A 
ATOM     17  C   UNL     1      -5.444  -1.511  -4.369  0.00  0.00    -0.013 A 
ATOM     18  C   UNL     1      -6.420  -1.891  -5.263  0.00  0.00    +0.006 A 
ATOM     19  C   UNL     1      -6.207  -1.578  -6.602  0.00  0.00    +0.000 A 
ATOM     20  C   UNL     1      -5.071  -0.916  -7.023  0.00  0.00    +0.001 A 
ATOM     21  C   UNL     1      -4.026  -0.520  -6.111  0.00  0.00    +0.013 A 
ATOM     22  H   UNL     1      -7.324  -3.725  -3.167  0.00  0.00    +0.160 HD
ENDROOT
BRANCH   1  24
ATOM     23  N   UNL     1      -1.675   0.304  -0.262  0.00  0.00    -0.303 N 
ATOM     24  C   UNL     1      -2.051  -0.643  -1.145  0.00  0.00    +0.234 C 
ATOM     25  O   UNL     1      -1.251  -1.075  -1.948  0.00  0.00    -0.274 OA
ATOM     26  H   UNL     1      -2.315   0.649   0.380  0.00  0.00    +0.149 HD
BRANCH  23  28
ATOM     27  C   UNL     1      -0.179   1.933  -1.305  0.00  0.00    +0.038 C 
ATOM     28  C   UNL     1      -0.301   0.811  -0.272  0.00  0.00    +0.156 C 
BRANCH  28  29
ATOM     29  C   UNL     1       0.048   1.345   1.093  0.00  0.00    +0.233 C 
ATOM     30  O   UNL     1      -0.771   1.305   1.987  0.00  0.00    -0.274 OA
ATOM     31  N   UNL     1       1.270   1.866   1.321  0.00  0.00    -0.313 N 
ATOM     32  H   UNL     1       1.925   1.897   0.606  0.00  0.00    +0.149 HD
BRANCH  31  33
ATOM     33  C   UNL     1       1.609   2.384   2.648  0.00  0.00    +0.108 C 
BRANCH  33  34
ATOM     34  C   UNL     1       3.045   2.914   2.638  0.00  0.00    +0.049 C 
BRANCH  34  35
ATOM     35  C   UNL     1       3.394   3.447   4.003  0.00  0.00    -0.072 C 
ATOM     36  C   UNL     1       4.012   2.659   4.823  0.00  0.00    -0.028 C 
ATOM     37  C   UNL     1       4.415   3.044   6.217  0.00  0.00    +0.027 C 
ATOM     38  C   UNL     1       4.386   4.566   6.372  0.00  0.00    +0.004 C 
ATOM     39  C   UNL     1       3.043   5.083   5.841  0.00  0.00    +0.005 C 
ATOM     40  C   UNL     1       3.008   4.861   4.326  0.00  0.00    +0.030 C 
ENDBRANCH  34  35
ENDBRANCH  33  34
ENDBRANCH  31  33
ENDBRANCH  28  29
ENDBRANCH  23  28
ENDBRANCH   1  24
TORSDOF 6
