REMARK  Name = ZINC39964327
REMARK  8 active torsions:
REMARK  status: ('A' for Active; 'I' for Inactive)
REMARK    1  A    between atoms: C_1  and  C_2
REMARK    2  A    between atoms: C_2  and  C_3
REMARK    3  A    between atoms: C_6  and  C_30
REMARK    4  A    between atoms: C_9  and  C_11
REMARK    5  A    between atoms: C_13  and  C_24
REMARK    6  A    between atoms: C_33  and  N_36
REMARK    7  A    between atoms: N_36  and  C_37
REMARK    8  A    between atoms: N_36  and  C_38
REMARK                            x       y       z     vdW  Elec       q    Type
REMARK                         _______ _______ _______ _____ _____    ______ ____
ROOT
ATOM      1  C   UNL     1      -0.293  -5.741  -0.508  0.00  0.00    +0.152 C 
ATOM      2  C   UNL     1      -1.100  -5.331  -1.726  0.00  0.00    -0.014 C 
ATOM      3  C   UNL     1      -0.685  -5.834  -2.961  0.00  0.00    +0.002 A 
ATOM      4  C   UNL     1      -1.378  -5.503  -4.144  0.00  0.00    +0.030 A 
ATOM      5  C   UNL     1      -0.952  -6.007  -5.335  0.00  0.00    +0.042 A 
ATOM      6  C   UNL     1       0.158  -6.847  -5.410  0.00  0.00    +0.022 A 
ATOM      7  C   UNL     1       0.867  -7.201  -4.303  0.00  0.00    +0.025 A 
ATOM      8  C   UNL     1       0.484  -6.717  -3.039  0.00  0.00    +0.041 A 
ATOM      9  N   UNL     1       1.182  -7.066  -1.953  0.00  0.00    -0.284 N 
ATOM     10  C   UNL     1       0.888  -6.656  -0.736  0.00  0.00    +0.230 C 
ATOM     11  O   UNL     1       1.569  -7.014   0.207  0.00  0.00    -0.274 OA
ATOM     12 CL   UNL     1      -1.808  -5.597  -6.788  0.00  0.00    -0.084 Cl
ATOM     13  H   UNL     1       1.946  -7.653  -2.068  0.00  0.00    +0.155 HD
ENDROOT
BRANCH   1  19
ATOM     14  C   UNL     1       0.706  -1.001   0.170  0.00  0.00    +0.235 C 
ATOM     15  O   UNL     1       1.212  -0.216   0.944  0.00  0.00    -0.274 OA
ATOM     16  N   UNL     1       0.674  -2.315   0.468  0.00  0.00    -0.185 N 
ATOM     17  C   UNL     1       1.207  -2.930   1.694  0.00  0.00    +0.136 C 
ATOM     18  C   UNL     1       0.901  -4.429   1.500  0.00  0.00    +0.083 C 
ATOM     19  C   UNL     1       0.214  -4.486   0.154  0.00  0.00    +0.055 C 
ATOM     20  N   UNL     1       0.125  -3.316  -0.332  0.00  0.00    -0.185 NA
BRANCH  17  21
ATOM     21  C   UNL     1       2.692  -2.697   1.804  0.00  0.00    -0.025 A 
ATOM     22  C   UNL     1       3.483  -2.746   0.671  0.00  0.00    +0.007 A 
ATOM     23  C   UNL     1       4.844  -2.533   0.768  0.00  0.00    +0.023 A 
ATOM     24  C   UNL     1       5.418  -2.269   2.005  0.00  0.00    +0.029 A 
ATOM     25  C   UNL     1       4.620  -2.221   3.141  0.00  0.00    +0.023 A 
ATOM     26  C   UNL     1       3.259  -2.430   3.036  0.00  0.00    +0.007 A 
BRANCH  24  27
ATOM     27  N   UNL     1       6.795  -2.054   2.107  0.00  0.00    -0.336 N 
ATOM     28  C   UNL     1       7.617  -1.986   0.896  0.00  0.00    +0.129 C 
ATOM     29  C   UNL     1       7.416  -1.895   3.424  0.00  0.00    +0.129 C 
ENDBRANCH  24  27
ENDBRANCH  17  21
BRANCH  14  31
ATOM     30  C   UNL     1       0.281   1.011  -1.216  0.00  0.00    +0.013 C 
ATOM     31  C   UNL     1       0.114  -0.507  -1.125  0.00  0.00    +0.094 C 
ENDBRANCH  14  31
ENDBRANCH   1  19
BRANCH   2  32
ATOM     32  C   UNL     1      -2.226  -4.476  -1.615  0.00  0.00    -0.020 A 
ATOM     33  C   UNL     1      -2.211  -3.206  -2.214  0.00  0.00    +0.008 A 
ATOM     34  C   UNL     1      -3.309  -2.383  -2.101  0.00  0.00    +0.001 A 
ATOM     35  C   UNL     1      -4.426  -2.804  -1.398  0.00  0.00    +0.000 A 
ATOM     36  C   UNL     1      -4.451  -4.055  -0.802  0.00  0.00    +0.001 A 
ATOM     37  C   UNL     1      -3.365  -4.895  -0.909  0.00  0.00    +0.008 A 
ENDBRANCH   2  32
TORSDOF 5
