REMARK  Name = ZINC09396528
REMARK  8 active torsions:
REMARK  status: ('A' for Active; 'I' for Inactive)
REMARK    1  A    between atoms: C_1  and  C_2
REMARK    2  A    between atoms: C_2  and  C_4
REMARK    3  A    between atoms: C_2  and  N_61
REMARK    4  A    between atoms: C_7  and  S_16
REMARK    5  A    between atoms: N_8  and  C_9
REMARK    6  A    between atoms: S_16  and  C_17
REMARK    7  A    between atoms: C_17  and  C_19
REMARK    8  A    between atoms: C_17  and  C_25
REMARK                            x       y       z     vdW  Elec       q    Type
REMARK                         _______ _______ _______ _____ _____    ______ ____
ROOT
ATOM      1  C   UNL     1       4.139   1.078   4.653  0.00  0.00    +0.125 A 
ATOM      2  N   UNL     1       4.122   0.336   3.582  0.00  0.00    -0.135 NA
ATOM      3  N   UNL     1       4.232   1.070   2.533  0.00  0.00    -0.122 NA
ATOM      4  C   UNL     1       4.335   2.333   2.880  0.00  0.00    +0.197 A 
ATOM      5  N   UNL     1       4.276   2.378   4.246  0.00  0.00    -0.275 N 
ENDROOT
BRANCH   5   6
ATOM      6  C   UNL     1       4.340   3.519   5.060  0.00  0.00    +0.050 A 
ATOM      7  C   UNL     1       5.407   3.692   5.931  0.00  0.00    +0.029 A 
ATOM      8  C   UNL     1       5.471   4.819   6.727  0.00  0.00    +0.040 A 
ATOM      9  C   UNL     1       4.467   5.770   6.665  0.00  0.00    +0.124 A 
ATOM     10  C   UNL     1       3.400   5.597   5.800  0.00  0.00    +0.040 A 
ATOM     11  C   UNL     1       3.334   4.474   4.998  0.00  0.00    +0.029 A 
ATOM     12  F   UNL     1       4.529   6.869   7.449  0.00  0.00    -0.205 F 
ENDBRANCH   5   6
BRANCH   1  14
ATOM     13  C   UNL     1       2.586   0.171   6.361  0.00  0.00    -0.005 C 
ATOM     14  C   UNL     1       4.029   0.595   6.076  0.00  0.00    -0.002 C 
BRANCH  14  20
ATOM     15  C   UNL     1       4.865  -1.034   7.661  0.00  0.00    -0.078 C 
ATOM     16  C   UNL     1       5.694  -2.313   7.795  0.00  0.00    -0.019 C 
ATOM     17  C   UNL     1       7.144  -2.019   7.398  0.00  0.00    -0.004 C 
ATOM     18  C   UNL     1       7.173  -1.474   5.968  0.00  0.00    -0.019 C 
ATOM     19  C   UNL     1       6.301  -0.220   5.887  0.00  0.00    -0.078 C 
ATOM     20  N   UNL     1       4.914  -0.575   6.256  0.00  0.00    +0.386 N 
ATOM     21  H   UNL     1       4.591  -1.335   5.646  0.00  0.00    -0.081 HD
ENDBRANCH  14  20
ENDBRANCH   1  14
BRANCH   4  22
ATOM     22  S   UNL     1       4.510   3.707   1.792  0.00  0.00    -0.068 S 
BRANCH  22  23
ATOM     23  C   UNL     1       4.507   2.849   0.198  0.00  0.00    +0.170 C 
BRANCH  23  24
ATOM     24  C   UNL     1       4.772   3.840  -0.906  0.00  0.00    +0.238 C 
ATOM     25  O   UNL     1       4.589   5.023  -0.716  0.00  0.00    -0.274 OA
ATOM     26  N   UNL     1       5.213   3.411  -2.105  0.00  0.00    -0.239 N 
ATOM     27  C   UNL     1       5.450   4.297  -3.093  0.00  0.00    +0.303 C 
ATOM     28  O   UNL     1       5.266   5.483  -2.902  0.00  0.00    -0.253 OA
ATOM     29  N   UNL     1       5.891   3.867  -4.292  0.00  0.00    -0.313 N 
ATOM     30  H   UNL     1       5.360   2.464  -2.257  0.00  0.00    +0.159 HD
ATOM     31  H   UNL     1       6.038   2.921  -4.444  0.00  0.00    +0.146 HD
ATOM     32  H   UNL     1       6.062   4.505  -5.002  0.00  0.00    +0.146 HD
ENDBRANCH  23  24
BRANCH  23  33
ATOM     33  C   UNL     1       3.165   2.200  -0.021  0.00  0.00    -0.025 A 
ATOM     34  C   UNL     1       2.020   2.974  -0.055  0.00  0.00    +0.005 A 
ATOM     35  C   UNL     1       0.789   2.379  -0.257  0.00  0.00    +0.000 A 
ATOM     36  C   UNL     1       0.703   1.009  -0.422  0.00  0.00    +0.000 A 
ATOM     37  C   UNL     1       1.847   0.235  -0.387  0.00  0.00    +0.000 A 
ATOM     38  C   UNL     1       3.078   0.831  -0.186  0.00  0.00    +0.005 A 
ENDBRANCH  23  33
ENDBRANCH  22  23
ENDBRANCH   4  22
TORSDOF 7
