REMARK  Name = ZINC00530619
REMARK  7 active torsions:
REMARK  status: ('A' for Active; 'I' for Inactive)
REMARK    1  A    between atoms: C_1  and  C_2
REMARK    2  A    between atoms: C_2  and  N_15
REMARK    3  A    between atoms: N_9  and  C_12
REMARK    4  A    between atoms: C_12  and  C_13
REMARK    5  A    between atoms: N_15  and  C_16
REMARK    6  A    between atoms: C_16  and  C_17
REMARK    7  A    between atoms: C_17  and  N_18
REMARK                            x       y       z     vdW  Elec       q    Type
REMARK                         _______ _______ _______ _____ _____    ______ ____
ROOT
ATOM      1  C   UNL     1      -0.007   1.502  -0.060  0.00  0.00    +0.061 C 
ATOM      2  C   UNL     1       0.002  -0.004   0.002  0.00  0.00    +0.018 C 
ATOM      3  C   UNL     1       0.144  -0.645   1.219  0.00  0.00    +0.116 C 
ATOM      4  C   UNL     1       0.313  -2.107   1.303  0.00  0.00    +0.258 C 
ATOM      5  O   UNL     1       0.334  -2.792   0.298  0.00  0.00    -0.270 OA
ATOM      6  N   UNL     1       0.446  -2.664   2.524  0.00  0.00    -0.235 N 
ATOM      7  C   UNL     1       0.425  -1.921   3.639  0.00  0.00    +0.316 C 
ATOM      8  O   UNL     1       0.549  -2.484   4.709  0.00  0.00    -0.252 OA
ATOM      9  N   UNL     1       0.274  -0.589   3.638  0.00  0.00    -0.218 N 
ATOM     10  C   UNL     1       0.137   0.104   2.488  0.00  0.00    +0.261 C 
ATOM     11  O   UNL     1       0.007   1.313   2.499  0.00  0.00    -0.269 OA
ATOM     12  H   UNL     1       0.558  -3.625   2.597  0.00  0.00    +0.159 HD
ENDROOT
BRANCH   2  13
ATOM     13  N   UNL     1      -0.128  -0.726  -1.129  0.00  0.00    -0.345 N 
ATOM     14  H   UNL     1      -0.207  -1.692  -1.082  0.00  0.00    +0.146 HD
BRANCH  13  15
ATOM     15  C   UNL     1      -0.150  -0.052  -2.430  0.00  0.00    +0.116 C 
BRANCH  15  16
ATOM     16  C   UNL     1      -0.306  -1.092  -3.541  0.00  0.00    +0.103 C 
BRANCH  16  17
ATOM     17  N   UNL     1      -0.328  -0.416  -4.845  0.00  0.00    -0.304 NA
ATOM     18  C   UNL     1       0.970   0.207  -5.137  0.00  0.00    +0.065 C 
ATOM     19  C   UNL     1       0.887   0.949  -6.473  0.00  0.00    -0.067 C 
ATOM     20  N   UNL     1       0.529   0.003  -7.537  0.00  0.00    +0.381 N 
ATOM     21  C   UNL     1      -0.781  -0.594  -7.244  0.00  0.00    -0.067 C 
ATOM     22  C   UNL     1      -0.712  -1.349  -5.914  0.00  0.00    +0.065 C 
ATOM     23  H   UNL     1       0.486   0.490  -8.420  0.00  0.00    -0.086 HD
ATOM     24  H   UNL     1       1.226  -0.725  -7.588  0.00  0.00    -0.086 HD
ENDBRANCH  16  17
ENDBRANCH  15  16
ENDBRANCH  13  15
ENDBRANCH   2  13
BRANCH   9  25
ATOM     25  C   UNL     1       0.264   0.132   4.913  0.00  0.00    +0.145 C 
BRANCH  25  26
ATOM     26  C   UNL     1       1.670   0.539   5.271  0.00  0.00    -0.015 C 
ATOM     27  C   UNL     1       1.946   1.795   5.519  0.00  0.00    +0.005 C 
ENDBRANCH  25  26
ENDBRANCH   9  25
TORSDOF 6
