REMARK  Name = ZINC39967908
REMARK  3 active torsions:
REMARK  status: ('A' for Active; 'I' for Inactive)
REMARK    1  A    between atoms: C_1  and  C_2
REMARK    2  A    between atoms: C_2  and  C_25
REMARK    3  A    between atoms: N_10  and  C_13
REMARK                            x       y       z     vdW  Elec       q    Type
REMARK                         _______ _______ _______ _____ _____    ______ ____
ROOT
ATOM      1  C   UNL     1      -0.407   3.719   1.387  0.00  0.00    +0.041 C 
ATOM      2  C   UNL     1       0.235   2.453   0.816  0.00  0.00    +0.068 C 
ATOM      3  C   UNL     1      -0.864   1.535   0.255  0.00  0.00    +0.067 C 
ATOM      4  C   UNL     1      -1.628   1.004   1.467  0.00  0.00    -0.037 C 
ATOM      5  C   UNL     1      -2.945   1.058   1.629  0.00  0.00    +0.068 C 
ATOM      6  C   UNL     1      -3.503   0.707   2.967  0.00  0.00    +0.104 C 
ATOM      7  N   UNL     1      -4.779   0.780   3.244  0.00  0.00    -0.155 NA
ATOM      8  C   UNL     1      -5.612   1.185   2.270  0.00  0.00    +0.338 C 
ATOM      9  O   UNL     1      -6.800   1.250   2.533  0.00  0.00    -0.250 OA
ATOM     10  N   UNL     1      -5.232   1.524   1.034  0.00  0.00    -0.189 N 
ATOM     11  C   UNL     1      -3.947   1.508   0.606  0.00  0.00    +0.261 C 
ATOM     12  O   UNL     1      -3.629   1.833  -0.521  0.00  0.00    -0.269 OA
ATOM     13  S   UNL     1      -2.100   0.218   3.923  0.00  0.00    -0.097 S 
ATOM     14  C   UNL     1      -0.826   0.386   2.616  0.00  0.00    +0.105 C 
ATOM     15  C   UNL     1       0.217   1.433   3.017  0.00  0.00    +0.179 C 
ATOM     16  O   UNL     1       0.962   1.788   1.846  0.00  0.00    -0.372 OA
ATOM     17  C   UNL     1       1.193   2.837  -0.313  0.00  0.00    +0.041 C 
ENDROOT
BRANCH  10  18
ATOM     18  C   UNL     1      -6.223   1.919   0.125  0.00  0.00    +0.046 A 
ATOM     19  C   UNL     1      -6.581   3.256   0.025  0.00  0.00    +0.025 A 
ATOM     20  C   UNL     1      -7.558   3.643  -0.871  0.00  0.00    +0.022 A 
ATOM     21  C   UNL     1      -8.181   2.698  -1.669  0.00  0.00    +0.041 A 
ATOM     22  C   UNL     1      -7.825   1.365  -1.571  0.00  0.00    +0.022 A 
ATOM     23  C   UNL     1      -6.844   0.974  -0.680  0.00  0.00    +0.025 A 
ATOM     24 CL   UNL     1      -9.409   3.187  -2.793  0.00  0.00    -0.084 Cl
ENDBRANCH  10  18
TORSDOF 1
