REMARK  Name = ZINC31298001
REMARK  9 active torsions:
REMARK  status: ('A' for Active; 'I' for Inactive)
REMARK    1  A    between atoms: C_1  and  N_2
REMARK    2  A    between atoms: N_2  and  C_3
REMARK    3  A    between atoms: N_2  and  C_15
REMARK    4  A    between atoms: C_3  and  C_4
REMARK    5  A    between atoms: N_6  and  C_7
REMARK    6  A    between atoms: C_15  and  C_16
REMARK    7  A    between atoms: N_18  and  C_19
REMARK    8  A    between atoms: N_18  and  C_26
REMARK    9  A    between atoms: C_19  and  C_20
REMARK                            x       y       z     vdW  Elec       q    Type
REMARK                         _______ _______ _______ _____ _____    ______ ____
ROOT
ATOM      1  C   UNL     1       7.157  -1.581  -3.105  0.00  0.00    +0.019 C 
ENDROOT
BRANCH   1   3
ATOM      2  C   UNL     1       7.845   0.741  -3.117  0.00  0.00    -0.095 C 
ATOM      3  N   UNL     1       8.243  -0.641  -3.417  0.00  0.00    +0.389 N 
ATOM      4  H   UNL     1       9.101  -0.893  -2.777  0.00  0.00    -0.081 HD
BRANCH   3   5
ATOM      5  C   UNL     1       8.668  -0.775  -4.817  0.00  0.00    +0.019 C 
BRANCH   5   6
ATOM      6  C   UNL     1       9.931   0.017  -5.036  0.00  0.00    +0.201 C 
ATOM      7  O   UNL     1      10.429   0.632  -4.116  0.00  0.00    -0.278 OA
ATOM      8  N   UNL     1      10.509   0.042  -6.253  0.00  0.00    -0.285 N 
ATOM      9  H   UNL     1      10.091  -0.562  -7.072  0.00  0.00    +0.155 HD
BRANCH   8  10
ATOM     10  C   UNL     1      11.640   0.837  -6.475  0.00  0.00    +0.070 A 
ATOM     11  C   UNL     1      11.700   2.124  -5.956  0.00  0.00    +0.064 A 
ATOM     12  C   UNL     1      12.820   2.904  -6.173  0.00  0.00    +0.022 A 
ATOM     13  C   UNL     1      13.877   2.408  -6.915  0.00  0.00    +0.003 A 
ATOM     14  C   UNL     1      13.818   1.129  -7.438  0.00  0.00    +0.022 A 
ATOM     15  C   UNL     1      12.703   0.342  -7.221  0.00  0.00    +0.064 A 
ATOM     16 CL   UNL     1      12.631  -1.263  -7.878  0.00  0.00    -0.082 Cl
ATOM     17 CL   UNL     1      10.372   2.749  -5.029  0.00  0.00    -0.082 Cl
ENDBRANCH   8  10
ENDBRANCH   5   6
ENDBRANCH   3   5
ENDBRANCH   1   3
BRANCH   1  18
ATOM     18  C   UNL     1       6.915  -1.592  -1.618  0.00  0.00    +0.203 C 
ATOM     19  O   UNL     1       7.607  -0.917  -0.885  0.00  0.00    -0.277 OA
ATOM     20  N   UNL     1       5.930  -2.353  -1.101  0.00  0.00    -0.269 N 
BRANCH  20  21
ATOM     21  C   UNL     1       5.062  -3.047  -1.952  0.00  0.00    +0.037 A 
ATOM     22  C   UNL     1       4.111  -2.354  -2.690  0.00  0.00    +0.023 A 
ATOM     23  C   UNL     1       3.260  -3.041  -3.534  0.00  0.00    +0.002 A 
ATOM     24  C   UNL     1       3.346  -4.417  -3.635  0.00  0.00    +0.000 A 
ATOM     25  C   UNL     1       4.288  -5.110  -2.897  0.00  0.00    +0.002 A 
ATOM     26  C   UNL     1       5.146  -4.429  -2.056  0.00  0.00    +0.023 A 
ENDBRANCH  20  21
BRANCH  20  27
ATOM     27  C   UNL     1       5.768  -2.455   0.351  0.00  0.00    +0.148 C 
BRANCH  27  28
ATOM     28  C   UNL     1       4.837  -1.371   0.830  0.00  0.00    -0.030 A 
ATOM     29  C   UNL     1       3.477  -1.606   0.894  0.00  0.00    +0.005 A 
ATOM     30  C   UNL     1       2.623  -0.611   1.332  0.00  0.00    +0.000 A 
ATOM     31  C   UNL     1       3.130   0.619   1.707  0.00  0.00    +0.000 A 
ATOM     32  C   UNL     1       4.491   0.855   1.643  0.00  0.00    +0.000 A 
ATOM     33  C   UNL     1       5.344  -0.140   1.204  0.00  0.00    +0.005 A 
ENDBRANCH  27  28
ENDBRANCH  20  27
ENDBRANCH   1  18
TORSDOF 8
