REMARK  Name = ZINC01796977
REMARK  9 active torsions:
REMARK  status: ('A' for Active; 'I' for Inactive)
REMARK    1  A    between atoms: C_1  and  C_2
REMARK    2  A    between atoms: C_3  and  C_35
REMARK    3  A    between atoms: C_5  and  N_27
REMARK    4  A    between atoms: C_6  and  C_7
REMARK    5  A    between atoms: C_7  and  C_9
REMARK    6  A    between atoms: C_7  and  N_67
REMARK    7  A    between atoms: C_17  and  C_20
REMARK    8  A    between atoms: C_20  and  C_21
REMARK    9  A    between atoms: C_28  and  C_30
REMARK                            x       y       z     vdW  Elec       q    Type
REMARK                         _______ _______ _______ _____ _____    ______ ____
ROOT
ATOM      1  C   UNL     1       0.095   1.454  -0.043  0.00  0.00    -0.004 C 
ENDROOT
BRANCH   1   7
ATOM      2  C   UNL     1       2.164   2.740   1.556  0.00  0.00    +0.045 C 
ATOM      3  C   UNL     1       0.728   2.750   2.012  0.00  0.00    -0.037 A 
ATOM      4  C   UNL     1       0.380   3.357   3.172  0.00  0.00    -0.008 A 
ATOM      5  S   UNL     1      -1.382   3.077   3.227  0.00  0.00    -0.078 S 
ATOM      6  C   UNL     1      -1.541   2.172   1.696  0.00  0.00    +0.074 A 
ATOM      7  C   UNL     1      -0.253   2.139   1.253  0.00  0.00    -0.025 A 
ATOM      8  C   UNL     1       1.256   4.082   4.162  0.00  0.00    +0.052 C 
BRANCH   6   9
ATOM      9  N   UNL     1      -2.688   1.637   1.106  0.00  0.00    -0.273 N 
ATOM     10  C   UNL     1      -3.864   1.673   1.764  0.00  0.00    +0.284 C 
ATOM     11  O   UNL     1      -3.926   2.173   2.872  0.00  0.00    -0.266 OA
ATOM     12  H   UNL     1      -2.639   1.239   0.223  0.00  0.00    +0.156 HD
BRANCH  10  13
ATOM     13  C   UNL     1      -5.068   1.111   1.144  0.00  0.00    +0.189 A 
ATOM     14  C   UNL     1      -6.316   1.083   1.697  0.00  0.00    +0.054 A 
ATOM     15  C   UNL     1      -7.158   0.458   0.763  0.00  0.00    +0.042 A 
ATOM     16  C   UNL     1      -6.396   0.137  -0.306  0.00  0.00    +0.196 A 
ATOM     17  O   UNL     1      -5.139   0.537  -0.075  0.00  0.00    -0.458 OA
ENDBRANCH  10  13
ENDBRANCH   6   9
ENDBRANCH   1   7
BRANCH   1  23
ATOM     18  C   UNL     1      -0.605   1.135  -2.338  0.00  0.00    -0.077 C 
ATOM     19  C   UNL     1      -1.742   1.394  -3.329  0.00  0.00    -0.015 C 
ATOM     20  C   UNL     1      -1.897   2.903  -3.538  0.00  0.00    -0.010 C 
ATOM     21  C   UNL     1      -2.162   3.573  -2.187  0.00  0.00    -0.015 C 
ATOM     22  C   UNL     1      -1.013   3.251  -1.229  0.00  0.00    -0.077 C 
ATOM     23  N   UNL     1      -0.933   1.785  -1.052  0.00  0.00    +0.387 N 
ATOM     24  H   UNL     1      -1.843   1.439  -0.726  0.00  0.00    -0.080 HD
BRANCH  20  25
ATOM     25  C   UNL     1      -3.071   3.173  -4.481  0.00  0.00    +0.038 C 
BRANCH  25  26
ATOM     26  C   UNL     1      -2.755   2.619  -5.847  0.00  0.00    -0.047 A 
ATOM     27  C   UNL     1      -2.126   3.413  -6.786  0.00  0.00    +0.003 A 
ATOM     28  C   UNL     1      -1.832   2.904  -8.037  0.00  0.00    +0.000 A 
ATOM     29  C   UNL     1      -2.178   1.603  -8.352  0.00  0.00    +0.000 A 
ATOM     30  C   UNL     1      -2.812   0.810  -7.415  0.00  0.00    +0.000 A 
ATOM     31  C   UNL     1      -3.101   1.318  -6.162  0.00  0.00    +0.003 A 
ENDBRANCH  25  26
ENDBRANCH  20  25
ENDBRANCH   1  23
BRANCH   1  32
ATOM     32  C   UNL     1       0.111  -0.038   0.166  0.00  0.00    -0.057 A 
ATOM     33  C   UNL     1      -1.063  -0.762   0.073  0.00  0.00    +0.002 A 
ATOM     34  C   UNL     1      -1.048  -2.131   0.260  0.00  0.00    +0.000 A 
ATOM     35  C   UNL     1       0.140  -2.776   0.549  0.00  0.00    +0.000 A 
ATOM     36  C   UNL     1       1.314  -2.052   0.646  0.00  0.00    +0.000 A 
ATOM     37  C   UNL     1       1.299  -0.683   0.455  0.00  0.00    +0.002 A 
ENDBRANCH   1  32
TORSDOF 7
