REMARK  Name = ZINC22014023
REMARK  9 active torsions:
REMARK  status: ('A' for Active; 'I' for Inactive)
REMARK    1  A    between atoms: C_1  and  N_2
REMARK    2  A    between atoms: N_2  and  C_3
REMARK    3  A    between atoms: C_4  and  C_6
REMARK    4  A    between atoms: N_11  and  C_12
REMARK    5  A    between atoms: C_12  and  C_13
REMARK    6  A    between atoms: N_15  and  C_16
REMARK    7  A    between atoms: C_20  and  C_22
REMARK    8  A    between atoms: N_24  and  C_25
REMARK    9  A    between atoms: C_29  and  C_31
REMARK                            x       y       z     vdW  Elec       q    Type
REMARK                         _______ _______ _______ _____ _____    ______ ____
ROOT
ATOM      1  C   UNL     1       2.404   9.207   0.900  0.00  0.00    +0.034 A 
ATOM      2  C   UNL     1       1.499   9.568   1.892  0.00  0.00    +0.023 A 
ATOM      3  C   UNL     1       0.333   8.847   2.065  0.00  0.00    +0.003 A 
ATOM      4  C   UNL     1       0.059   7.764   1.254  0.00  0.00    +0.013 A 
ATOM      5  C   UNL     1       0.961   7.394   0.256  0.00  0.00    +0.039 A 
ATOM      6  C   UNL     1       2.141   8.118   0.085  0.00  0.00    +0.036 A 
ENDROOT
BRANCH   1   9
ATOM      7  C   UNL     1       3.590  11.269   0.958  0.00  0.00    +0.201 C 
ATOM      8  O   UNL     1       2.555  11.844   1.223  0.00  0.00    -0.278 OA
ATOM      9  N   UNL     1       3.583   9.941   0.729  0.00  0.00    -0.287 N 
ATOM     10  H   UNL     1       4.505   9.434   0.408  0.00  0.00    +0.155 HD
BRANCH   7  11
ATOM     11  C   UNL     1       4.883  12.040   0.886  0.00  0.00    +0.020 C 
BRANCH  11  16
ATOM     12  C   UNL     1       5.898  14.226   1.232  0.00  0.00    +0.020 C 
ATOM     13  C   UNL     1       5.423  15.689   1.048  0.00  0.00    -0.008 C 
ATOM     14  C   UNL     1       4.257  15.550   0.042  0.00  0.00    -0.020 C 
ATOM     15  C   UNL     1       3.792  14.087   0.165  0.00  0.00    -0.077 C 
ATOM     16  N   UNL     1       4.630  13.451   1.204  0.00  0.00    +0.393 N 
ATOM     17  H   UNL     1       4.129  13.452   2.183  0.00  0.00    -0.080 HD
BRANCH  12  21
ATOM     18  C   UNL     1       8.446  14.515   4.074  0.00  0.00    +0.131 C 
ATOM     19  N   UNL     1       7.768  14.680   2.786  0.00  0.00    -0.309 N 
ATOM     20  C   UNL     1       8.364  15.524   1.748  0.00  0.00    +0.131 C 
ATOM     21  C   UNL     1       6.596  14.056   2.557  0.00  0.00    +0.202 C 
ATOM     22  O   UNL     1       6.102  13.358   3.417  0.00  0.00    -0.277 OA
ENDBRANCH  12  21
ENDBRANCH  11  16
ENDBRANCH   7  11
ENDBRANCH   1   9
BRANCH   5  23
ATOM     23  C   UNL     1       0.670   6.234  -0.614  0.00  0.00    +0.248 C 
ATOM     24  O   UNL     1       1.457   5.914  -1.483  0.00  0.00    -0.270 OA
ATOM     25  N   UNL     1      -0.468   5.532  -0.443  0.00  0.00    -0.281 N 
ATOM     26  H   UNL     1      -1.219   5.872   0.285  0.00  0.00    +0.155 HD
BRANCH  25  27
ATOM     27  C   UNL     1      -0.693   4.372  -1.191  0.00  0.00    +0.034 A 
ATOM     28  C   UNL     1      -1.982   4.036  -1.583  0.00  0.00    +0.023 A 
ATOM     29  C   UNL     1      -2.201   2.890  -2.321  0.00  0.00    +0.002 A 
ATOM     30  C   UNL     1      -1.138   2.077  -2.671  0.00  0.00    +0.012 A 
ATOM     31  C   UNL     1       0.146   2.407  -2.279  0.00  0.00    +0.057 A 
ATOM     32  C   UNL     1       0.372   3.554  -1.544  0.00  0.00    +0.035 A 
BRANCH  31  33
ATOM     33  C   UNL     1       1.300   1.515  -2.657  0.00  0.00    +0.417 C 
ATOM     34  F   UNL     1       0.826   0.427  -3.398  0.00  0.00    -0.166 F 
ATOM     35  F   UNL     1       2.216   2.240  -3.428  0.00  0.00    -0.166 F 
ATOM     36  F   UNL     1       1.931   1.051  -1.498  0.00  0.00    -0.166 F 
ENDBRANCH  31  33
ENDBRANCH  25  27
ENDBRANCH   5  23
TORSDOF 7
