REMARK  Name = ZINC18159193
REMARK  12 active torsions:
REMARK  status: ('A' for Active; 'I' for Inactive)
REMARK    1  A    between atoms: C_1  and  C_2
REMARK    2  A    between atoms: C_5  and  N_8
REMARK    3  A    between atoms: C_10  and  C_38
REMARK    4  A    between atoms: C_11  and  C_12
REMARK    5  A    between atoms: N_13  and  C_14
REMARK    6  A    between atoms: C_16  and  N_20
REMARK    7  A    between atoms: C_21  and  C_22
REMARK    8  A    between atoms: C_23  and  O_24
REMARK    9  A    between atoms: N_25  and  C_29
REMARK   10  A    between atoms: C_27  and  C_28
REMARK   11  A    between atoms: C_32  and  C_35
REMARK   12  A    between atoms: C_36  and  O_37
REMARK                            x       y       z     vdW  Elec       q    Type
REMARK                         _______ _______ _______ _____ _____    ______ ____
ROOT
ATOM      1  C   UNL     1       2.167  -8.480   2.880  0.00  0.00    +0.132 A 
ATOM      2  N   UNL     1       3.435  -8.536   3.273  0.00  0.00    -0.325 N 
ATOM      3  C   UNL     1       3.922  -9.607   3.892  0.00  0.00    +0.132 A 
ATOM      4  C   UNL     1       3.107 -10.713   4.149  0.00  0.00    +0.046 A 
ATOM      5  C   UNL     1       1.780 -10.684   3.752  0.00  0.00    +0.007 A 
ATOM      6  C   UNL     1       1.302  -9.552   3.113  0.00  0.00    +0.046 A 
ATOM      7  H   UNL     1       4.019  -7.780   3.105  0.00  0.00    +0.169 HD
ENDROOT
BRANCH   1   9
ATOM      8  C   UNL     1       0.959  -7.477   1.179  0.00  0.00    +0.128 C 
ATOM      9  N   UNL     1       1.704  -7.362   2.247  0.00  0.00    -0.237 NA
BRANCH   8  13
ATOM     10  N   UNL     1       0.059  -4.172  -0.021  0.00  0.00    -0.200 N 
ATOM     11  N   UNL     1      -0.580  -4.993  -0.956  0.00  0.00    -0.168 NA
ATOM     12  C   UNL     1      -0.350  -6.241  -0.659  0.00  0.00    +0.073 A 
ATOM     13  C   UNL     1       0.462  -6.278   0.500  0.00  0.00    +0.077 A 
ATOM     14  C   UNL     1       0.703  -4.957   0.869  0.00  0.00    +0.225 A 
ATOM     15  C   UNL     1      -0.861  -7.438  -1.419  0.00  0.00    +0.068 C 
BRANCH  10  20
ATOM     16  C   UNL     1      -0.018   1.503   0.010  0.00  0.00    +0.044 C 
ATOM     17  C   UNL     1       0.002  -0.004   0.002  0.00  0.00    -0.050 A 
ATOM     18  C   UNL     1       0.006  -0.688  -1.200  0.00  0.00    +0.005 A 
ATOM     19  C   UNL     1       0.025  -2.068  -1.211  0.00  0.00    +0.028 A 
ATOM     20  C   UNL     1       0.041  -2.771  -0.013  0.00  0.00    +0.069 A 
ATOM     21  C   UNL     1       0.037  -2.082   1.192  0.00  0.00    +0.028 A 
ATOM     22  C   UNL     1       0.023  -0.700   1.196  0.00  0.00    +0.005 A 
ENDBRANCH  10  20
BRANCH  14  23
ATOM     23  O   UNL     1       1.442  -4.539   1.924  0.00  0.00    -0.492 OA
ATOM     24  H   UNL     1       0.935  -4.430   2.740  0.00  0.00    +0.294 HD
ENDBRANCH  14  23
ENDBRANCH   8  13
ENDBRANCH   1   9
BRANCH   3  25
ATOM     25  N   UNL     1       5.231  -9.627   4.280  0.00  0.00    -0.237 NA
ATOM     26  C   UNL     1       5.553 -10.058   5.473  0.00  0.00    +0.128 C 
BRANCH  26  27
ATOM     27  C   UNL     1       6.957 -10.079   5.889  0.00  0.00    +0.077 A 
ATOM     28  C   UNL     1       8.052  -9.671   5.132  0.00  0.00    +0.225 A 
ATOM     29  N   UNL     1       9.152  -9.859   5.892  0.00  0.00    -0.200 N 
ATOM     30  N   UNL     1       8.755 -10.385   7.126  0.00  0.00    -0.168 NA
ATOM     31  C   UNL     1       7.458 -10.515   7.140  0.00  0.00    +0.073 A 
ATOM     32  C   UNL     1       6.635 -11.041   8.287  0.00  0.00    +0.068 C 
BRANCH  29  33
ATOM     33  C   UNL     1      10.470  -9.575   5.508  0.00  0.00    +0.069 A 
ATOM     34  C   UNL     1      10.865  -9.755   4.190  0.00  0.00    +0.028 A 
ATOM     35  C   UNL     1      12.164  -9.474   3.815  0.00  0.00    +0.005 A 
ATOM     36  C   UNL     1      13.072  -9.014   4.752  0.00  0.00    -0.050 A 
ATOM     37  C   UNL     1      12.681  -8.834   6.066  0.00  0.00    +0.005 A 
ATOM     38  C   UNL     1      11.382  -9.107   6.446  0.00  0.00    +0.028 A 
ATOM     39  C   UNL     1      14.489  -8.708   4.339  0.00  0.00    +0.044 C 
ENDBRANCH  29  33
BRANCH  28  40
ATOM     40  O   UNL     1       8.020  -9.178   3.872  0.00  0.00    -0.492 OA
ATOM     41  H   UNL     1       7.927  -8.216   3.828  0.00  0.00    +0.294 HD
ENDBRANCH  28  40
ENDBRANCH  26  27
ENDBRANCH   3  25
TORSDOF 8
