REMARK  Name = ZINC65370056
REMARK  4 active torsions:
REMARK  status: ('A' for Active; 'I' for Inactive)
REMARK    1  A    between atoms: C_1  and  C_2
REMARK    2  A    between atoms: C_5  and  N_9
REMARK    3  A    between atoms: C_7  and  C_8
REMARK    4  A    between atoms: C_11  and  C_14
REMARK                            x       y       z     vdW  Elec       q    Type
REMARK                         _______ _______ _______ _____ _____    ______ ____
ROOT
ATOM      1  C   UNL     1       0.237  -7.467  -1.579  0.00  0.00    +0.080 C 
ATOM      2  C   UNL     1       1.476  -8.258  -1.200  0.00  0.00    +0.110 C 
ATOM      3  C   UNL     1       1.686  -9.419  -2.119  0.00  0.00    +0.214 C 
ATOM      4  O   UNL     1       2.609  -9.377  -2.905  0.00  0.00    -0.276 OA
ATOM      5  N   UNL     1       0.907 -10.495  -2.111  0.00  0.00    -0.310 N 
ATOM      6  C   UNL     1      -0.124 -10.659  -1.090  0.00  0.00    +0.161 C 
ATOM      7  C   UNL     1      -1.176  -9.590  -1.208  0.00  0.00    +0.081 A 
ATOM      8  C   UNL     1      -1.018  -8.284  -1.419  0.00  0.00    +0.056 A 
ATOM      9  N   UNL     1      -2.292  -7.706  -1.475  0.00  0.00    -0.297 N 
ATOM     10  C   UNL     1      -2.841  -6.458  -1.670  0.00  0.00    +0.100 A 
ATOM     11  C   UNL     1      -4.162  -6.285  -1.652  0.00  0.00    +0.067 A 
ATOM     12  S   UNL     1      -4.747  -7.945  -1.344  0.00  0.00    -0.058 S 
ATOM     13  C   UNL     1      -3.159  -8.742  -1.267  0.00  0.00    +0.178 A 
ATOM     14  N   UNL     1      -2.500  -9.846  -1.109  0.00  0.00    -0.224 NA
ATOM     15  H   UNL     1       1.023 -11.177  -2.790  0.00  0.00    +0.149 HD
ENDROOT
BRANCH   1  18
ATOM     16  N   UNL     1       0.059  -4.172  -0.021  0.00  0.00    -0.240 N 
ATOM     17  C   UNL     1       0.164  -4.961  -1.114  0.00  0.00    +0.118 A 
ATOM     18  C   UNL     1       0.145  -6.248  -0.697  0.00  0.00    -0.000 A 
ATOM     19  C   UNL     1       0.023  -6.247   0.697  0.00  0.00    +0.139 A 
ATOM     20  N   UNL     1      -0.023  -5.004   1.103  0.00  0.00    -0.175 NA
BRANCH  16  25
ATOM     21  C   UNL     1      -0.018   1.503   0.010  0.00  0.00    +0.044 C 
ATOM     22  C   UNL     1       0.002  -0.004   0.002  0.00  0.00    -0.047 A 
ATOM     23  C   UNL     1       0.006  -0.688  -1.200  0.00  0.00    +0.006 A 
ATOM     24  C   UNL     1       0.025  -2.068  -1.211  0.00  0.00    +0.028 A 
ATOM     25  C   UNL     1       0.040  -2.771  -0.013  0.00  0.00    +0.066 A 
ATOM     26  C   UNL     1       0.037  -2.082   1.192  0.00  0.00    +0.031 A 
ATOM     27  C   UNL     1       0.023  -0.700   1.196  0.00  0.00    -0.046 A 
ATOM     28  C   UNL     1       0.025   0.048   2.504  0.00  0.00    +0.044 C 
ENDBRANCH  16  25
ENDBRANCH   1  18
TORSDOF 2
