REMARK  Name = ZINC36587381
REMARK  23 active torsions:
REMARK  status: ('A' for Active; 'I' for Inactive)
REMARK    1  A    between atoms: C_1  and  C_2
REMARK    2  A    between atoms: C_2  and  C_3
REMARK    3  A    between atoms: C_2  and  C_4
REMARK    4  A    between atoms: C_2  and  C_5
REMARK    5  A    between atoms: C_5  and  C_6
REMARK    6  A    between atoms: C_6  and  C_7
REMARK    7  A    between atoms: C_6  and  C_8
REMARK    8  A    between atoms: C_6  and  N_9
REMARK    9  A    between atoms: C_10  and  C_12
REMARK   10  A    between atoms: C_12  and  C_14
REMARK   11  A    between atoms: C_12  and  N_23
REMARK   12  A    between atoms: C_15  and  O_22
REMARK   13  A    between atoms: C_17  and  O_21
REMARK   14  A    between atoms: C_19  and  O_20
REMARK   15  A    between atoms: N_23  and  C_36
REMARK   16  A    between atoms: C_24  and  C_26
REMARK   17  A    between atoms: C_26  and  C_27
REMARK   18  A    between atoms: C_27  and  C_28
REMARK   19  A    between atoms: C_31  and  O_34
REMARK   20  A    between atoms: O_34  and  C_35
REMARK   21  A    between atoms: C_36  and  C_37
REMARK   22  A    between atoms: C_36  and  C_38
REMARK   23  A    between atoms: C_36  and  C_39
REMARK                            x       y       z     vdW  Elec       q    Type
REMARK                         _______ _______ _______ _____ _____    ______ ____
ROOT
ATOM      1  C   UNL     1       4.250  -1.058  -1.476  0.00  0.00    +0.200 C 
ENDROOT
BRANCH   1   2
ATOM      2  C   UNL     1       3.146  -1.007  -2.500  0.00  0.00    +0.065 A 
ATOM      3  C   UNL     1       3.001   0.111  -3.308  0.00  0.00    +0.129 A 
ATOM      4  C   UNL     1       1.984   0.158  -4.250  0.00  0.00    +0.091 A 
ATOM      5  C   UNL     1       1.113  -0.913  -4.384  0.00  0.00    +0.124 A 
ATOM      6  C   UNL     1       1.258  -2.031  -3.576  0.00  0.00    +0.091 A 
ATOM      7  C   UNL     1       2.278  -2.080  -2.637  0.00  0.00    +0.129 A 
BRANCH   7   8
ATOM      8  O   UNL     1       2.423  -3.177  -1.849  0.00  0.00    -0.506 OA
ATOM      9  H   UNL     1       1.926  -3.135  -1.021  0.00  0.00    +0.292 HD
ENDBRANCH   7   8
BRANCH   5  10
ATOM     10  O   UNL     1       0.116  -0.866  -5.306  0.00  0.00    -0.507 OA
ATOM     11  H   UNL     1       0.365  -1.215  -6.173  0.00  0.00    +0.292 HD
ENDBRANCH   5  10
BRANCH   3  12
ATOM     12  O   UNL     1       3.854   1.159  -3.176  0.00  0.00    -0.506 OA
ATOM     13  H   UNL     1       4.600   1.139  -3.792  0.00  0.00    +0.292 HD
ENDBRANCH   3  12
ENDBRANCH   1   2
BRANCH   1  15
ATOM     14  N   UNL     1       2.768  -0.828   0.490  0.00  0.00    -0.308 N 
ATOM     15  C   UNL     1       3.807  -0.350  -0.222  0.00  0.00    +0.239 C 
ATOM     16  O   UNL     1       4.385   0.651   0.146  0.00  0.00    -0.273 OA
ATOM     17  H   UNL     1       2.305  -1.629   0.196  0.00  0.00    +0.149 HD
BRANCH  14  18
ATOM     18  C   UNL     1       2.336  -0.140   1.709  0.00  0.00    +0.030 C 
ATOM     19  C   UNL     1       1.994   1.315   1.379  0.00  0.00    +0.031 C 
ATOM     20  C   UNL     1       3.465  -0.176   2.742  0.00  0.00    +0.031 C 
BRANCH  18  21
ATOM     21  C   UNL     1       1.100  -0.838   2.279  0.00  0.00    +0.031 C 
BRANCH  21  23
ATOM     22  C   UNL     1       0.370  -2.130   0.269  0.00  0.00    +0.010 C 
ATOM     23  C   UNL     1       0.032  -0.955   1.190  0.00  0.00    -0.036 C 
ATOM     24  C   UNL     1      -0.007   0.338   0.373  0.00  0.00    +0.010 C 
ATOM     25  C   UNL     1      -1.333  -1.191   1.837  0.00  0.00    +0.010 C 
ENDBRANCH  21  23
ENDBRANCH  18  21
ENDBRANCH  14  18
ENDBRANCH   1  15
BRANCH   1  26
ATOM     26  N   UNL     1       5.444  -0.400  -2.013  0.00  0.00    -0.281 N 
ATOM     27  C   UNL     1       5.910  -0.738  -3.231  0.00  0.00    +0.217 C 
ATOM     28  O   UNL     1       5.465  -1.711  -3.802  0.00  0.00    -0.276 OA
BRANCH  26  29
ATOM     29  C   UNL     1       6.131   0.626  -1.224  0.00  0.00    +0.030 C 
ATOM     30  C   UNL     1       6.386   0.098   0.189  0.00  0.00    +0.031 C 
ATOM     31  C   UNL     1       7.466   0.970  -1.889  0.00  0.00    +0.031 C 
ATOM     32  C   UNL     1       5.260   1.881  -1.150  0.00  0.00    +0.031 C 
ENDBRANCH  26  29
BRANCH  27  33
ATOM     33  C   UNL     1       6.984   0.092  -3.884  0.00  0.00    +0.100 C 
BRANCH  33  34
ATOM     34  C   UNL     1       7.334  -0.506  -5.248  0.00  0.00    +0.044 C 
BRANCH  34  35
ATOM     35  C   UNL     1       8.408   0.324  -5.902  0.00  0.00    -0.047 A 
ATOM     36  C   UNL     1       8.060   1.390  -6.711  0.00  0.00    +0.007 A 
ATOM     37  C   UNL     1       9.043   2.153  -7.311  0.00  0.00    +0.046 A 
ATOM     38  C   UNL     1      10.380   1.849  -7.101  0.00  0.00    +0.120 A 
ATOM     39  C   UNL     1      10.727   0.779  -6.288  0.00  0.00    +0.046 A 
ATOM     40  C   UNL     1       9.740   0.023  -5.686  0.00  0.00    +0.007 A 
BRANCH  38  41
ATOM     41  O   UNL     1      11.349   2.598  -7.691  0.00  0.00    -0.495 OA
ATOM     42  C   UNL     1      12.704   2.227  -7.430  0.00  0.00    +0.277 C 
ENDBRANCH  38  41
ENDBRANCH  34  35
ENDBRANCH  33  34
ENDBRANCH  27  33
ENDBRANCH   1  26
TORSDOF 14
