REMARK  Name = ZINC41017601
REMARK  6 active torsions:
REMARK  status: ('A' for Active; 'I' for Inactive)
REMARK    1  A    between atoms: C_1  and  C_2
REMARK    2  A    between atoms: C_2  and  C_3
REMARK    3  A    between atoms: C_2  and  C_4
REMARK    4  A    between atoms: C_4  and  C_6
REMARK    5  A    between atoms: C_4  and  S_9
REMARK    6  A    between atoms: S_9  and  C_10
REMARK                            x       y       z     vdW  Elec       q    Type
REMARK                         _______ _______ _______ _____ _____    ______ ____
ROOT
ATOM      1  S   UNL     1      -2.201  -0.347  -1.639  0.00  0.00    -0.082 S 
ENDROOT
BRANCH   1   2
ATOM      2  C   UNL     1      -3.680  -1.301  -1.546  0.00  0.00    +0.161 A 
ATOM      3  N   UNL     1      -4.128  -2.054  -0.560  0.00  0.00    -0.133 NA
ATOM      4  N   UNL     1      -5.323  -2.721  -0.697  0.00  0.00    -0.125 NA
ATOM      5  C   UNL     1      -6.016  -2.604  -1.813  0.00  0.00    +0.180 A 
ATOM      6  S   UNL     1      -4.977  -1.499  -2.757  0.00  0.00    -0.025 S 
ATOM      7  N   UNL     1      -7.232  -3.181  -2.160  0.00  0.00    -0.336 N 
ATOM      8  H   UNL     1      -7.688  -3.765  -1.534  0.00  0.00    +0.144 HD
ATOM      9  H   UNL     1      -7.624  -3.001  -3.029  0.00  0.00    +0.144 HD
ENDBRANCH   1   2
BRANCH   1  10
ATOM     10  C   UNL     1      -1.390  -0.638  -0.043  0.00  0.00    +0.169 C 
BRANCH  10  12
ATOM     11  C   UNL     1       0.649  -0.172   1.323  0.00  0.00    +0.009 C 
ATOM     12  C   UNL     1      -0.018   0.040  -0.037  0.00  0.00    +0.007 C 
ATOM     13  C   UNL     1       0.856  -0.568  -1.135  0.00  0.00    +0.009 C 
ENDBRANCH  10  12
BRANCH  10  14
ATOM     14  C   UNL     1      -2.238  -0.065   1.063  0.00  0.00    +0.369 C 
ATOM     15  O   UNL     1      -2.386   1.142   1.155  0.00  0.00    -0.245 OA
ATOM     16  O   UNL     1      -2.777  -0.808   1.865  0.00  0.00    -0.245 OA
ENDBRANCH  10  14
ENDBRANCH   1  10
TORSDOF 4
