REMARK  Name = ZINC05895165
REMARK  2 active torsions:
REMARK  status: ('A' for Active; 'I' for Inactive)
REMARK    1  A    between atoms: C_3  and  S_8
REMARK    2  A    between atoms: S_8  and  N_11
REMARK                            x       y       z     vdW  Elec       q    Type
REMARK                         _______ _______ _______ _____ _____    ______ ____
ROOT
ATOM      1  N   UNL     1      -2.534   3.755   0.047  0.00  0.00    -0.182 N 
ATOM      2  C   UNL     1      -3.329   2.646   0.048  0.00  0.00    +0.225 A 
ATOM      3  N   UNL     1      -2.586   1.577   0.035  0.00  0.00    -0.227 NA
ATOM      4  C   UNL     1      -1.282   1.944   0.019  0.00  0.00    +0.172 A 
ATOM      5  C   UNL     1      -1.242   3.334   0.032  0.00  0.00    +0.169 A 
ATOM      6  N   UNL     1      -0.022   3.969   0.025  0.00  0.00    -0.291 N 
ATOM      7  H   UNL     1       0.015   4.968   0.030  0.00  0.00    +0.172 HD
ATOM      8  C   UNL     1       1.123   3.263   0.009  0.00  0.00    +0.328 A 
ATOM      9  O   UNL     1       2.181   3.861   0.003  0.00  0.00    -0.247 OA
ATOM     10  N   UNL     1       1.137   1.920   0.002  0.00  0.00    -0.273 N 
ATOM     11  H   UNL     1       2.012   1.436  -0.010  0.00  0.00    +0.173 HD
ATOM     12  C   UNL     1      -0.014   1.213   0.009  0.00  0.00    +0.282 A 
ATOM     13  O   UNL     1       0.002  -0.004   0.002  0.00  0.00    -0.265 OA
ENDROOT
BRANCH   1  14
ATOM     14  S   UNL     1      -3.050   5.329   0.063  0.00  0.00    +0.087 S 
ATOM     15  O   UNL     1      -2.334   6.000  -0.965  0.00  0.00    -0.148 OA
ATOM     16  O   UNL     1      -4.469   5.290   0.103  0.00  0.00    -0.148 OA
BRANCH  14  19
ATOM     17  C   UNL     1      -0.873   7.208   2.868  0.00  0.00    +0.040 A 
ATOM     18  C   UNL     1      -1.288   6.653   1.672  0.00  0.00    +0.032 A 
ATOM     19  C   UNL     1      -2.522   6.035   1.588  0.00  0.00    +0.111 A 
ATOM     20  C   UNL     1      -3.344   5.976   2.698  0.00  0.00    +0.032 A 
ATOM     21  C   UNL     1      -2.928   6.525   3.896  0.00  0.00    +0.040 A 
ATOM     22  C   UNL     1      -1.693   7.145   3.982  0.00  0.00    +0.124 A 
ATOM     23  F   UNL     1      -1.288   7.686   5.151  0.00  0.00    -0.205 F 
ENDBRANCH  14  19
ENDBRANCH   1  14
TORSDOF 2
