REMARK  Name = ZINC09875453
REMARK  11 active torsions:
REMARK  status: ('A' for Active; 'I' for Inactive)
REMARK    1  A    between atoms: C_1  and  C_2
REMARK    2  A    between atoms: C_2  and  N_55
REMARK    3  A    between atoms: C_3  and  C_4
REMARK    4  A    between atoms: C_3  and  N_55
REMARK    5  A    between atoms: C_5  and  C_6
REMARK    6  A    between atoms: C_5  and  N_55
REMARK    7  A    between atoms: C_9  and  C_12
REMARK    8  A    between atoms: C_12  and  N_13
REMARK    9  A    between atoms: N_16  and  C_17
REMARK   10  A    between atoms: C_17  and  C_18
REMARK   11  A    between atoms: N_20  and  C_21
REMARK                            x       y       z     vdW  Elec       q    Type
REMARK                         _______ _______ _______ _____ _____    ______ ____
ROOT
ATOM      1  N   UNL     1      -3.933   0.999   8.240  0.00  0.00    -0.295 N 
ATOM      2  C   UNL     1      -4.897   0.732   9.143  0.00  0.00    +0.300 C 
ATOM      3  O   UNL     1      -6.037   1.105   8.943  0.00  0.00    -0.253 OA
ATOM      4  N   UNL     1      -4.597   0.052  10.268  0.00  0.00    -0.291 N 
ATOM      5  H   UNL     1      -3.023   0.701   8.399  0.00  0.00    +0.151 HD
ATOM      6  H   UNL     1      -3.688  -0.245  10.427  0.00  0.00    +0.151 HD
ENDROOT
BRANCH   1   7
ATOM      7  C   UNL     1      -4.258   1.738   7.017  0.00  0.00    +0.141 C 
BRANCH   7  11
ATOM      8  C   UNL     1      -0.733   2.204   4.651  0.00  0.00    -0.064 A 
ATOM      9  C   UNL     1      -1.061   3.157   5.596  0.00  0.00    +0.002 A 
ATOM     10  C   UNL     1      -2.204   3.008   6.359  0.00  0.00    +0.005 A 
ATOM     11  C   UNL     1      -3.014   1.902   6.183  0.00  0.00    -0.030 A 
ATOM     12  C   UNL     1      -2.683   0.946   5.241  0.00  0.00    +0.005 A 
ATOM     13  C   UNL     1      -1.542   1.097   4.475  0.00  0.00    +0.002 A 
BRANCH   8  14
ATOM     14  C   UNL     1       0.511   2.368   3.816  0.00  0.00    -0.043 C 
BRANCH  14  15
ATOM     15  N   UNL     1       0.161   3.095   2.577  0.00  0.00    +0.382 N 
ATOM     16  H   UNL     1      -0.637   2.628   2.131  0.00  0.00    -0.081 HD
BRANCH  15  18
ATOM     17  C   UNL     1       0.966   5.233   3.522  0.00  0.00    -0.017 C 
ATOM     18  C   UNL     1      -0.215   4.488   2.898  0.00  0.00    -0.082 C 
ENDBRANCH  15  18
BRANCH  15  19
ATOM     19  C   UNL     1       1.307   3.084   1.644  0.00  0.00    -0.082 C 
ATOM     20  C   UNL     1       0.816   3.508   0.258  0.00  0.00    -0.017 C 
ENDBRANCH  15  19
ENDBRANCH  14  15
ENDBRANCH   8  14
ENDBRANCH   7  11
ENDBRANCH   1   7
BRANCH   4  21
ATOM     21  C   UNL     1      -5.645  -0.237  11.249  0.00  0.00    +0.202 C 
BRANCH  21  22
ATOM     22  C   UNL     1      -5.053  -1.002  12.405  0.00  0.00    +0.234 C 
ATOM     23  O   UNL     1      -3.872  -1.278  12.409  0.00  0.00    -0.274 OA
ATOM     24  N   UNL     1      -5.836  -1.379  13.435  0.00  0.00    -0.282 N 
ATOM     25  H   UNL     1      -6.793  -1.229  13.397  0.00  0.00    +0.155 HD
BRANCH  24  26
ATOM     26  C   UNL     1      -5.266  -1.988  14.562  0.00  0.00    +0.072 A 
ATOM     27  C   UNL     1      -3.909  -1.846  14.817  0.00  0.00    +0.029 A 
ATOM     28  C   UNL     1      -3.349  -2.442  15.930  0.00  0.00    +0.043 A 
ATOM     29  C   UNL     1      -4.138  -3.191  16.788  0.00  0.00    +0.161 A 
ATOM     30  C   UNL     1      -5.492  -3.340  16.534  0.00  0.00    +0.195 A 
ATOM     31  C   UNL     1      -6.058  -2.739  15.422  0.00  0.00    +0.182 A 
ATOM     32  F   UNL     1      -7.378  -2.883  15.174  0.00  0.00    -0.200 F 
ATOM     33  F   UNL     1      -6.260  -4.071  17.372  0.00  0.00    -0.199 F 
ATOM     34  F   UNL     1      -3.586  -3.777  17.873  0.00  0.00    -0.202 F 
ENDBRANCH  24  26
ENDBRANCH  21  22
ENDBRANCH   4  21
TORSDOF 9
