REMARK  Name = ZINC45521954
REMARK  8 active torsions:
REMARK  status: ('A' for Active; 'I' for Inactive)
REMARK    1  A    between atoms: C_1  and  C_2
REMARK    2  A    between atoms: C_2  and  N_3
REMARK    3  A    between atoms: C_7  and  C_9
REMARK    4  A    between atoms: C_9  and  N_10
REMARK    5  A    between atoms: N_10  and  C_11
REMARK    6  A    between atoms: C_11  and  N_13
REMARK    7  A    between atoms: N_13  and  N_14
REMARK    8  A    between atoms: C_15  and  C_17
REMARK                            x       y       z     vdW  Elec       q    Type
REMARK                         _______ _______ _______ _____ _____    ______ ____
ROOT
ATOM      1  N   UNL     1       5.044  -1.226  -1.011  0.00  0.00    -0.246 N 
ATOM      2  H   UNL     1       5.997  -1.368  -1.117  0.00  0.00    +0.172 HD
ENDROOT
BRANCH   1   3
ATOM      3  N   UNL     1       4.364  -0.359  -1.877  0.00  0.00    -0.231 N 
ATOM      4  C   UNL     1       5.036   0.277  -2.858  0.00  0.00    +0.268 C 
ATOM      5  O   UNL     1       6.232   0.099  -2.990  0.00  0.00    -0.268 OA
ATOM      6  H   UNL     1       3.411  -0.216  -1.772  0.00  0.00    +0.173 HD
BRANCH   4   7
ATOM      7  C   UNL     1       4.324   1.186  -3.765  0.00  0.00    +0.095 A 
ATOM      8  C   UNL     1       4.823   1.906  -4.807  0.00  0.00    +0.068 A 
ATOM      9  C   UNL     1       3.966   2.727  -5.564  0.00  0.00    +0.008 A 
ATOM     10  C   UNL     1       4.292   3.546  -6.676  0.00  0.00    +0.010 A 
ATOM     11  C   UNL     1       3.338   4.284  -7.299  0.00  0.00    +0.001 A 
ATOM     12  C   UNL     1       2.013   4.267  -6.877  0.00  0.00    +0.001 A 
ATOM     13  C   UNL     1       1.653   3.484  -5.800  0.00  0.00    +0.016 A 
ATOM     14  C   UNL     1       2.611   2.729  -5.158  0.00  0.00    +0.021 A 
ATOM     15  S   UNL     1       2.591   1.611  -3.779  0.00  0.00    -0.082 S 
ATOM     16 CL   UNL     1       6.511   1.812  -5.200  0.00  0.00    -0.082 Cl
ENDBRANCH   4   7
ENDBRANCH   1   3
BRANCH   1  17
ATOM     17  C   UNL     1       4.372  -1.862  -0.031  0.00  0.00    +0.147 C 
ATOM     18  S   UNL     1       5.202  -2.921   1.027  0.00  0.00    -0.017 S 
BRANCH  17  19
ATOM     19  N   UNL     1       3.047  -1.664   0.116  0.00  0.00    -0.327 N 
ATOM     20  H   UNL     1       2.577  -1.064  -0.484  0.00  0.00    +0.148 HD
BRANCH  19  21
ATOM     21  C   UNL     1       2.317  -2.355   1.181  0.00  0.00    +0.088 C 
BRANCH  21  26
ATOM     22  N   UNL     1       0.713  -0.491   1.192  0.00  0.00    +0.382 N 
ATOM     23  C   UNL     1      -0.052  -0.137   2.407  0.00  0.00    -0.078 C 
ATOM     24  C   UNL     1      -0.890  -1.399   2.729  0.00  0.00    -0.020 C 
ATOM     25  C   UNL     1       0.097  -2.535   2.352  0.00  0.00    -0.016 C 
ATOM     26  C   UNL     1       0.840  -1.958   1.128  0.00  0.00    -0.051 C 
ATOM     27  H   UNL     1       1.629  -0.072   1.236  0.00  0.00    -0.081 HD
BRANCH  22  29
ATOM     28  C   UNL     1      -0.019   1.526   0.010  0.00  0.00    -0.017 C 
ATOM     29  C   UNL     1       0.002  -0.004   0.002  0.00  0.00    -0.082 C 
ENDBRANCH  22  29
ENDBRANCH  21  26
ENDBRANCH  19  21
ENDBRANCH  17  19
ENDBRANCH   1  17
TORSDOF 7
