REMARK  Name = ZINC63340081
REMARK  8 active torsions:
REMARK  status: ('A' for Active; 'I' for Inactive)
REMARK    1  A    between atoms: C_1  and  C_2
REMARK    2  A    between atoms: C_4  and  C_15
REMARK    3  A    between atoms: N_7  and  C_9
REMARK    4  A    between atoms: N_17  and  C_18
REMARK    5  A    between atoms: C_18  and  C_19
REMARK    6  A    between atoms: C_19  and  C_20
REMARK    7  A    between atoms: C_23  and  O_29
REMARK    8  A    between atoms: O_29  and  C_30
REMARK                            x       y       z     vdW  Elec       q    Type
REMARK                         _______ _______ _______ _____ _____    ______ ____
ROOT
ATOM      1  C   UNL     1      -2.433   0.323  -0.586  0.00  0.00    +0.233 C 
ATOM      2  O   UNL     1      -3.115   1.078   0.073  0.00  0.00    -0.274 OA
ATOM      3  N   UNL     1      -2.566   0.291  -1.927  0.00  0.00    -0.314 N 
ATOM      4  H   UNL     1      -2.021  -0.314  -2.454  0.00  0.00    +0.149 HD
ENDROOT
BRANCH   1   7
ATOM      5  C   UNL     1      -0.019   1.526   0.010  0.00  0.00    +0.028 C 
ATOM      6  C   UNL     1       0.002  -0.004   0.002  0.00  0.00    +0.099 C 
ATOM      7  C   UNL     1      -1.437  -0.581   0.094  0.00  0.00    +0.178 C 
ATOM      8  N   UNL     1      -1.628  -0.582   1.571  0.00  0.00    -0.212 NA
ATOM      9  N   UNL     1      -0.398  -0.879   2.098  0.00  0.00    -0.200 N 
ATOM     10  N   UNL     1       0.615  -0.535   1.245  0.00  0.00    -0.221 NA
ATOM     11  H   UNL     1      -1.952   0.317   1.894  0.00  0.00    +0.147 HD
ATOM     12  H   UNL     1       1.206  -1.328   1.046  0.00  0.00    +0.146 HD
BRANCH   9  13
ATOM     13  C   UNL     1      -0.202  -1.461   3.353  0.00  0.00    +0.062 A 
ATOM     14  C   UNL     1       1.086  -1.720   3.806  0.00  0.00    +0.026 A 
ATOM     15  C   UNL     1       1.276  -2.296   5.047  0.00  0.00    +0.002 A 
ATOM     16  C   UNL     1       0.187  -2.615   5.838  0.00  0.00    +0.000 A 
ATOM     17  C   UNL     1      -1.096  -2.359   5.389  0.00  0.00    +0.002 A 
ATOM     18  C   UNL     1      -1.293  -1.778   4.151  0.00  0.00    +0.026 A 
ENDBRANCH   9  13
ENDBRANCH   1   7
BRANCH   3  19
ATOM     19  C   UNL     1      -3.534   1.169  -2.588  0.00  0.00    +0.108 C 
BRANCH  19  20
ATOM     20  C   UNL     1      -3.485   0.936  -4.099  0.00  0.00    +0.052 C 
BRANCH  20  21
ATOM     21  C   UNL     1      -4.481   1.840  -4.779  0.00  0.00    -0.040 C 
ATOM     22  C   UNL     1      -4.237   3.052  -5.327  0.00  0.00    +0.002 A 
ATOM     23  C   UNL     1      -3.020   3.862  -5.450  0.00  0.00    +0.055 A 
ATOM     24  C   UNL     1      -3.080   5.068  -6.065  0.00  0.00    +0.121 A 
ATOM     25  C   UNL     1      -4.277   5.580  -6.596  0.00  0.00    +0.047 A 
ATOM     26  C   UNL     1      -5.447   4.910  -6.531  0.00  0.00    +0.029 A 
ATOM     27  C   UNL     1      -5.497   3.593  -5.887  0.00  0.00    +0.043 A 
ATOM     28  N   UNL     1      -6.480   2.750  -5.693  0.00  0.00    -0.380 N 
ATOM     29  C   UNL     1      -5.954   1.572  -4.992  0.00  0.00    +0.144 C 
ATOM     30  H   UNL     1      -7.400   2.880  -5.970  0.00  0.00    +0.160 HD
BRANCH  24  31
ATOM     31  O   UNL     1      -1.945   5.808  -6.171  0.00  0.00    -0.495 OA
ATOM     32  C   UNL     1      -2.055   7.073  -6.827  0.00  0.00    +0.277 C 
ENDBRANCH  24  31
ENDBRANCH  20  21
ENDBRANCH  19  20
ENDBRANCH   3  19
TORSDOF 6
