REMARK  Name = ZINC09049640
REMARK  8 active torsions:
REMARK  status: ('A' for Active; 'I' for Inactive)
REMARK    1  A    between atoms: C_1  and  C_2
REMARK    2  A    between atoms: C_2  and  N_3
REMARK    3  A    between atoms: N_3  and  C_4
REMARK    4  A    between atoms: N_3  and  S_10
REMARK    5  A    between atoms: S_10  and  C_13
REMARK    6  A    between atoms: C_23  and  C_25
REMARK    7  A    between atoms: C_23  and  C_31
REMARK    8  A    between atoms: C_23  and  N_64
REMARK                            x       y       z     vdW  Elec       q    Type
REMARK                         _______ _______ _______ _____ _____    ______ ____
ROOT
ATOM      1  C   UNL     1      -7.822  -2.731   1.389  0.00  0.00    +0.125 A 
ATOM      2  C   UNL     1      -8.266  -1.415   1.359  0.00  0.00    +0.033 A 
ATOM      3  C   UNL     1      -7.346  -0.403   1.564  0.00  0.00    +0.043 A 
ATOM      4  C   UNL     1      -6.012  -0.735   1.780  0.00  0.00    +0.099 A 
ATOM      5  C   UNL     1      -6.485  -2.988   1.615  0.00  0.00    +0.113 A 
ATOM      6  N   UNL     1      -5.076   0.273   1.982  0.00  0.00    -0.320 N 
ATOM      7  C   UNL     1      -3.735  -0.290   2.197  0.00  0.00    +0.088 C 
ATOM      8  C   UNL     1      -2.751   0.844   2.493  0.00  0.00    -0.058 C 
ATOM      9  C   UNL     1      -4.088   2.355   1.155  0.00  0.00    -0.058 C 
ATOM     10  C   UNL     1      -5.072   1.221   0.859  0.00  0.00    +0.088 C 
ATOM     11  N   UNL     1      -5.552  -2.018   1.814  0.00  0.00    -0.348 N 
ATOM     12  H   UNL     1      -4.563  -2.239   1.980  0.00  0.00    +0.167 HD
ATOM     13  N   UNL     1      -2.741   1.778   1.347  0.00  0.00    +0.392 N 
ATOM     14  H   UNL     1      -2.474   1.263   0.499  0.00  0.00    -0.080 HD
ENDROOT
BRANCH   1  15
ATOM     15  S   UNL     1      -8.954  -4.058   1.140  0.00  0.00    +0.076 S 
ATOM     16  O   UNL     1     -10.049  -3.526   0.407  0.00  0.00    -0.150 OA
ATOM     17  O   UNL     1      -8.189  -5.162   0.674  0.00  0.00    -0.150 OA
BRANCH  15  18
ATOM     18  N   UNL     1      -9.542  -4.485   2.628  0.00  0.00    -0.203 N 
BRANCH  18  19
ATOM     19  C   UNL     1      -8.957  -5.538   3.335  0.00  0.00    +0.051 A 
ATOM     20  C   UNL     1      -8.394  -5.311   4.584  0.00  0.00    +0.025 A 
ATOM     21  C   UNL     1      -7.821  -6.356   5.282  0.00  0.00    +0.002 A 
ATOM     22  C   UNL     1      -7.798  -7.625   4.734  0.00  0.00    +0.000 A 
ATOM     23  C   UNL     1      -8.353  -7.854   3.488  0.00  0.00    +0.002 A 
ATOM     24  C   UNL     1      -8.933  -6.815   2.787  0.00  0.00    +0.025 A 
ENDBRANCH  18  19
BRANCH  18  26
ATOM     25  C   UNL     1     -11.975  -4.500   2.881  0.00  0.00    +0.026 C 
ATOM     26  C   UNL     1     -10.676  -3.757   3.203  0.00  0.00    +0.128 C 
ENDBRANCH  18  26
ENDBRANCH  15  18
ENDBRANCH   1  15
BRANCH  13  27
ATOM     27  C   UNL     1      -1.758   2.857   1.583  0.00  0.00    +0.050 C 
BRANCH  27  28
ATOM     28  C   UNL     1      -1.783   3.807   0.414  0.00  0.00    -0.052 A 
ATOM     29  C   UNL     1      -1.917   3.318  -0.872  0.00  0.00    +0.002 A 
ATOM     30  C   UNL     1      -1.944   4.190  -1.944  0.00  0.00    +0.000 A 
ATOM     31  C   UNL     1      -1.830   5.551  -1.731  0.00  0.00    +0.000 A 
ATOM     32  C   UNL     1      -1.691   6.040  -0.446  0.00  0.00    +0.000 A 
ATOM     33  C   UNL     1      -1.668   5.168   0.627  0.00  0.00    +0.002 A 
ENDBRANCH  27  28
BRANCH  27  34
ATOM     34  C   UNL     1      -0.385   2.249   1.706  0.00  0.00    +0.201 C 
ATOM     35  O   UNL     1      -0.244   1.047   1.625  0.00  0.00    -0.277 OA
ATOM     36  N   UNL     1       0.688   3.041   1.901  0.00  0.00    -0.330 N 
ATOM     37  H   UNL     1       1.573   2.650   1.977  0.00  0.00    +0.145 HD
ATOM     38  H   UNL     1       0.576   4.003   1.966  0.00  0.00    +0.145 HD
ENDBRANCH  27  34
ENDBRANCH  13  27
TORSDOF 7
