REMARK  Name = ZINC63478613
REMARK  6 active torsions:
REMARK  status: ('A' for Active; 'I' for Inactive)
REMARK    1  A    between atoms: C_1  and  N_2
REMARK    2  A    between atoms: C_9  and  N_28
REMARK    3  A    between atoms: C_10  and  C_14
REMARK    4  A    between atoms: N_16  and  C_17
REMARK    5  A    between atoms: C_17  and  C_18
REMARK    6  A    between atoms: C_18  and  C_19
REMARK                            x       y       z     vdW  Elec       q    Type
REMARK                         _______ _______ _______ _____ _____    ______ ____
ROOT
ATOM      1  C   UNL     1      -0.018   1.465   0.010  0.00  0.00    +0.105 C 
ATOM      2  N   UNL     1       0.002  -0.004   0.002  0.00  0.00    -0.301 NA
ATOM      3  C   UNL     1      -1.364  -0.550   0.034  0.00  0.00    +0.090 C 
ATOM      4  C   UNL     1      -1.304  -2.029  -0.348  0.00  0.00    +0.071 C 
ATOM      5  C   UNL     1      -0.259  -2.733   0.481  0.00  0.00    +0.048 A 
ATOM      6  C   UNL     1       0.718  -2.030   1.165  0.00  0.00    -0.011 A 
ATOM      7  C   UNL     1       1.662  -2.707   1.910  0.00  0.00    +0.019 A 
ATOM      8  C   UNL     1       1.618  -4.120   1.971  0.00  0.00    +0.029 A 
ATOM      9  C   UNL     1       2.500  -5.029   2.687  0.00  0.00    +0.053 A 
ATOM     10  C   UNL     1       2.256  -6.382   2.598  0.00  0.00    +0.097 A 
ATOM     11  S   UNL     1       0.824  -6.474   1.542  0.00  0.00    -0.062 S 
ATOM     12  C   UNL     1       0.580  -4.741   1.242  0.00  0.00    +0.111 A 
ATOM     13  N   UNL     1      -0.296  -4.054   0.544  0.00  0.00    -0.244 NA
ATOM     14  C   UNL     1       0.784  -0.525   1.127  0.00  0.00    +0.121 C 
ENDROOT
BRANCH  10  15
ATOM     15  C   UNL     1       2.973  -7.446   3.201  0.00  0.00    +0.253 C 
ATOM     16  O   UNL     1       3.940  -7.208   3.902  0.00  0.00    -0.270 OA
ATOM     17  N   UNL     1       2.584  -8.720   2.999  0.00  0.00    -0.311 N 
ATOM     18  H   UNL     1       1.814  -8.909   2.441  0.00  0.00    +0.149 HD
BRANCH  17  19
ATOM     19  C   UNL     1       3.325  -9.819   3.623  0.00  0.00    +0.109 C 
BRANCH  19  20
ATOM     20  C   UNL     1       2.681 -11.152   3.236  0.00  0.00    +0.052 C 
BRANCH  20  21
ATOM     21  C   UNL     1       3.443 -12.283   3.877  0.00  0.00    -0.040 C 
ATOM     22  C   UNL     1       3.152 -12.900   5.045  0.00  0.00    -0.001 A 
ATOM     23  C   UNL     1       2.081 -12.710   6.030  0.00  0.00    +0.010 A 
ATOM     24  C   UNL     1       2.052 -13.500   7.128  0.00  0.00    +0.001 A 
ATOM     25  C   UNL     1       3.017 -14.492   7.348  0.00  0.00    +0.002 A 
ATOM     26  C   UNL     1       4.031 -14.726   6.489  0.00  0.00    +0.026 A 
ATOM     27  C   UNL     1       4.159 -13.956   5.301  0.00  0.00    +0.043 A 
ATOM     28  N   UNL     1       5.038 -13.989   4.329  0.00  0.00    -0.380 N 
ATOM     29  C   UNL     1       4.685 -12.962   3.342  0.00  0.00    +0.144 C 
ATOM     30  H   UNL     1       5.794 -14.594   4.269  0.00  0.00    +0.160 HD
ENDBRANCH  20  21
ENDBRANCH  19  20
ENDBRANCH  17  19
ENDBRANCH  10  15
BRANCH   9  31
ATOM     31  N   UNL     1       3.561  -4.546   3.440  0.00  0.00    -0.356 N 
ATOM     32  H   UNL     1       3.722  -3.591   3.494  0.00  0.00    +0.142 HD
ATOM     33  H   UNL     1       4.141  -5.163   3.912  0.00  0.00    +0.142 HD
ENDBRANCH   9  31
TORSDOF 5
