REMARK  Name = ZINC43186580
REMARK  17 active torsions:
REMARK  status: ('A' for Active; 'I' for Inactive)
REMARK    1  A    between atoms: C_1  and  C_2
REMARK    2  A    between atoms: C_2  and  N_3
REMARK    3  A    between atoms: N_3  and  C_4
REMARK    4  A    between atoms: N_3  and  C_6
REMARK    5  A    between atoms: C_4  and  C_5
REMARK    6  A    between atoms: C_6  and  C_8
REMARK    7  A    between atoms: C_6  and  C_12
REMARK    8  A    between atoms: C_8  and  C_9
REMARK    9  A    between atoms: C_9  and  C_10
REMARK   10  A    between atoms: C_9  and  C_11
REMARK   11  A    between atoms: C_12  and  N_13
REMARK   12  A    between atoms: N_16  and  C_17
REMARK   13  A    between atoms: C_17  and  C_18
REMARK   14  A    between atoms: N_20  and  C_21
REMARK   15  A    between atoms: C_22  and  C_29
REMARK   16  A    between atoms: C_24  and  C_28
REMARK   17  A    between atoms: C_26  and  C_27
REMARK                            x       y       z     vdW  Elec       q    Type
REMARK                         _______ _______ _______ _____ _____    ______ ____
ROOT
ATOM      1  N   UNL     1      -5.037  -2.041   3.407  0.00  0.00    -0.301 N 
ATOM      2  C   UNL     1      -5.729  -2.881   2.611  0.00  0.00    +0.300 C 
ATOM      3  O   UNL     1      -6.777  -2.520   2.111  0.00  0.00    -0.253 OA
ATOM      4  N   UNL     1      -5.258  -4.120   2.370  0.00  0.00    -0.291 N 
ATOM      5  H   UNL     1      -4.201  -2.328   3.805  0.00  0.00    +0.150 HD
ATOM      6  H   UNL     1      -4.422  -4.408   2.768  0.00  0.00    +0.151 HD
ENDROOT
BRANCH   1   7
ATOM      7  C   UNL     1      -5.549  -0.693   3.669  0.00  0.00    +0.090 C 
BRANCH   7   8
ATOM      8  C   UNL     1      -4.519   0.094   4.482  0.00  0.00    -0.051 C 
BRANCH   8   9
ATOM      9  N   UNL     1      -3.211   0.022   3.816  0.00  0.00    +0.382 N 
ATOM     10  H   UNL     1      -3.182  -0.792   3.220  0.00  0.00    -0.081 HD
BRANCH   9  12
ATOM     11  C   UNL     1      -3.829   1.127   1.720  0.00  0.00    -0.017 C 
ATOM     12  C   UNL     1      -3.006   1.230   3.006  0.00  0.00    -0.082 C 
ENDBRANCH   9  12
BRANCH   9  13
ATOM     13  C   UNL     1      -2.151  -0.075   4.829  0.00  0.00    -0.082 C 
ATOM     14  C   UNL     1      -2.275  -1.407   5.572  0.00  0.00    -0.017 C 
ENDBRANCH   9  13
ENDBRANCH   8   9
BRANCH   8  15
ATOM     15  C   UNL     1      -4.959   1.556   4.584  0.00  0.00    -0.011 C 
BRANCH  15  16
ATOM     16  C   UNL     1      -4.045   2.296   5.563  0.00  0.00    -0.019 C 
ATOM     17  C   UNL     1      -4.441   3.773   5.612  0.00  0.00    +0.007 C 
ATOM     18  C   UNL     1      -4.188   1.683   6.957  0.00  0.00    +0.007 C 
ENDBRANCH  15  16
ENDBRANCH   8  15
ENDBRANCH   7   8
ENDBRANCH   1   7
BRANCH   4  19
ATOM     19  C   UNL     1      -6.010  -5.034   1.505  0.00  0.00    +0.202 C 
BRANCH  19  20
ATOM     20  C   UNL     1      -5.274  -6.345   1.399  0.00  0.00    +0.234 C 
ATOM     21  O   UNL     1      -4.225  -6.501   1.987  0.00  0.00    -0.274 OA
ATOM     22  N   UNL     1      -5.781  -7.343   0.650  0.00  0.00    -0.284 N 
ATOM     23  H   UNL     1      -6.587  -7.198   0.129  0.00  0.00    +0.155 HD
BRANCH  22  24
ATOM     24  C   UNL     1      -5.146  -8.590   0.623  0.00  0.00    +0.039 A 
ATOM     25  C   UNL     1      -5.865  -9.743   0.911  0.00  0.00    -0.029 A 
ATOM     26  C   UNL     1      -5.235 -10.972   0.884  0.00  0.00    +0.008 A 
ATOM     27  C   UNL     1      -3.891 -11.055   0.570  0.00  0.00    -0.050 A 
ATOM     28  C   UNL     1      -3.173  -9.909   0.284  0.00  0.00    +0.008 A 
ATOM     29  C   UNL     1      -3.798  -8.677   0.303  0.00  0.00    -0.029 A 
ATOM     30  C   UNL     1      -3.016  -7.429  -0.017  0.00  0.00    +0.045 C 
ATOM     31  C   UNL     1      -3.207 -12.398   0.542  0.00  0.00    +0.044 C 
ATOM     32  C   UNL     1      -7.330  -9.653   1.253  0.00  0.00    +0.045 C 
ENDBRANCH  22  24
ENDBRANCH  19  20
ENDBRANCH   4  19
TORSDOF 10
