REMARK  Name = ZINC63819132
REMARK  6 active torsions:
REMARK  status: ('A' for Active; 'I' for Inactive)
REMARK    1  A    between atoms: C_7  and  C_10
REMARK    2  A    between atoms: C_10  and  C_11
REMARK    3  A    between atoms: C_11  and  N_12
REMARK    4  A    between atoms: C_13  and  C_15
REMARK    5  A    between atoms: C_19  and  N_21
REMARK    6  A    between atoms: C_22  and  C_24
REMARK                            x       y       z     vdW  Elec       q    Type
REMARK                         _______ _______ _______ _____ _____    ______ ____
ROOT
ATOM      1  N   UNL     1      -0.766  -4.573  -1.488  0.00  0.00    -0.311 N 
ATOM      2  C   UNL     1      -1.117  -5.160  -2.649  0.00  0.00    +0.244 C 
ATOM      3  O   UNL     1      -0.803  -4.651  -3.707  0.00  0.00    -0.270 OA
ATOM      4  H   UNL     1      -1.017  -4.979  -0.644  0.00  0.00    +0.149 HD
ENDROOT
BRANCH   2   5
ATOM      5  C   UNL     1      -1.885  -6.424  -2.636  0.00  0.00    +0.038 A 
ATOM      6  C   UNL     1      -2.252  -7.008  -1.422  0.00  0.00    +0.013 A 
ATOM      7  C   UNL     1      -2.969  -8.187  -1.412  0.00  0.00    +0.003 A 
ATOM      8  C   UNL     1      -3.325  -8.794  -2.602  0.00  0.00    +0.023 A 
ATOM      9  C   UNL     1      -2.965  -8.221  -3.816  0.00  0.00    +0.034 A 
ATOM     10  C   UNL     1      -2.250  -7.033  -3.836  0.00  0.00    +0.036 A 
BRANCH   9  11
ATOM     11  N   UNL     1      -3.328  -8.840  -5.016  0.00  0.00    -0.281 N 
ATOM     12  C   UNL     1      -2.516  -8.757  -6.089  0.00  0.00    +0.255 C 
ATOM     13  O   UNL     1      -1.425  -8.226  -5.988  0.00  0.00    -0.269 OA
ATOM     14  H   UNL     1      -4.163  -9.329  -5.077  0.00  0.00    +0.155 HD
BRANCH  12  15
ATOM     15  C   UNL     1      -2.947  -9.304  -7.378  0.00  0.00    +0.074 A 
ATOM     16  C   UNL     1      -2.271  -9.327  -8.589  0.00  0.00    +0.021 A 
ATOM     17  C   UNL     1      -2.939  -9.916  -9.635  0.00  0.00    +0.008 A 
ATOM     18  C   UNL     1      -4.179 -10.423  -9.423  0.00  0.00    +0.046 A 
ATOM     19  S   UNL     1      -4.475 -10.123  -7.797  0.00  0.00    -0.092 S 
ENDBRANCH  12  15
ENDBRANCH   9  11
ENDBRANCH   2   5
BRANCH   1  20
ATOM     20  C   UNL     1      -0.005  -3.321  -1.501  0.00  0.00    +0.109 C 
BRANCH  20  21
ATOM     21  C   UNL     1       0.261  -2.871  -0.063  0.00  0.00    +0.052 C 
BRANCH  21  28
ATOM     22  C   UNL     1      -1.010   1.531   0.189  0.00  0.00    +0.001 A 
ATOM     23  C   UNL     1       0.065   2.430   0.139  0.00  0.00    +0.002 A 
ATOM     24  C   UNL     1       1.348   2.027   0.027  0.00  0.00    +0.026 A 
ATOM     25  C   UNL     1       1.663   0.642  -0.045  0.00  0.00    +0.043 A 
ATOM     26  N   UNL     1       2.807   0.011  -0.155  0.00  0.00    -0.380 N 
ATOM     27  C   UNL     1       2.544  -1.432  -0.186  0.00  0.00    +0.144 C 
ATOM     28  C   UNL     1       1.044  -1.583  -0.077  0.00  0.00    -0.040 C 
ATOM     29  C   UNL     1       0.546  -0.328   0.006  0.00  0.00    -0.001 A 
ATOM     30  C   UNL     1      -0.821   0.193   0.128  0.00  0.00    +0.010 A 
ATOM     31  H   UNL     1       3.681   0.429  -0.207  0.00  0.00    +0.160 HD
ENDBRANCH  21  28
ENDBRANCH  20  21
ENDBRANCH   1  20
TORSDOF 6
