REMARK  Name = ZINC21077934
REMARK  7 active torsions:
REMARK  status: ('A' for Active; 'I' for Inactive)
REMARK    1  A    between atoms: C_3  and  N_8
REMARK    2  A    between atoms: C_9  and  C_11
REMARK    3  A    between atoms: C_11  and  C_12
REMARK    4  A    between atoms: C_12  and  S_13
REMARK    5  A    between atoms: S_13  and  C_14
REMARK    6  A    between atoms: N_19  and  N_20
REMARK    7  A    between atoms: C_21  and  C_22
REMARK                            x       y       z     vdW  Elec       q    Type
REMARK                         _______ _______ _______ _____ _____    ______ ____
ROOT
ATOM      1  C   UNL     1       0.049   1.049  -2.809  0.00  0.00    +0.210 A 
ATOM      2  N   UNL     1      -0.220   1.238  -4.135  0.00  0.00    -0.186 NA
ATOM      3  C   UNL     1       0.733   0.575  -4.858  0.00  0.00    +0.232 A 
ATOM      4  N   UNL     1       1.555   0.001  -4.013  0.00  0.00    -0.245 N 
ATOM      5  N   UNL     1       1.125   0.305  -2.715  0.00  0.00    -0.144 NA
ATOM      6  N   UNL     1       0.815   0.520  -6.242  0.00  0.00    -0.205 N 
ATOM      7  H   UNL     1       0.069   1.042  -6.858  0.00  0.00    +0.177 HD
ATOM      8  H   UNL     1       2.401  -0.594  -4.388  0.00  0.00    +0.192 HD
ENDROOT
BRANCH   6   9
ATOM      9  N   UNL     1       1.849  -0.201  -6.854  0.00  0.00    -0.188 NA
ATOM     10  C   UNL     1       1.926  -0.252  -8.149  0.00  0.00    +0.138 C 
BRANCH  10  11
ATOM     11  C   UNL     1       3.015  -1.010  -8.793  0.00  0.00    -0.005 A 
ATOM     12  C   UNL     1       3.968  -1.669  -8.013  0.00  0.00    +0.011 A 
ATOM     13  C   UNL     1       4.980  -2.381  -8.621  0.00  0.00    +0.020 A 
ATOM     14  C   UNL     1       5.059  -2.434 -10.003  0.00  0.00    +0.041 A 
ATOM     15  C   UNL     1       4.121  -1.778 -10.783  0.00  0.00    +0.020 A 
ATOM     16  C   UNL     1       3.100  -1.068 -10.186  0.00  0.00    +0.011 A 
ATOM     17 CL   UNL     1       6.341  -3.326 -10.761  0.00  0.00    -0.084 Cl
ENDBRANCH  10  11
ENDBRANCH   6   9
BRANCH   1  18
ATOM     18  S   UNL     1      -0.883   1.698  -1.462  0.00  0.00    -0.084 S 
BRANCH  18  19
ATOM     19  C   UNL     1      -0.011   1.088   0.008  0.00  0.00    +0.086 C 
BRANCH  19  20
ATOM     20  C   UNL     1      -0.725   1.585   1.267  0.00  0.00    +0.107 C 
BRANCH  20  22
ATOM     21  N   UNL     1      -0.453   1.393   3.718  0.00  0.00    -0.285 N 
ATOM     22  C   UNL     1      -0.001   1.079   2.488  0.00  0.00    +0.218 C 
ATOM     23  O   UNL     1       0.988   0.389   2.363  0.00  0.00    -0.275 OA
ATOM     24  H   UNL     1      -1.304   2.080   3.832  0.00  0.00    +0.155 HD
BRANCH  21  27
ATOM     25  C   UNL     1       0.008  -0.017   7.083  0.00  0.00    +0.003 A 
ATOM     26  C   UNL     1      -0.599   0.529   5.968  0.00  0.00    +0.023 A 
ATOM     27  C   UNL     1       0.160   0.845   4.850  0.00  0.00    +0.034 A 
ATOM     28  C   UNL     1       1.531   0.621   4.859  0.00  0.00    +0.038 A 
ATOM     29  C   UNL     1       2.134   0.079   5.978  0.00  0.00    +0.020 A 
ATOM     30  C   UNL     1       1.373  -0.239   7.089  0.00  0.00    +0.015 A 
ATOM     31 BR   UNL     1       4.000  -0.227   5.991  0.00  0.00    -0.050 Br
ENDBRANCH  21  27
ENDBRANCH  20  22
ENDBRANCH  19  20
ENDBRANCH  18  19
ENDBRANCH   1  18
TORSDOF 7
