REMARK  Name = ZINC36495573
REMARK  15 active torsions:
REMARK  status: ('A' for Active; 'I' for Inactive)
REMARK    1  A    between atoms: C_1  and  C_2
REMARK    2  A    between atoms: C_2  and  C_3
REMARK    3  A    between atoms: C_2  and  C_4
REMARK    4  A    between atoms: C_2  and  N_5
REMARK    5  A    between atoms: C_6  and  C_8
REMARK    6  A    between atoms: C_8  and  C_10
REMARK    7  A    between atoms: C_8  and  N_19
REMARK    8  A    between atoms: C_11  and  O_18
REMARK    9  A    between atoms: C_13  and  O_17
REMARK   10  A    between atoms: C_15  and  O_16
REMARK   11  A    between atoms: N_19  and  C_20
REMARK   12  A    between atoms: C_20  and  C_21
REMARK   13  A    between atoms: C_26  and  C_28
REMARK   14  A    between atoms: C_28  and  C_29
REMARK   15  A    between atoms: C_29  and  C_30
REMARK                            x       y       z     vdW  Elec       q    Type
REMARK                         _______ _______ _______ _____ _____    ______ ____
ROOT
ATOM      1  C   UNL     1       2.664  -0.624  -2.709  0.00  0.00    +0.200 C 
ENDROOT
BRANCH   1   2
ATOM      2  C   UNL     1       2.290  -1.412  -3.938  0.00  0.00    +0.065 A 
ATOM      3  C   UNL     1       1.528  -2.564  -3.818  0.00  0.00    +0.129 A 
ATOM      4  C   UNL     1       1.184  -3.289  -4.949  0.00  0.00    +0.091 A 
ATOM      5  C   UNL     1       1.601  -2.861  -6.200  0.00  0.00    +0.124 A 
ATOM      6  C   UNL     1       2.363  -1.708  -6.321  0.00  0.00    +0.091 A 
ATOM      7  C   UNL     1       2.703  -0.981  -5.190  0.00  0.00    +0.129 A 
BRANCH   7   8
ATOM      8  O   UNL     1       3.445   0.151  -5.309  0.00  0.00    -0.506 OA
ATOM      9  H   UNL     1       4.399   0.003  -5.263  0.00  0.00    +0.292 HD
ENDBRANCH   7   8
BRANCH   5  10
ATOM     10  O   UNL     1       1.265  -3.572  -7.309  0.00  0.00    -0.507 OA
ATOM     11  H   UNL     1       0.429  -3.299  -7.712  0.00  0.00    +0.292 HD
ENDBRANCH   5  10
BRANCH   3  12
ATOM     12  O   UNL     1       1.120  -2.984  -2.592  0.00  0.00    -0.506 OA
ATOM     13  H   UNL     1       0.299  -2.571  -2.288  0.00  0.00    +0.292 HD
ENDBRANCH   3  12
ENDBRANCH   1   2
BRANCH   1  15
ATOM     14  N   UNL     1       0.691   0.760  -3.263  0.00  0.00    -0.309 N 
ATOM     15  C   UNL     1       1.913   0.682  -2.702  0.00  0.00    +0.239 C 
ATOM     16  O   UNL     1       2.410   1.664  -2.192  0.00  0.00    -0.273 OA
ATOM     17  H   UNL     1       0.294  -0.025  -3.671  0.00  0.00    +0.149 HD
BRANCH  14  19
ATOM     18  C   UNL     1       0.776   3.091  -3.999  0.00  0.00    +0.031 C 
ATOM     19  C   UNL     1      -0.040   2.030  -3.256  0.00  0.00    +0.026 C 
ATOM     20  C   UNL     1      -0.266   2.480  -1.812  0.00  0.00    +0.031 C 
ATOM     21  C   UNL     1      -1.390   1.846  -3.951  0.00  0.00    +0.031 C 
ENDBRANCH  14  19
ENDBRANCH   1  15
BRANCH   1  22
ATOM     22  N   UNL     1       4.105  -0.359  -2.719  0.00  0.00    -0.278 N 
ATOM     23  C   UNL     1       4.979  -1.382  -2.631  0.00  0.00    +0.217 C 
ATOM     24  O   UNL     1       4.572  -2.521  -2.544  0.00  0.00    -0.276 OA
BRANCH  22  25
ATOM     25  C   UNL     1       4.596   1.017  -2.823  0.00  0.00    +0.183 C 
BRANCH  25  26
ATOM     26  C   UNL     1       4.925   1.539  -1.448  0.00  0.00    +0.122 A 
ATOM     27  C   UNL     1       6.145   1.547  -0.881  0.00  0.00    +0.046 A 
ATOM     28  C   UNL     1       5.995   2.122   0.402  0.00  0.00    +0.041 A 
ATOM     29  C   UNL     1       4.694   2.430   0.542  0.00  0.00    +0.195 A 
ATOM     30  O   UNL     1       4.051   2.080  -0.584  0.00  0.00    -0.466 OA
ENDBRANCH  25  26
ENDBRANCH  22  25
BRANCH  23  31
ATOM     31  C   UNL     1       6.461  -1.109  -2.641  0.00  0.00    +0.096 C 
BRANCH  31  32
ATOM     32  C   UNL     1       7.223  -2.431  -2.530  0.00  0.00    +0.013 C 
BRANCH  32  33
ATOM     33  C   UNL     1       8.728  -2.155  -2.540  0.00  0.00    -0.011 C 
ATOM     34  C   UNL     1       9.130  -1.568  -3.895  0.00  0.00    +0.003 C 
ATOM     35  C   UNL     1      10.635  -1.291  -3.905  0.00  0.00    +0.000 C 
ATOM     36  C   UNL     1      11.395  -2.598  -3.669  0.00  0.00    +0.000 C 
ATOM     37  C   UNL     1      10.993  -3.185  -2.315  0.00  0.00    +0.000 C 
ATOM     38  C   UNL     1       9.488  -3.462  -2.305  0.00  0.00    +0.003 C 
ENDBRANCH  32  33
ENDBRANCH  31  32
ENDBRANCH  23  31
ENDBRANCH   1  22
TORSDOF 12
