REMARK  Name = ZINC06195779
REMARK  12 active torsions:
REMARK  status: ('A' for Active; 'I' for Inactive)
REMARK    1  A    between atoms: C_1  and  C_2
REMARK    2  A    between atoms: C_5  and  C_38
REMARK    3  A    between atoms: C_6  and  N_8
REMARK    4  A    between atoms: C_13  and  C_15
REMARK    5  A    between atoms: C_13  and  C_29
REMARK    6  A    between atoms: C_13  and  N_74
REMARK    7  A    between atoms: C_18  and  C_28
REMARK    8  A    between atoms: C_20  and  C_27
REMARK    9  A    between atoms: N_33  and  C_34
REMARK   10  A    between atoms: C_34  and  C_35
REMARK   11  A    between atoms: C_34  and  C_36
REMARK   12  A    between atoms: C_34  and  C_37
REMARK                            x       y       z     vdW  Elec       q    Type
REMARK                         _______ _______ _______ _____ _____    ______ ____
ROOT
ATOM      1  C   UNL     1       4.774   4.387   0.054  0.00  0.00    +0.039 C 
ENDROOT
BRANCH   1   2
ATOM      2  C   UNL     1       3.468   3.680  -0.204  0.00  0.00    +0.011 A 
ATOM      3  C   UNL     1       3.454   2.339  -0.405  0.00  0.00    +0.018 A 
ATOM      4  C   UNL     1       2.169   1.683  -0.652  0.00  0.00    +0.002 A 
ATOM      5  C   UNL     1       2.091   0.302  -0.867  0.00  0.00    -0.041 A 
ATOM      6  C   UNL     1       0.877  -0.280  -1.096  0.00  0.00    +0.007 A 
ATOM      7  C   UNL     1      -0.281   0.486  -1.117  0.00  0.00    -0.048 A 
ATOM      8  C   UNL     1      -0.228   1.847  -0.909  0.00  0.00    +0.029 A 
ATOM      9  C   UNL     1       0.997   2.462  -0.674  0.00  0.00    +0.050 A 
ATOM     10  N   UNL     1       1.079   3.822  -0.462  0.00  0.00    -0.322 N 
ATOM     11  H   UNL     1       0.271   4.358  -0.477  0.00  0.00    +0.169 HD
ATOM     12  C   UNL     1       2.264   4.416  -0.235  0.00  0.00    +0.251 A 
ATOM     13  O   UNL     1       2.299   5.621  -0.052  0.00  0.00    -0.268 OA
ATOM     14  C   UNL     1      -1.610  -0.179  -1.371  0.00  0.00    +0.044 C 
ATOM     15  C   UNL     1       3.341  -0.538  -0.845  0.00  0.00    +0.044 C 
ENDBRANCH   1   2
BRANCH   1  21
ATOM     16  N   UNL     1       6.228   6.852  -3.053  0.00  0.00    -0.333 N 
ATOM     17  C   UNL     1       6.309   7.360  -1.676  0.00  0.00    +0.086 C 
ATOM     18  C   UNL     1       6.208   6.188  -0.697  0.00  0.00    -0.058 C 
ATOM     19  C   UNL     1       4.862   4.967  -2.295  0.00  0.00    -0.058 C 
ATOM     20  C   UNL     1       4.962   6.139  -3.275  0.00  0.00    +0.086 C 
ATOM     21  N   UNL     1       4.922   5.493  -0.915  0.00  0.00    +0.391 N 
ATOM     22  H   UNL     1       4.154   6.161  -0.779  0.00  0.00    -0.080 HD
BRANCH  16  28
ATOM     23  C   UNL     1       4.589  11.033  -5.049  0.00  0.00    +0.044 C 
ATOM     24  C   UNL     1       5.609   9.927  -4.968  0.00  0.00    -0.049 A 
ATOM     25  C   UNL     1       6.707   9.936  -5.809  0.00  0.00    +0.004 A 
ATOM     26  C   UNL     1       7.645   8.923  -5.738  0.00  0.00    +0.005 A 
ATOM     27  C   UNL     1       7.492   7.901  -4.821  0.00  0.00    -0.029 A 
ATOM     28  C   UNL     1       6.388   7.886  -3.978  0.00  0.00    +0.033 A 
ATOM     29  C   UNL     1       5.447   8.906  -4.053  0.00  0.00    +0.026 A 
ATOM     30  C   UNL     1       8.518   6.801  -4.740  0.00  0.00    +0.045 C 
ENDBRANCH  16  28
ENDBRANCH   1  21
BRANCH   1  31
ATOM     31  C   UNL     1       4.769   4.957   1.449  0.00  0.00    +0.143 A 
ATOM     32  N   UNL     1       4.043   5.958   1.883  0.00  0.00    -0.115 NA
ATOM     33  N   UNL     1       4.321   6.141   3.128  0.00  0.00    -0.023 NA
ATOM     34  N   UNL     1       5.212   5.288   3.497  0.00  0.00    -0.043 NA
ATOM     35  N   UNL     1       5.514   4.540   2.490  0.00  0.00    -0.225 N 
BRANCH  35  36
ATOM     36  C   UNL     1       6.485   3.443   2.481  0.00  0.00    +0.059 C 
ATOM     37  C   UNL     1       7.618   3.772   1.508  0.00  0.00    +0.036 C 
ATOM     38  C   UNL     1       7.058   3.258   3.888  0.00  0.00    +0.036 C 
ATOM     39  C   UNL     1       5.792   2.152   2.040  0.00  0.00    +0.036 C 
ENDBRANCH  35  36
ENDBRANCH   1  31
TORSDOF 5
