REMARK  Name = ZINC21308858
REMARK  7 active torsions:
REMARK  status: ('A' for Active; 'I' for Inactive)
REMARK    1  A    between atoms: C_8  and  C_26
REMARK    2  A    between atoms: N_10  and  C_12
REMARK    3  A    between atoms: C_12  and  C_13
REMARK    4  A    between atoms: C_13  and  C_15
REMARK    5  A    between atoms: C_13  and  O_25
REMARK    6  A    between atoms: C_15  and  O_16
REMARK    7  A    between atoms: O_16  and  C_17
REMARK                            x       y       z     vdW  Elec       q    Type
REMARK                         _______ _______ _______ _____ _____    ______ ____
ROOT
ATOM      1  C   UNL     1      -0.054   7.120   2.426  0.00  0.00    +0.000 A 
ATOM      2  C   UNL     1      -0.830   7.808   1.512  0.00  0.00    +0.000 A 
ATOM      3  C   UNL     1      -1.584   7.112   0.589  0.00  0.00    +0.002 A 
ATOM      4  C   UNL     1      -1.569   5.725   0.573  0.00  0.00    -0.061 A 
ATOM      5  C   UNL     1      -0.797   5.040   1.487  0.00  0.00    -0.047 A 
ATOM      6  C   UNL     1      -0.038   5.740   2.412  0.00  0.00    +0.004 A 
ATOM      7  C   UNL     1      -0.749   3.533   1.511  0.00  0.00    +0.029 C 
ATOM      8  C   UNL     1      -1.297   2.973   0.199  0.00  0.00    +0.024 C 
ATOM      9  N   UNL     1      -2.596   3.607  -0.077  0.00  0.00    +0.392 N 
ATOM     10  C   UNL     1      -2.406   5.011  -0.455  0.00  0.00    -0.042 C 
ATOM     11  H   UNL     1      -3.203   3.576   0.840  0.00  0.00    -0.080 HD
ENDROOT
BRANCH   8  12
ATOM     12  C   UNL     1      -1.478   1.482   0.320  0.00  0.00    +0.197 C 
ATOM     13  O   UNL     1      -2.502   1.030   0.787  0.00  0.00    -0.278 OA
ATOM     14  N   UNL     1      -0.500   0.649  -0.090  0.00  0.00    -0.331 N 
ATOM     15  H   UNL     1      -0.632  -0.440  -0.001  0.00  0.00    +0.145 HD
ATOM     16  H   UNL     1       0.429   1.058  -0.513  0.00  0.00    +0.145 HD
ENDBRANCH   8  12
BRANCH   9  17
ATOM     17  C   UNL     1      -3.329   2.876  -1.120  0.00  0.00    -0.042 C 
BRANCH  17  18
ATOM     18  C   UNL     1      -4.619   3.625  -1.458  0.00  0.00    +0.135 C 
BRANCH  18  19
ATOM     19  O   UNL     1      -5.432   3.726  -0.287  0.00  0.00    -0.390 OA
ATOM     20  H   UNL     1      -6.405   4.236  -0.336  0.00  0.00    +0.210 HD
ENDBRANCH  18  19
BRANCH  18  21
ATOM     21  C   UNL     1      -5.381   2.863  -2.544  0.00  0.00    +0.258 C 
BRANCH  21  22
ATOM     22  O   UNL     1      -6.526   3.620  -2.943  0.00  0.00    -0.487 OA
BRANCH  22  23
ATOM     23  C   UNL     1      -7.317   3.081  -3.908  0.00  0.00    +0.157 A 
ATOM     24  C   UNL     1      -7.069   3.357  -5.245  0.00  0.00    +0.084 A 
ATOM     25  C   UNL     1      -7.873   2.802  -6.224  0.00  0.00    +0.024 A 
ATOM     26  C   UNL     1      -8.929   1.982  -5.872  0.00  0.00    +0.003 A 
ATOM     27  C   UNL     1      -9.182   1.710  -4.540  0.00  0.00    +0.024 A 
ATOM     28  C   UNL     1      -8.378   2.258  -3.556  0.00  0.00    +0.084 A 
ATOM     29 CL   UNL     1      -8.697   1.916  -1.884  0.00  0.00    -0.080 Cl
ATOM     30 CL   UNL     1      -5.748   4.392  -5.688  0.00  0.00    -0.080 Cl
ENDBRANCH  22  23
ENDBRANCH  21  22
ENDBRANCH  18  21
ENDBRANCH  17  18
ENDBRANCH   9  17
TORSDOF 7
