REMARK  Name = ZINC58356037
REMARK  8 active torsions:
REMARK  status: ('A' for Active; 'I' for Inactive)
REMARK    1  A    between atoms: C_1  and  N_2
REMARK    2  A    between atoms: N_2  and  C_3
REMARK    3  A    between atoms: N_2  and  C_16
REMARK    4  A    between atoms: C_3  and  C_4
REMARK    5  A    between atoms: C_4  and  O_5
REMARK    6  A    between atoms: O_5  and  C_6
REMARK    7  A    between atoms: C_9  and  S_12
REMARK    8  A    between atoms: S_12  and  N_15
REMARK                            x       y       z     vdW  Elec       q    Type
REMARK                         _______ _______ _______ _____ _____    ______ ____
ROOT
ATOM      1  C   UNL     1      -1.974  -0.018   1.449  0.00  0.00    +0.210 C 
ENDROOT
BRANCH   1   2
ATOM      2  C   UNL     1      -1.370  -0.513   0.133  0.00  0.00    -0.037 C 
BRANCH   2   4
ATOM      3  C   UNL     1      -0.102   1.496  -0.198  0.00  0.00    -0.096 C 
ATOM      4  N   UNL     1      -0.018   0.040  -0.024  0.00  0.00    +0.382 N 
ATOM      5  H   UNL     1       0.529  -0.170   0.798  0.00  0.00    -0.082 HD
BRANCH   4   6
ATOM      6  C   UNL     1       0.622  -0.558  -1.203  0.00  0.00    -0.060 C 
ATOM      7  C   UNL     1       0.885  -2.062  -0.981  0.00  0.00    +0.020 C 
ATOM      8  C   UNL     1       2.193  -2.345  -1.689  0.00  0.00    -0.046 A 
ATOM      9  C   UNL     1       2.754  -3.545  -2.093  0.00  0.00    +0.004 A 
ATOM     10  C   UNL     1       3.978  -3.560  -2.733  0.00  0.00    +0.000 A 
ATOM     11  C   UNL     1       4.645  -2.373  -2.973  0.00  0.00    +0.000 A 
ATOM     12  C   UNL     1       4.087  -1.175  -2.571  0.00  0.00    +0.004 A 
ATOM     13  C   UNL     1       2.860  -1.159  -1.929  0.00  0.00    -0.046 A 
ATOM     14  C   UNL     1       2.047   0.002  -1.397  0.00  0.00    +0.020 C 
ENDBRANCH   4   6
ENDBRANCH   2   4
ENDBRANCH   1   2
BRANCH   1  15
ATOM     15  O   UNL     1      -2.208   1.389   1.366  0.00  0.00    -0.494 OA
BRANCH  15  16
ATOM     16  C   UNL     1      -2.747   1.990   2.460  0.00  0.00    +0.121 A 
ATOM     17  C   UNL     1      -3.037   1.242   3.591  0.00  0.00    +0.047 A 
ATOM     18  C   UNL     1      -3.583   1.855   4.702  0.00  0.00    +0.032 A 
ATOM     19  C   UNL     1      -3.841   3.214   4.686  0.00  0.00    +0.105 A 
ATOM     20  C   UNL     1      -3.553   3.961   3.559  0.00  0.00    +0.032 A 
ATOM     21  C   UNL     1      -3.001   3.354   2.448  0.00  0.00    +0.047 A 
BRANCH  19  22
ATOM     22  S   UNL     1      -4.539   3.993   6.104  0.00  0.00    +0.056 S 
ATOM     23  O   UNL     1      -5.189   5.169   5.642  0.00  0.00    -0.153 OA
ATOM     24  O   UNL     1      -5.221   2.980   6.830  0.00  0.00    -0.153 OA
BRANCH  22  25
ATOM     25  N   UNL     1      -3.280   4.492   7.057  0.00  0.00    -0.204 NA
ATOM     26  H   UNL     1      -2.366   4.327   6.779  0.00  0.00    +0.144 HD
ATOM     27  H   UNL     1      -3.457   4.949   7.895  0.00  0.00    +0.144 HD
ENDBRANCH  22  25
ENDBRANCH  19  22
ENDBRANCH  15  16
ENDBRANCH   1  15
TORSDOF 7
