REMARK  Name = ZINC25532725
REMARK  13 active torsions:
REMARK  status: ('A' for Active; 'I' for Inactive)
REMARK    1  A    between atoms: C_1  and  C_2
REMARK    2  A    between atoms: C_2  and  C_3
REMARK    3  A    between atoms: C_3  and  C_4
REMARK    4  A    between atoms: C_4  and  N_5
REMARK    5  A    between atoms: C_6  and  N_36
REMARK    6  A    between atoms: C_7  and  N_14
REMARK    7  A    between atoms: N_14  and  C_15
REMARK    8  A    between atoms: C_20  and  C_22
REMARK    9  A    between atoms: C_22  and  N_23
REMARK   10  A    between atoms: N_23  and  C_24
REMARK   11  A    between atoms: N_23  and  C_25
REMARK   12  A    between atoms: C_25  and  C_26
REMARK   13  A    between atoms: C_31  and  C_32
REMARK                            x       y       z     vdW  Elec       q    Type
REMARK                         _______ _______ _______ _____ _____    ______ ____
ROOT
ATOM      1  N   UNL     1      -5.830   1.625  -2.717  0.00  0.00    -0.263 N 
ATOM      2  C   UNL     1      -4.502   1.436  -2.565  0.00  0.00    +0.204 C 
ATOM      3  O   UNL     1      -3.989   1.588  -1.476  0.00  0.00    -0.277 OA
ENDROOT
BRANCH   1   6
ATOM      4  N   UNL     1      -7.146  -0.191  -5.628  0.00  0.00    -0.280 N 
ATOM      5  C   UNL     1      -6.540   0.049  -4.416  0.00  0.00    +0.127 A 
ATOM      6  C   UNL     1      -6.444   1.346  -3.956  0.00  0.00    +0.140 A 
ATOM      7  C   UNL     1      -6.974   2.387  -4.742  0.00  0.00    +0.277 A 
ATOM      8  O   UNL     1      -6.907   3.542  -4.358  0.00  0.00    -0.266 OA
ATOM      9  N   UNL     1      -7.553   2.098  -5.925  0.00  0.00    -0.273 N 
ATOM     10  H   UNL     1      -7.962   2.906  -6.548  0.00  0.00    +0.173 HD
ATOM     11  C   UNL     1      -7.638   0.827  -6.356  0.00  0.00    +0.331 A 
ATOM     12  O   UNL     1      -8.168   0.594  -7.425  0.00  0.00    -0.246 OA
BRANCH   5  13
ATOM     13  N   UNL     1      -6.038  -0.992  -3.672  0.00  0.00    -0.343 N 
ATOM     14  H   UNL     1      -5.556  -0.792  -2.703  0.00  0.00    +0.144 HD
ATOM     15  H   UNL     1      -6.119  -2.023  -4.044  0.00  0.00    +0.144 HD
ENDBRANCH   5  13
BRANCH   4  16
ATOM     16  C   UNL     1      -7.254  -1.564  -6.128  0.00  0.00    +0.128 C 
BRANCH  16  17
ATOM     17  C   UNL     1      -8.565  -2.183  -5.639  0.00  0.00    +0.021 C 
BRANCH  17  19
ATOM     18  C   UNL     1      -9.990  -4.235  -5.672  0.00  0.00    +0.004 C 
ATOM     19  C   UNL     1      -8.679  -3.616  -6.161  0.00  0.00    -0.002 C 
ENDBRANCH  17  19
ENDBRANCH  16  17
ENDBRANCH   4  16
ENDBRANCH   1   6
BRANCH   1  20
ATOM     20  C   UNL     1      -6.633   2.119  -1.596  0.00  0.00    +0.082 C 
ATOM     21  C   UNL     1      -6.118   3.502  -1.146  0.00  0.00    +0.023 C 
ATOM     22  C   UNL     1      -6.268   3.479   0.396  0.00  0.00    +0.002 C 
ATOM     23  C   UNL     1      -5.884   2.023   0.756  0.00  0.00    +0.002 C 
ATOM     24  C   UNL     1      -6.484   1.179  -0.387  0.00  0.00    +0.023 C 
ENDBRANCH   1  20
BRANCH   2  25
ATOM     25  C   UNL     1      -3.657   1.037  -3.747  0.00  0.00    +0.019 C 
BRANCH  25  26
ATOM     26  N   UNL     1      -2.286   0.760  -3.298  0.00  0.00    +0.386 N 
ATOM     27  C   UNL     1      -2.247  -0.422  -2.426  0.00  0.00    -0.095 C 
ATOM     28  H   UNL     1      -1.941   1.624  -2.712  0.00  0.00    -0.081 HD
BRANCH  26  29
ATOM     29  C   UNL     1      -1.380   0.599  -4.443  0.00  0.00    -0.042 C 
BRANCH  29  30
ATOM     30  C   UNL     1       0.038   0.475  -3.947  0.00  0.00    -0.052 A 
ATOM     31  C   UNL     1       0.640  -0.768  -3.879  0.00  0.00    +0.002 A 
ATOM     32  C   UNL     1       1.940  -0.882  -3.425  0.00  0.00    +0.000 A 
ATOM     33  C   UNL     1       2.639   0.247  -3.038  0.00  0.00    +0.001 A 
ATOM     34  C   UNL     1       2.038   1.490  -3.109  0.00  0.00    +0.012 A 
ATOM     35  C   UNL     1       0.736   1.603  -3.559  0.00  0.00    +0.056 A 
BRANCH  35  36
ATOM     36  C   UNL     1       0.080   2.958  -3.633  0.00  0.00    +0.418 C 
ATOM     37  F   UNL     1       0.961   3.930  -3.146  0.00  0.00    -0.166 F 
ATOM     38  F   UNL     1      -0.245   3.247  -4.963  0.00  0.00    -0.166 F 
ATOM     39  F   UNL     1      -1.085   2.954  -2.858  0.00  0.00    -0.166 F 
ENDBRANCH  35  36
ENDBRANCH  29  30
ENDBRANCH  26  29
ENDBRANCH  25  26
ENDBRANCH   2  25
TORSDOF 11
