REMARK  Name = ZINC43287476
REMARK  10 active torsions:
REMARK  status: ('A' for Active; 'I' for Inactive)
REMARK    1  A    between atoms: C_1  and  C_2
REMARK    2  A    between atoms: C_2  and  C_3
REMARK    3  A    between atoms: C_3  and  C_5
REMARK    4  A    between atoms: C_3  and  N_22
REMARK    5  A    between atoms: C_5  and  C_7
REMARK    6  A    between atoms: C_5  and  N_13
REMARK    7  A    between atoms: N_13  and  C_14
REMARK    8  A    between atoms: N_13  and  C_17
REMARK    9  A    between atoms: C_14  and  C_15
REMARK   10  A    between atoms: C_15  and  O_16
REMARK                            x       y       z     vdW  Elec       q    Type
REMARK                         _______ _______ _______ _____ _____    ______ ____
ROOT
ATOM      1  C   UNL     1       1.059  -2.414  -1.044  0.00  0.00    +0.079 C 
ENDROOT
BRANCH   1   2
ATOM      2  C   UNL     1       1.114  -1.109  -1.796  0.00  0.00    +0.006 A 
ATOM      3  C   UNL     1       0.092  -0.345  -2.254  0.00  0.00    +0.028 A 
ATOM      4  C   UNL     1       0.381   0.828  -2.927  0.00  0.00    +0.025 A 
ATOM      5  C   UNL     1       1.679   1.178  -3.108  0.00  0.00    +0.060 A 
ATOM      6  S   UNL     1       2.540  -0.166  -2.309  0.00  0.00    -0.099 S 
ATOM      7 BR   UNL     1      -1.011   1.926  -3.584  0.00  0.00    -0.050 Br
ENDBRANCH   1   2
BRANCH   1   8
ATOM      8  C   UNL     1       1.675  -3.522  -1.900  0.00  0.00    -0.053 C 
BRANCH   8   9
ATOM      9  N   UNL     1       1.007  -3.560  -3.208  0.00  0.00    +0.381 N 
ATOM     10  H   UNL     1       1.125  -2.672  -3.671  0.00  0.00    -0.090 HD
ATOM     11  H   UNL     1       1.413  -4.291  -3.772  0.00  0.00    -0.090 HD
ATOM     12  H   UNL     1       0.023  -3.743  -3.077  0.00  0.00    -0.090 HD
ENDBRANCH   8   9
BRANCH   8  14
ATOM     13  C   UNL     1       3.795  -4.383  -2.904  0.00  0.00    +0.002 C 
ATOM     14  C   UNL     1       3.167  -3.245  -2.098  0.00  0.00    -0.018 C 
ENDBRANCH   8  14
ENDBRANCH   1   8
BRANCH   1  15
ATOM     15  N   UNL     1       1.814  -2.288   0.210  0.00  0.00    -0.291 NA
BRANCH  15  16
ATOM     16  C   UNL     1       0.937  -1.867   1.312  0.00  0.00    +0.057 C 
ATOM     17  C   UNL     1      -0.195  -2.896   1.508  0.00  0.00    +0.019 C 
ATOM     18  C   UNL     1      -1.431  -2.035   1.870  0.00  0.00    +0.002 C 
ATOM     19  C   UNL     1      -1.260  -0.792   0.963  0.00  0.00    +0.002 C 
ATOM     20  C   UNL     1       0.261  -0.529   0.965  0.00  0.00    +0.019 C 
ENDBRANCH  15  16
BRANCH  15  21
ATOM     21  C   UNL     1       2.944  -1.362   0.054  0.00  0.00    +0.113 C 
BRANCH  21  22
ATOM     22  C   UNL     1       3.912  -1.537   1.225  0.00  0.00    +0.171 C 
BRANCH  22  23
ATOM     23  O   UNL     1       4.448  -2.862   1.206  0.00  0.00    -0.394 OA
ATOM     24  H   UNL     1       5.071  -3.045   1.923  0.00  0.00    +0.209 HD
ENDBRANCH  22  23
ENDBRANCH  21  22
ENDBRANCH  15  21
ENDBRANCH   1  15
TORSDOF 9
