REMARK  Name = ZINC43289695
REMARK  9 active torsions:
REMARK  status: ('A' for Active; 'I' for Inactive)
REMARK    1  A    between atoms: C_1  and  C_2
REMARK    2  A    between atoms: C_2  and  C_3
REMARK    3  A    between atoms: C_3  and  C_5
REMARK    4  A    between atoms: C_3  and  N_21
REMARK    5  A    between atoms: C_5  and  C_7
REMARK    6  A    between atoms: C_5  and  O_13
REMARK    7  A    between atoms: O_13  and  C_14
REMARK    8  A    between atoms: C_14  and  C_15
REMARK    9  A    between atoms: C_15  and  C_16
REMARK                            x       y       z     vdW  Elec       q    Type
REMARK                         _______ _______ _______ _____ _____    ______ ____
ROOT
ATOM      1  C   UNL     1       0.734  -2.123   1.274  0.00  0.00    +0.141 C 
ENDROOT
BRANCH   1   2
ATOM      2  C   UNL     1       1.491  -2.871   2.341  0.00  0.00    +0.018 A 
ATOM      3  C   UNL     1       2.782  -3.285   2.341  0.00  0.00    +0.029 A 
ATOM      4  C   UNL     1       3.269  -3.964   3.443  0.00  0.00    +0.025 A 
ATOM      5  C   UNL     1       2.440  -4.194   4.491  0.00  0.00    +0.060 A 
ATOM      6  S   UNL     1       0.922  -3.435   3.937  0.00  0.00    -0.098 S 
ATOM      7 BR   UNL     1       5.062  -4.561   3.487  0.00  0.00    -0.050 Br
ENDBRANCH   1   2
BRANCH   1   8
ATOM      8  C   UNL     1       0.782  -0.623   1.572  0.00  0.00    -0.041 C 
BRANCH   8   9
ATOM      9  N   UNL     1       0.157   0.116   0.466  0.00  0.00    +0.382 N 
ATOM     10  H   UNL     1       0.282   1.106   0.611  0.00  0.00    -0.090 HD
ATOM     11  H   UNL     1       0.588  -0.155  -0.405  0.00  0.00    -0.090 HD
ATOM     12  H   UNL     1      -0.829  -0.098   0.434  0.00  0.00    -0.090 HD
ENDBRANCH   8   9
BRANCH   8  14
ATOM     13  C   UNL     1       0.163   1.145   3.225  0.00  0.00    +0.002 C 
ATOM     14  C   UNL     1       0.024  -0.336   2.869  0.00  0.00    -0.017 C 
ENDBRANCH   8  14
ENDBRANCH   1   8
BRANCH   1  15
ATOM     15  O   UNL     1      -0.626  -2.562   1.258  0.00  0.00    -0.367 OA
BRANCH  15  16
ATOM     16  C   UNL     1      -1.181  -2.685  -0.053  0.00  0.00    +0.242 C 
BRANCH  16  17
ATOM     17  C   UNL     1      -2.653  -3.090   0.053  0.00  0.00    +0.330 C 
ATOM     18  F   UNL     1      -3.197  -3.210  -1.230  0.00  0.00    -0.197 F 
ATOM     19  F   UNL     1      -2.752  -4.317   0.718  0.00  0.00    -0.197 F 
BRANCH  17  20
ATOM     20  C   UNL     1      -3.421  -2.022   0.835  0.00  0.00    +0.412 C 
ATOM     21  F   UNL     1      -3.322  -0.796   0.169  0.00  0.00    -0.203 F 
ATOM     22  F   UNL     1      -4.767  -2.393   0.931  0.00  0.00    -0.203 F 
ENDBRANCH  17  20
ENDBRANCH  16  17
ENDBRANCH  15  16
ENDBRANCH   1  15
TORSDOF 8
