REMARK  Name = ZINC39757218
REMARK  12 active torsions:
REMARK  status: ('A' for Active; 'I' for Inactive)
REMARK    1  A    between atoms: C_1  and  C_2
REMARK    2  A    between atoms: C_5  and  N_9
REMARK    3  A    between atoms: C_10  and  C_12
REMARK    4  A    between atoms: C_12  and  C_13
REMARK    5  A    between atoms: C_13  and  C_14
REMARK    6  A    between atoms: C_17  and  S_22
REMARK    7  A    between atoms: N_18  and  C_19
REMARK    8  A    between atoms: C_19  and  C_20
REMARK    9  A    between atoms: S_22  and  C_23
REMARK   10  A    between atoms: C_23  and  C_24
REMARK   11  A    between atoms: N_26  and  C_27
REMARK   12  A    between atoms: C_32  and  O_33
REMARK                            x       y       z     vdW  Elec       q    Type
REMARK                         _______ _______ _______ _____ _____    ______ ____
ROOT
ATOM      1  C   UNL     1       0.526  -8.382   2.765  0.00  0.00    +0.135 A 
ATOM      2  N   UNL     1      -0.447  -9.247   2.718  0.00  0.00    -0.133 NA
ATOM      3  N   UNL     1       0.027 -10.441   2.667  0.00  0.00    -0.122 NA
ATOM      4  C   UNL     1       1.339 -10.401   2.677  0.00  0.00    +0.192 A 
ATOM      5  N   UNL     1       1.699  -9.085   2.735  0.00  0.00    -0.302 N 
ENDROOT
BRANCH   1   6
ATOM      6  C   UNL     1       0.386  -6.883   2.833  0.00  0.00    +0.085 C 
BRANCH   6   7
ATOM      7  C   UNL     1       0.341  -6.310   1.414  0.00  0.00    +0.104 C 
BRANCH   7   9
ATOM      8  N   UNL     1       0.139  -4.088   0.346  0.00  0.00    -0.285 N 
ATOM      9  C   UNL     1       0.200  -4.811   1.482  0.00  0.00    +0.218 C 
ATOM     10  O   UNL     1       0.142  -4.256   2.558  0.00  0.00    -0.275 OA
ATOM     11  H   UNL     1       0.108  -4.537  -0.513  0.00  0.00    +0.155 HD
BRANCH   8  16
ATOM     12  C   UNL     1       0.066   1.580   0.593  0.00  0.00    +0.045 C 
ATOM     13  C   UNL     1       0.085   0.074   0.527  0.00  0.00    -0.032 A 
ATOM     14  C   UNL     1       0.801  -0.648   1.464  0.00  0.00    +0.006 A 
ATOM     15  C   UNL     1       0.821  -2.028   1.407  0.00  0.00    +0.023 A 
ATOM     16  C   UNL     1       0.120  -2.691   0.407  0.00  0.00    +0.035 A 
ATOM     17  C   UNL     1      -0.597  -1.963  -0.533  0.00  0.00    +0.043 A 
ATOM     18  C   UNL     1      -0.618  -0.582  -0.467  0.00  0.00    +0.046 A 
ATOM     19 CL   UNL     1      -1.520   0.328  -1.638  0.00  0.00    -0.083 Cl
ENDBRANCH   8  16
ENDBRANCH   7   9
ENDBRANCH   6   7
ENDBRANCH   1   6
BRANCH   5  20
ATOM     20  C   UNL     1       3.058  -8.540   2.763  0.00  0.00    +0.152 C 
BRANCH  20  21
ATOM     21  C   UNL     1       3.521  -8.418   4.192  0.00  0.00    -0.013 C 
ATOM     22  C   UNL     1       4.639  -8.989   4.569  0.00  0.00    +0.005 C 
ENDBRANCH  20  21
ENDBRANCH   5  20
BRANCH   4  23
ATOM     23  S   UNL     1       2.430 -11.784   2.621  0.00  0.00    -0.077 S 
BRANCH  23  24
ATOM     24  C   UNL     1       1.319 -13.216   2.546  0.00  0.00    +0.173 C 
BRANCH  24  25
ATOM     25  C   UNL     1       2.135 -14.482   2.493  0.00  0.00    +0.228 C 
ATOM     26  O   UNL     1       3.346 -14.424   2.505  0.00  0.00    -0.275 OA
ATOM     27  N   UNL     1       1.518 -15.679   2.433  0.00  0.00    -0.282 N 
ATOM     28  H   UNL     1       0.553 -15.723   2.346  0.00  0.00    +0.155 HD
BRANCH  27  29
ATOM     29  C   UNL     1       2.271 -16.859   2.497  0.00  0.00    +0.075 A 
ATOM     30  C   UNL     1       3.544 -16.843   3.047  0.00  0.00    +0.027 A 
ATOM     31  C   UNL     1       4.285 -18.008   3.109  0.00  0.00    +0.002 A 
ATOM     32  C   UNL     1       3.760 -19.191   2.622  0.00  0.00    +0.004 A 
ATOM     33  C   UNL     1       2.492 -19.215   2.072  0.00  0.00    +0.047 A 
ATOM     34  C   UNL     1       1.741 -18.052   2.012  0.00  0.00    +0.138 A 
BRANCH  34  35
ATOM     35  O   UNL     1       0.491 -18.075   1.476  0.00  0.00    -0.505 OA
ATOM     36  H   UNL     1       0.469 -17.909   0.524  0.00  0.00    +0.292 HD
ENDBRANCH  34  35
ENDBRANCH  27  29
ENDBRANCH  24  25
ENDBRANCH  23  24
ENDBRANCH   4  23
TORSDOF 11
