REMARK  Name = ZINC43376693
REMARK  7 active torsions:
REMARK  status: ('A' for Active; 'I' for Inactive)
REMARK    1  A    between atoms: C_1  and  C_2
REMARK    2  A    between atoms: C_6  and  N_8
REMARK    3  A    between atoms: N_11  and  C_14
REMARK    4  A    between atoms: C_14  and  C_16
REMARK    5  A    between atoms: C_14  and  C_20
REMARK    6  A    between atoms: C_16  and  C_18
REMARK    7  A    between atoms: C_16  and  N_19
REMARK                            x       y       z     vdW  Elec       q    Type
REMARK                         _______ _______ _______ _____ _____    ______ ____
ROOT
ATOM      1  N   UNL     1       0.100  -3.720   1.990  0.00  0.00    -0.327 N 
ATOM      2  C   UNL     1       0.002  -2.791   3.125  0.00  0.00    +0.120 C 
ATOM      3  C   UNL     1       1.125  -3.112   4.116  0.00  0.00    +0.104 C 
ATOM      4  N   UNL     1       1.067  -4.536   4.473  0.00  0.00    -0.290 NA
ATOM      5  C   UNL     1       1.301  -5.389   3.300  0.00  0.00    +0.104 C 
ATOM      6  C   UNL     1       0.178  -5.161   2.275  0.00  0.00    +0.120 C 
ENDROOT
BRANCH   1  12
ATOM      7  C   UNL     1       0.569  -4.611  -2.821  0.00  0.00    +0.044 C 
ATOM      8  C   UNL     1       0.338  -3.658  -1.677  0.00  0.00    -0.049 A 
ATOM      9  C   UNL     1       0.138  -2.313  -1.929  0.00  0.00    +0.003 A 
ATOM     10  C   UNL     1      -0.074  -1.434  -0.882  0.00  0.00    +0.002 A 
ATOM     11  C   UNL     1      -0.087  -1.898   0.419  0.00  0.00    +0.023 A 
ATOM     12  C   UNL     1       0.113  -3.248   0.675  0.00  0.00    +0.030 A 
ATOM     13  C   UNL     1       0.321  -4.129  -0.379  0.00  0.00    +0.026 A 
ENDBRANCH   1  12
BRANCH   4  14
ATOM     14  C   UNL     1       2.016  -4.849   5.549  0.00  0.00    +0.146 C 
BRANCH  14  15
ATOM     15  C   UNL     1       3.383  -4.251   5.213  0.00  0.00    +0.404 C 
ATOM     16  F   UNL     1       3.295  -2.855   5.215  0.00  0.00    -0.169 F 
ATOM     17  F   UNL     1       4.319  -4.660   6.169  0.00  0.00    -0.169 F 
ATOM     18  F   UNL     1       3.787  -4.691   3.948  0.00  0.00    -0.169 F 
ENDBRANCH  14  15
BRANCH  14  19
ATOM     19  C   UNL     1       1.509  -4.255   6.865  0.00  0.00    -0.052 C 
ATOM     20  C   UNL     1       2.413  -4.711   8.012  0.00  0.00    -0.012 C 
BRANCH  19  21
ATOM     21  N   UNL     1       0.135  -4.713   7.112  0.00  0.00    +0.381 N 
ATOM     22  H   UNL     1      -0.227  -4.260   7.937  0.00  0.00    -0.090 HD
ATOM     23  H   UNL     1      -0.444  -4.481   6.319  0.00  0.00    -0.090 HD
ATOM     24  H   UNL     1       0.133  -5.713   7.249  0.00  0.00    -0.090 HD
ENDBRANCH  19  21
ENDBRANCH  14  19
ENDBRANCH   4  14
TORSDOF 5
