REMARK  Name = ZINC40829507
REMARK  8 active torsions:
REMARK  status: ('A' for Active; 'I' for Inactive)
REMARK    1  A    between atoms: C_1  and  C_2
REMARK    2  A    between atoms: C_5  and  N_11
REMARK    3  A    between atoms: C_6  and  C_10
REMARK    4  A    between atoms: C_7  and  O_8
REMARK    5  A    between atoms: O_8  and  C_9
REMARK    6  A    between atoms: N_11  and  S_12
REMARK    7  A    between atoms: S_12  and  C_15
REMARK    8  A    between atoms: C_16  and  C_22
REMARK                            x       y       z     vdW  Elec       q    Type
REMARK                         _______ _______ _______ _____ _____    ______ ____
ROOT
ATOM      1  N   UNL     1       0.059  -4.171  -0.026  0.00  0.00    -0.097 NA
ENDROOT
BRANCH   1   6
ATOM      2  C   UNL     1      -0.018   1.503   0.010  0.00  0.00    +0.047 C 
ATOM      3  C   UNL     1       0.002  -0.004   0.002  0.00  0.00    -0.008 A 
ATOM      4  C   UNL     1       0.006  -0.688  -1.199  0.00  0.00    +0.009 A 
ATOM      5  C   UNL     1       0.025  -2.069  -1.211  0.00  0.00    +0.027 A 
ATOM      6  C   UNL     1       0.041  -2.774  -0.014  0.00  0.00    +0.081 A 
ATOM      7  C   UNL     1       0.037  -2.089   1.193  0.00  0.00    +0.016 A 
ATOM      8  C   UNL     1       0.023  -0.703   1.200  0.00  0.00    +0.128 A 
ATOM      9  C   UNL     1       0.054  -2.851   2.493  0.00  0.00    +0.049 C 
BRANCH   8  10
ATOM     10  O   UNL     1       0.025  -0.030   2.381  0.00  0.00    -0.495 OA
ATOM     11  C   UNL     1      -1.248   0.274   2.956  0.00  0.00    +0.277 C 
ENDBRANCH   8  10
ENDBRANCH   1   6
BRANCH   1  12
ATOM     12  S   UNL     1       0.063  -4.987  -1.467  0.00  0.00    +0.100 S 
ATOM     13  O   UNL     1      -1.189  -4.725  -2.085  0.00  0.00    -0.148 OA
ATOM     14  O   UNL     1       1.302  -4.691  -2.098  0.00  0.00    -0.148 OA
BRANCH  12  15
ATOM     15  C   UNL     1       0.089  -6.708  -1.091  0.00  0.00    +0.171 A 
ATOM     16  C   UNL     1      -0.873  -7.621  -1.258  0.00  0.00    +0.050 A 
ATOM     17  N   UNL     1      -0.589  -8.900  -0.879  0.00  0.00    -0.318 N 
ATOM     18  H   UNL     1      -1.252  -9.601  -0.979  0.00  0.00    +0.169 HD
ATOM     19  C   UNL     1       0.627  -9.177  -0.364  0.00  0.00    +0.290 A 
ATOM     20  O   UNL     1       1.057 -10.248   0.026  0.00  0.00    -0.260 OA
ATOM     21  S   UNL     1       1.407  -7.687  -0.395  0.00  0.00    -0.006 S 
ATOM     22  C   UNL     1      -2.213  -7.252  -1.839  0.00  0.00    +0.066 C 
ENDBRANCH  12  15
ENDBRANCH   1  12
TORSDOF 4
