REMARK  Name = ZINC35919135
REMARK  7 active torsions:
REMARK  status: ('A' for Active; 'I' for Inactive)
REMARK    1  A    between atoms: C_1  and  C_2
REMARK    2  A    between atoms: C_2  and  N_3
REMARK    3  A    between atoms: N_3  and  C_4
REMARK    4  A    between atoms: N_14  and  C_17
REMARK    5  A    between atoms: N_26  and  C_28
REMARK    6  A    between atoms: C_28  and  C_29
REMARK    7  A    between atoms: C_31  and  C_36
REMARK                            x       y       z     vdW  Elec       q    Type
REMARK                         _______ _______ _______ _____ _____    ______ ____
ROOT
ATOM      1  N   UNL     1       0.680  -0.503  -1.175  0.00  0.00    -0.318 N 
ATOM      2  C   UNL     1       1.259   0.816  -0.907  0.00  0.00    +0.130 C 
ATOM      3  C   UNL     1      -0.036  -0.721  -2.341  0.00  0.00    +0.128 A 
ATOM      4  C   UNL     1       0.592  -1.260  -3.469  0.00  0.00    -0.003 A 
ATOM      5  C   UNL     1      -0.157  -1.461  -4.605  0.00  0.00    +0.048 A 
ATOM      6  N   UNL     1      -1.445  -1.138  -4.599  0.00  0.00    -0.219 NA
ATOM      7  C   UNL     1      -2.015  -0.629  -3.518  0.00  0.00    +0.220 A 
ATOM      8  N   UNL     1      -1.330  -0.427  -2.401  0.00  0.00    -0.199 NA
ATOM      9  N   UNL     1      -3.360  -0.306  -3.552  0.00  0.00    -0.297 N 
ATOM     10  C   UNL     1      -4.152  -0.528  -4.770  0.00  0.00    +0.127 C 
ATOM     11  C   UNL     1      -5.361  -1.402  -4.415  0.00  0.00    +0.124 C 
ATOM     12  N   UNL     1      -6.024  -0.831  -3.235  0.00  0.00    -0.327 N 
ATOM     13  C   UNL     1      -5.232  -0.608  -2.017  0.00  0.00    +0.124 C 
ATOM     14  C   UNL     1      -4.024   0.261  -2.369  0.00  0.00    +0.127 C 
ATOM     15  C   UNL     1       0.451  -2.043  -5.854  0.00  0.00    +0.037 C 
ATOM     16  C   UNL     1       1.977  -1.956  -5.773  0.00  0.00    -0.072 C 
ATOM     17  N   UNL     1       2.414  -2.523  -4.488  0.00  0.00    +0.385 N 
ATOM     18  C   UNL     1       2.055  -1.598  -3.409  0.00  0.00    -0.037 C 
ATOM     19  H   UNL     1       1.957  -3.410  -4.338  0.00  0.00    -0.081 HD
ENDROOT
BRANCH  12  20
ATOM     20  C   UNL     1      -7.383  -0.504  -3.269  0.00  0.00    +0.030 A 
ATOM     21  C   UNL     1      -7.968   0.151  -2.194  0.00  0.00    +0.026 A 
ATOM     22  C   UNL     1      -9.311   0.474  -2.231  0.00  0.00    +0.040 A 
ATOM     23  C   UNL     1     -10.073   0.144  -3.339  0.00  0.00    +0.124 A 
ATOM     24  C   UNL     1      -9.491  -0.510  -4.412  0.00  0.00    +0.040 A 
ATOM     25  C   UNL     1      -8.148  -0.829  -4.382  0.00  0.00    +0.026 A 
ATOM     26  F   UNL     1     -11.386   0.459  -3.373  0.00  0.00    -0.205 F 
ENDBRANCH  12  20
BRANCH   1  28
ATOM     27  C   UNL     1      -0.293  -1.574   0.796  0.00  0.00    +0.024 C 
ATOM     28  C   UNL     1       0.859  -1.591  -0.211  0.00  0.00    +0.103 C 
ENDBRANCH   1  28
BRANCH  17  29
ATOM     29  C   UNL     1       3.870  -2.716  -4.507  0.00  0.00    -0.040 C 
BRANCH  29  30
ATOM     30  C   UNL     1       4.227  -3.752  -5.541  0.00  0.00    -0.028 A 
ATOM     31  C   UNL     1       4.795  -3.364  -6.740  0.00  0.00    +0.008 A 
ATOM     32  C   UNL     1       5.122  -4.314  -7.689  0.00  0.00    -0.050 A 
ATOM     33  C   UNL     1       4.882  -5.653  -7.441  0.00  0.00    +0.006 A 
ATOM     34  C   UNL     1       4.314  -6.043  -6.243  0.00  0.00    +0.039 A 
ATOM     35  C   UNL     1       3.990  -5.092  -5.289  0.00  0.00    +0.125 A 
ATOM     36  F   UNL     1       3.440  -5.473  -4.116  0.00  0.00    -0.205 F 
ATOM     37  C   UNL     1       5.742  -3.891  -8.996  0.00  0.00    +0.044 C 
ENDBRANCH  29  30
ENDBRANCH  17  29
TORSDOF 4
