REMARK  Name = ZINC09789131
REMARK  5 active torsions:
REMARK  status: ('A' for Active; 'I' for Inactive)
REMARK    1  A    between atoms: C_8  and  C_32
REMARK    2  A    between atoms: C_11  and  C_12
REMARK    3  A    between atoms: C_11  and  N_56
REMARK    4  A    between atoms: C_15  and  C_27
REMARK    5  A    between atoms: C_18  and  C_20
REMARK                            x       y       z     vdW  Elec       q    Type
REMARK                         _______ _______ _______ _____ _____    ______ ____
ROOT
ATOM      1  C   UNL     1      -1.192   7.515  -1.600  0.00  0.00    +0.219 C 
ATOM      2  O   UNL     1      -1.587   6.430  -1.973  0.00  0.00    -0.276 OA
ATOM      3  N   UNL     1      -1.939   8.615  -1.817  0.00  0.00    -0.184 N 
ATOM      4  C   UNL     1      -3.246   8.643  -2.492  0.00  0.00    +0.172 C 
ATOM      5  C   UNL     1      -3.637  10.134  -2.463  0.00  0.00    +0.090 C 
ATOM      6  C   UNL     1      -2.477  10.800  -1.757  0.00  0.00    +0.069 C 
ATOM      7  N   UNL     1      -1.602   9.912  -1.434  0.00  0.00    -0.181 NA
ENDROOT
BRANCH   6   8
ATOM      8  C   UNL     1      -2.369  12.244  -1.475  0.00  0.00    -0.002 A 
ATOM      9  C   UNL     1      -3.386  13.115  -1.874  0.00  0.00    +0.011 A 
ATOM     10  C   UNL     1      -3.280  14.463  -1.602  0.00  0.00    +0.020 A 
ATOM     11  C   UNL     1      -2.165  14.955  -0.946  0.00  0.00    +0.041 A 
ATOM     12  C   UNL     1      -1.151  14.098  -0.553  0.00  0.00    +0.020 A 
ATOM     13  C   UNL     1      -1.246  12.747  -0.814  0.00  0.00    +0.011 A 
ATOM     14 CL   UNL     1      -2.037  16.654  -0.614  0.00  0.00    -0.084 Cl
ENDBRANCH   6   8
BRANCH   4  15
ATOM     15  C   UNL     1      -3.120   8.155  -3.912  0.00  0.00    +0.128 A 
ATOM     16  C   UNL     1      -4.010   7.381  -4.560  0.00  0.00    +0.046 A 
ATOM     17  C   UNL     1      -3.497   7.169  -5.861  0.00  0.00    +0.041 A 
ATOM     18  C   UNL     1      -2.322   7.820  -5.927  0.00  0.00    +0.195 A 
ATOM     19  O   UNL     1      -2.099   8.415  -4.744  0.00  0.00    -0.466 OA
ENDBRANCH   4  15
BRANCH   1  20
ATOM     20  C   UNL     1       0.134   7.631  -0.893  0.00  0.00    +0.022 C 
BRANCH  20  30
ATOM     21  C   UNL     1       2.614   1.778  -1.845  0.00  0.00    +0.000 A 
ATOM     22  C   UNL     1       2.800   2.533  -2.989  0.00  0.00    +0.000 A 
ATOM     23  C   UNL     1       2.291   3.814  -3.058  0.00  0.00    +0.002 A 
ATOM     24  C   UNL     1       1.602   4.354  -1.981  0.00  0.00    -0.061 A 
ATOM     25  C   UNL     1       1.424   3.604  -0.839  0.00  0.00    -0.047 A 
ATOM     26  C   UNL     1       1.931   2.315  -0.773  0.00  0.00    +0.004 A 
ATOM     27  C   UNL     1       0.689   4.150   0.359  0.00  0.00    +0.029 C 
ATOM     28  C   UNL     1      -0.130   5.376  -0.046  0.00  0.00    +0.024 C 
ATOM     29  C   UNL     1       1.066   5.756  -2.104  0.00  0.00    -0.041 C 
ATOM     30  N   UNL     1       0.768   6.300  -0.768  0.00  0.00    +0.396 N 
ATOM     31  H   UNL     1       1.645   6.395  -0.242  0.00  0.00    -0.080 HD
BRANCH  28  32
ATOM     32  C   UNL     1      -0.664   6.058   1.188  0.00  0.00    +0.197 C 
ATOM     33  O   UNL     1       0.016   6.874   1.772  0.00  0.00    -0.278 OA
ATOM     34  N   UNL     1      -1.898   5.759   1.641  0.00  0.00    -0.331 N 
ATOM     35  H   UNL     1      -2.442   5.106   1.174  0.00  0.00    +0.145 HD
ATOM     36  H   UNL     1      -2.242   6.198   2.435  0.00  0.00    +0.145 HD
ENDBRANCH  28  32
ENDBRANCH  20  30
ENDBRANCH   1  20
TORSDOF 5
