REMARK  Name = ZINC06878658
REMARK  11 active torsions:
REMARK  status: ('A' for Active; 'I' for Inactive)
REMARK    1  A    between atoms: C_1  and  N_52
REMARK    2  A    between atoms: C_2  and  N_52
REMARK    3  A    between atoms: C_3  and  C_4
REMARK    4  A    between atoms: C_3  and  N_52
REMARK    5  A    between atoms: C_4  and  C_5
REMARK    6  A    between atoms: C_5  and  N_6
REMARK    7  A    between atoms: C_7  and  C_23
REMARK    8  A    between atoms: C_10  and  S_11
REMARK    9  A    between atoms: S_11  and  C_12
REMARK   10  A    between atoms: C_12  and  C_13
REMARK   11  A    between atoms: N_15  and  C_16
REMARK                            x       y       z     vdW  Elec       q    Type
REMARK                         _______ _______ _______ _____ _____    ______ ____
ROOT
ATOM      1  N   UNL     1      -0.521   1.209   1.892  0.00  0.00    -0.302 N 
ATOM      2  C   UNL     1      -1.717   0.777   2.420  0.00  0.00    +0.165 A 
ATOM      3  N   UNL     1      -2.141   1.717   3.232  0.00  0.00    -0.128 NA
ATOM      4  N   UNL     1      -1.305   2.693   3.249  0.00  0.00    -0.122 NA
ATOM      5  C   UNL     1      -0.292   2.432   2.451  0.00  0.00    +0.192 A 
ENDROOT
BRANCH   2   6
ATOM      6  C   UNL     1      -2.395  -0.503   2.126  0.00  0.00    +0.022 A 
ATOM      7  C   UNL     1      -2.046  -1.260   1.002  0.00  0.00    +0.031 A 
ATOM      8  C   UNL     1      -2.702  -2.451   0.769  0.00  0.00    +0.111 A 
ATOM      9  N   UNL     1      -3.651  -2.873   1.583  0.00  0.00    -0.263 NA
ATOM     10  C   UNL     1      -4.014  -2.187   2.650  0.00  0.00    +0.111 A 
ATOM     11  C   UNL     1      -3.408  -0.989   2.962  0.00  0.00    +0.031 A 
ENDBRANCH   2   6
BRANCH   1  12
ATOM     12  C   UNL     1       0.331   0.500   0.935  0.00  0.00    +0.124 C 
BRANCH  12  13
ATOM     13  C   UNL     1      -0.028   0.935  -0.487  0.00  0.00    +0.003 C 
BRANCH  13  14
ATOM     14  C   UNL     1       0.862   0.195  -1.488  0.00  0.00    -0.078 C 
BRANCH  14  17
ATOM     15  C   UNL     1       1.500   0.108  -3.822  0.00  0.00    -0.097 C 
ATOM     16  C   UNL     1      -0.841   0.181  -3.208  0.00  0.00    -0.097 C 
ATOM     17  N   UNL     1       0.518   0.641  -2.854  0.00  0.00    +0.376 N 
ATOM     18  H   UNL     1       0.541   1.667  -2.885  0.00  0.00    -0.083 HD
ENDBRANCH  14  17
ENDBRANCH  13  14
ENDBRANCH  12  13
ENDBRANCH   1  12
BRANCH   5  19
ATOM     19  S   UNL     1       1.100   3.472   2.157  0.00  0.00    -0.077 S 
BRANCH  19  20
ATOM     20  C   UNL     1       0.683   4.868   3.231  0.00  0.00    +0.173 C 
BRANCH  20  21
ATOM     21  C   UNL     1       1.764   5.913   3.139  0.00  0.00    +0.227 C 
ATOM     22  O   UNL     1       2.723   5.732   2.418  0.00  0.00    -0.275 OA
ATOM     23  N   UNL     1       1.666   7.049   3.858  0.00  0.00    -0.285 N 
ATOM     24  H   UNL     1       0.938   7.163   4.489  0.00  0.00    +0.155 HD
BRANCH  23  25
ATOM     25  C   UNL     1       2.615   8.064   3.695  0.00  0.00    +0.034 A 
ATOM     26  C   UNL     1       2.975   8.861   4.774  0.00  0.00    +0.023 A 
ATOM     27  C   UNL     1       3.916   9.859   4.612  0.00  0.00    +0.003 A 
ATOM     28  C   UNL     1       4.492  10.072   3.373  0.00  0.00    +0.014 A 
ATOM     29  C   UNL     1       4.132   9.284   2.294  0.00  0.00    +0.015 A 
ATOM     30  C   UNL     1       3.195   8.281   2.452  0.00  0.00    +0.037 A 
ATOM     31  I   UNL     1       5.008   9.613   0.420  0.00  0.00    -0.044 I 
ENDBRANCH  23  25
ENDBRANCH  20  21
ENDBRANCH  19  20
ENDBRANCH   5  19
TORSDOF 9
