REMARK  Name = ZINC62462968
REMARK  7 active torsions:
REMARK  status: ('A' for Active; 'I' for Inactive)
REMARK    1  A    between atoms: C_1  and  C_2
REMARK    2  A    between atoms: C_2  and  C_3
REMARK    3  A    between atoms: C_2  and  C_4
REMARK    4  A    between atoms: C_4  and  C_6
REMARK    5  A    between atoms: C_4  and  N_17
REMARK    6  A    between atoms: N_8  and  C_9
REMARK    7  A    between atoms: C_12  and  N_16
REMARK                            x       y       z     vdW  Elec       q    Type
REMARK                         _______ _______ _______ _____ _____    ______ ____
ROOT
ATOM      1  C   UNL     1      -1.869  -0.425  -1.641  0.00  0.00    +0.204 C 
ATOM      2  O   UNL     1      -2.889   0.228  -1.716  0.00  0.00    -0.277 OA
ATOM      3  N   UNL     1      -1.268  -0.865  -2.764  0.00  0.00    -0.286 N 
ATOM      4  H   UNL     1      -0.502  -1.457  -2.703  0.00  0.00    +0.155 HD
ENDROOT
BRANCH   3   5
ATOM      5  C   UNL     1      -1.748  -0.467  -4.019  0.00  0.00    +0.052 A 
ATOM      6  C   UNL     1      -2.361   0.770  -4.168  0.00  0.00    +0.026 A 
ATOM      7  C   UNL     1      -2.834   1.163  -5.404  0.00  0.00    +0.024 A 
ATOM      8  C   UNL     1      -2.697   0.321  -6.500  0.00  0.00    +0.026 A 
ATOM      9  C   UNL     1      -2.084  -0.916  -6.352  0.00  0.00    +0.044 A 
ATOM     10  C   UNL     1      -1.606  -1.307  -5.116  0.00  0.00    +0.064 A 
ATOM     11 CL   UNL     1      -0.833  -2.851  -4.933  0.00  0.00    -0.082 Cl
BRANCH   8  12
ATOM     12  N   UNL     1      -3.178   0.719  -7.752  0.00  0.00    -0.358 N 
ATOM     13  H   UNL     1      -3.607   1.583  -7.855  0.00  0.00    +0.142 HD
ATOM     14  H   UNL     1      -3.082   0.130  -8.517  0.00  0.00    +0.142 HD
ENDBRANCH   8  12
ENDBRANCH   3   5
BRANCH   1  15
ATOM     15  C   UNL     1      -1.276  -0.743  -0.293  0.00  0.00    +0.022 C 
BRANCH  15  16
ATOM     16  N   UNL     1      -2.298  -0.564   0.747  0.00  0.00    +0.387 N 
ATOM     17  C   UNL     1      -1.748  -0.971   2.046  0.00  0.00    -0.078 C 
ATOM     18  C   UNL     1      -2.781  -0.711   3.144  0.00  0.00    -0.019 C 
ATOM     19  C   UNL     1      -4.048  -1.518   2.848  0.00  0.00    -0.004 C 
ATOM     20  C   UNL     1      -4.570  -1.139   1.460  0.00  0.00    -0.019 C 
ATOM     21  C   UNL     1      -3.472  -1.384   0.423  0.00  0.00    -0.078 C 
ATOM     22  H   UNL     1      -2.568   0.407   0.788  0.00  0.00    -0.081 HD
ENDBRANCH  15  16
BRANCH  15  24
ATOM     23  C   UNL     1      -0.614   1.482   0.629  0.00  0.00    +0.006 C 
ATOM     24  C   UNL     1      -0.099   0.196  -0.019  0.00  0.00    -0.022 C 
ATOM     25  C   UNL     1       0.892  -0.489   0.923  0.00  0.00    +0.006 C 
ENDBRANCH  15  24
ENDBRANCH   1  15
TORSDOF 5
