REMARK  Name = ZINC38681118
REMARK  2 active torsions:
REMARK  status: ('A' for Active; 'I' for Inactive)
REMARK    1  A    between atoms: C_9  and  C_12
REMARK    2  A    between atoms: N_14  and  C_15
REMARK                            x       y       z     vdW  Elec       q    Type
REMARK                         _______ _______ _______ _____ _____    ______ ____
ROOT
ATOM      1  C   UNL     1       4.611  -2.948  -0.510  0.00  0.00    +0.261 C 
ATOM      2  O   UNL     1       5.178  -2.591  -1.521  0.00  0.00    -0.271 OA
ATOM      3  N   UNL     1       5.143  -3.925   0.251  0.00  0.00    -0.282 N 
ATOM      4  H   UNL     1       4.725  -4.165   1.093  0.00  0.00    +0.155 HD
ENDROOT
BRANCH   3   5
ATOM      5  C   UNL     1       6.298  -4.593  -0.173  0.00  0.00    +0.034 A 
ATOM      6  C   UNL     1       6.431  -5.951   0.110  0.00  0.00    +0.028 A 
ATOM      7  C   UNL     1       7.549  -6.643  -0.288  0.00  0.00    -0.024 A 
ATOM      8  C   UNL     1       8.525  -5.922  -0.978  0.00  0.00    +0.043 A 
ATOM      9  C   UNL     1       8.398  -4.570  -1.265  0.00  0.00    -0.015 A 
ATOM     10  C   UNL     1       7.275  -3.876  -0.871  0.00  0.00    +0.029 A 
ATOM     11  C   UNL     1       9.646  -4.203  -2.007  0.00  0.00    +0.133 C 
ATOM     12  C   UNL     1      10.440  -5.501  -2.077  0.00  0.00    +0.224 C 
ATOM     13  O   UNL     1      11.524  -5.650  -2.599  0.00  0.00    -0.275 OA
ATOM     14  N   UNL     1       9.723  -6.450  -1.456  0.00  0.00    -0.271 N 
ATOM     15  C   UNL     1      10.045  -7.872  -1.241  0.00  0.00    +0.114 C 
ATOM     16  C   UNL     1       9.325  -8.344   0.028  0.00  0.00    +0.024 C 
ATOM     17  C   UNL     1       7.814  -8.100  -0.051  0.00  0.00    +0.038 C 
ENDBRANCH   3   5
BRANCH   1  26
ATOM     18  C   UNL     1      -0.845   0.273  -0.898  0.00  0.00    +0.004 A 
ATOM     19  C   UNL     1       0.169   0.993  -1.502  0.00  0.00    +0.004 A 
ATOM     20  C   UNL     1       1.453   0.485  -1.538  0.00  0.00    +0.049 A 
ATOM     21  C   UNL     1       1.729  -0.749  -0.967  0.00  0.00    +0.163 A 
ATOM     22  C   UNL     1       0.710  -1.472  -0.357  0.00  0.00    +0.162 A 
ATOM     23  C   UNL     1      -0.577  -0.957  -0.326  0.00  0.00    +0.049 A 
ATOM     24  O   UNL     1       0.961  -2.681   0.215  0.00  0.00    -0.484 OA
ATOM     25  C   UNL     1       2.179  -3.332  -0.161  0.00  0.00    +0.283 C 
ATOM     26  C   UNL     1       3.313  -2.299  -0.105  0.00  0.00    +0.296 C 
ATOM     27  O   UNL     1       2.998  -1.238  -1.014  0.00  0.00    -0.473 OA
ENDBRANCH   1  26
TORSDOF 2
