REMARK  Name = ZINC32075151
REMARK  5 active torsions:
REMARK  status: ('A' for Active; 'I' for Inactive)
REMARK    1  A    between atoms: C_3  and  N_19
REMARK    2  A    between atoms: C_6  and  C_7
REMARK    3  A    between atoms: C_7  and  N_8
REMARK    4  A    between atoms: C_9  and  C_10
REMARK    5  A    between atoms: C_15  and  O_16
REMARK                            x       y       z     vdW  Elec       q    Type
REMARK                         _______ _______ _______ _____ _____    ______ ____
ROOT
ATOM      1  C   UNL     1      -0.155   1.475   0.106  0.00  0.00    +0.007 A 
ATOM      2  C   UNL     1       0.975   2.267   0.143  0.00  0.00    +0.023 A 
ATOM      3  C   UNL     1       2.234   1.680   0.119  0.00  0.00    +0.030 A 
ATOM      4  C   UNL     1       2.351   0.297   0.056  0.00  0.00    +0.023 A 
ATOM      5  C   UNL     1       1.216  -0.489   0.019  0.00  0.00    +0.007 A 
ATOM      6  C   UNL     1      -0.035   0.098   0.044  0.00  0.00    -0.028 A 
ENDROOT
BRANCH   3   7
ATOM      7  N   UNL     1       3.379   2.478   0.156  0.00  0.00    -0.320 N 
ATOM      8  C   UNL     1       4.724   1.885   0.252  0.00  0.00    +0.124 C 
ATOM      9  C   UNL     1       5.512   2.284  -0.997  0.00  0.00    +0.123 C 
ATOM     10  N   UNL     1       5.364   3.707  -1.269  0.00  0.00    -0.313 N 
ATOM     11  C   UNL     1       4.359   4.463  -0.824  0.00  0.00    +0.230 C 
ATOM     12  O   UNL     1       4.302   5.620  -1.183  0.00  0.00    -0.274 OA
ATOM     13  C   UNL     1       3.292   3.945   0.095  0.00  0.00    +0.200 C 
ATOM     14  H   UNL     1       6.045   4.136  -1.811  0.00  0.00    +0.149 HD
ENDBRANCH   3   7
BRANCH   6  15
ATOM     15  C   UNL     1      -1.271  -0.763   0.003  0.00  0.00    +0.147 C 
BRANCH  15  16
ATOM     16  N   UNL     1      -1.670  -0.980  -1.390  0.00  0.00    -0.386 N 
ATOM     17  C   UNL     1      -1.632  -2.170  -1.896  0.00  0.00    +0.090 C 
ATOM     18  H   UNL     1      -1.963  -0.231  -1.932  0.00  0.00    +0.159 HD
BRANCH  17  19
ATOM     19  C   UNL     1      -1.886  -2.368  -3.334  0.00  0.00    +0.035 A 
ATOM     20  C   UNL     1      -1.967  -3.659  -3.862  0.00  0.00    +0.033 A 
ATOM     21  C   UNL     1      -2.206  -3.838  -5.209  0.00  0.00    +0.043 A 
ATOM     22  C   UNL     1      -2.366  -2.741  -6.042  0.00  0.00    +0.043 A 
ATOM     23  C   UNL     1      -2.288  -1.459  -5.532  0.00  0.00    +0.084 A 
ATOM     24  C   UNL     1      -2.054  -1.262  -4.178  0.00  0.00    +0.144 A 
ATOM     25 CL   UNL     1      -2.489  -0.094  -6.585  0.00  0.00    -0.080 Cl
ATOM     26 CL   UNL     1      -2.306  -5.442  -5.864  0.00  0.00    -0.083 Cl
BRANCH  24  27
ATOM     27  O   UNL     1      -1.983  -0.004  -3.675  0.00  0.00    -0.505 OA
ATOM     28  H   UNL     1      -1.093   0.374  -3.685  0.00  0.00    +0.292 HD
ENDBRANCH  24  27
ENDBRANCH  17  19
ENDBRANCH  15  16
ENDBRANCH   6  15
TORSDOF 5
